REMARK  Name = ZINC35966609
REMARK  12 active torsions:
REMARK  status: ('A' for Active; 'I' for Inactive)
REMARK    1  A    between atoms: C_1  and  C_2
REMARK    2  A    between atoms: C_2  and  N_3
REMARK    3  A    between atoms: C_6  and  C_11
REMARK    4  A    between atoms: C_16  and  C_17
REMARK    5  A    between atoms: N_23  and  C_25
REMARK    6  A    between atoms: C_25  and  C_27
REMARK    7  A    between atoms: C_25  and  C_31
REMARK    8  A    between atoms: C_27  and  C_28
REMARK    9  A    between atoms: C_28  and  C_29
REMARK   10  A    between atoms: C_28  and  C_30
REMARK   11  A    between atoms: N_33  and  C_34
REMARK   12  A    between atoms: C_34  and  C_35
REMARK                            x       y       z     vdW  Elec       q    Type
REMARK                         _______ _______ _______ _____ _____    ______ ____
ROOT
ATOM      1  N   UNL     1       1.547  -0.716  -1.465  0.00  0.00    -0.257 N 
ATOM      2  C   UNL     1       1.100  -0.976  -2.729  0.00  0.00    +0.042 C 
ATOM      3  C   UNL     1       1.944  -0.989  -3.780  0.00  0.00    +0.058 C 
ATOM      4  C   UNL     1       3.408  -0.706  -3.511  0.00  0.00    +0.142 C 
ATOM      5  N   UNL     1       3.790  -0.438  -2.114  0.00  0.00    -0.288 N 
ATOM      6  C   UNL     1       2.827  -0.455  -1.171  0.00  0.00    +0.307 C 
ATOM      7  O   UNL     1       3.131  -0.231  -0.016  0.00  0.00    -0.252 OA
ATOM      8  C   UNL     1       1.244  -1.280  -4.969  0.00  0.00    +0.247 C 
ATOM      9  O   UNL     1       1.758  -1.356  -6.070  0.00  0.00    -0.270 OA
ATOM     10  N   UNL     1      -0.067  -1.464  -4.728  0.00  0.00    -0.281 N 
ATOM     11  C   UNL     1      -0.273  -1.286  -3.283  0.00  0.00    +0.160 C 
ATOM     12  H   UNL     1       4.712  -0.250  -1.879  0.00  0.00    +0.151 HD
ENDROOT
BRANCH   4  13
ATOM     13  C   UNL     1       4.207  -1.891  -3.991  0.00  0.00    -0.011 A 
ATOM     14  C   UNL     1       4.170  -3.080  -3.287  0.00  0.00    +0.006 A 
ATOM     15  C   UNL     1       4.902  -4.167  -3.727  0.00  0.00    +0.000 A 
ATOM     16  C   UNL     1       5.671  -4.064  -4.871  0.00  0.00    +0.001 A 
ATOM     17  C   UNL     1       5.707  -2.876  -5.576  0.00  0.00    +0.013 A 
ATOM     18  C   UNL     1       4.971  -1.790  -5.138  0.00  0.00    +0.060 A 
BRANCH  18  19
ATOM     19  C   UNL     1       5.007  -0.496  -5.909  0.00  0.00    +0.418 C 
ATOM     20  F   UNL     1       5.790  -0.658  -7.057  0.00  0.00    -0.166 F 
ATOM     21  F   UNL     1       3.706  -0.138  -6.279  0.00  0.00    -0.166 F 
ATOM     22  F   UNL     1       5.557   0.510  -5.107  0.00  0.00    -0.166 F 
ENDBRANCH  18  19
ENDBRANCH   4  13
BRANCH   1  24
ATOM     23  C   UNL     1      -0.007   0.688  -0.202  0.00  0.00    +0.025 C 
ATOM     24  C   UNL     1       0.572  -0.718  -0.372  0.00  0.00    +0.111 C 
ENDBRANCH   1  24
BRANCH  10  25
ATOM     25  C   UNL     1      -1.097  -1.780  -5.720  0.00  0.00    +0.163 C 
BRANCH  25  26
ATOM     26  C   UNL     1      -0.846  -3.155  -6.284  0.00  0.00    +0.234 C 
ATOM     27  O   UNL     1       0.101  -3.806  -5.895  0.00  0.00    -0.274 OA
ATOM     28  N   UNL     1      -1.673  -3.661  -7.220  0.00  0.00    -0.307 N 
ATOM     29  H   UNL     1      -2.430  -3.141  -7.531  0.00  0.00    +0.149 HD
BRANCH  28  30
ATOM     30  C   UNL     1      -1.428  -4.998  -7.768  0.00  0.00    +0.178 C 
BRANCH  30  31
ATOM     31  C   UNL     1      -2.488  -5.324  -8.789  0.00  0.00    +0.122 A 
ATOM     32  C   UNL     1      -2.417  -5.064 -10.106  0.00  0.00    +0.046 A 
ATOM     33  C   UNL     1      -3.620  -5.534 -10.682  0.00  0.00    +0.041 A 
ATOM     34  C   UNL     1      -4.354  -6.053  -9.681  0.00  0.00    +0.195 A 
ATOM     35  O   UNL     1      -3.661  -5.928  -8.538  0.00  0.00    -0.466 OA
ENDBRANCH  30  31
ENDBRANCH  28  30
ENDBRANCH  25  26
BRANCH  25  36
ATOM     36  C   UNL     1      -1.051  -0.750  -6.850  0.00  0.00    +0.035 C 
BRANCH  36  37
ATOM     37  C   UNL     1      -1.463   0.620  -6.308  0.00  0.00    -0.015 C 
ATOM     38  C   UNL     1      -0.388   1.133  -5.348  0.00  0.00    +0.007 C 
ATOM     39  C   UNL     1      -1.620   1.603  -7.470  0.00  0.00    +0.007 C 
ENDBRANCH  36  37
ENDBRANCH  25  36
ENDBRANCH  10  25
TORSDOF 9
