REMARK  Name = ZINC52607095
REMARK  8 active torsions:
REMARK  status: ('A' for Active; 'I' for Inactive)
REMARK    1  A    between atoms: C_1  and  C_2
REMARK    2  A    between atoms: C_2  and  C_39
REMARK    3  A    between atoms: C_7  and  C_21
REMARK    4  A    between atoms: C_8  and  N_11
REMARK    5  A    between atoms: C_12  and  C_14
REMARK    6  A    between atoms: C_15  and  C_16
REMARK    7  A    between atoms: C_21  and  S_22
REMARK    8  A    between atoms: S_22  and  N_25
REMARK                            x       y       z     vdW  Elec       q    Type
REMARK                         _______ _______ _______ _____ _____    ______ ____
ROOT
ATOM      1  C   UNL     1      -0.214   1.494  -0.004  0.00  0.00    +0.012 C 
ATOM      2  C   UNL     1      -0.096  -0.032  -0.011  0.00  0.00    -0.023 C 
ATOM      3  C   UNL     1      -1.469  -0.730   0.291  0.00  0.00    -0.003 C 
ATOM      4  C   UNL     1      -1.738  -0.223   1.741  0.00  0.00    +0.005 C 
ATOM      5  C   UNL     1      -0.336  -0.117   2.384  0.00  0.00    +0.011 C 
ATOM      6  C   UNL     1       0.648  -0.570   1.262  0.00  0.00    +0.015 C 
ATOM      7  C   UNL     1       0.396  -2.102   1.117  0.00  0.00    +0.082 C 
ATOM      8  C   UNL     1      -1.009  -2.211   0.454  0.00  0.00    +0.027 C 
ATOM      9  C   UNL     1       0.538  -0.544  -1.305  0.00  0.00    +0.012 C 
ENDROOT
BRANCH   7  10
ATOM     10  N   UNL     1       0.407  -2.748   2.432  0.00  0.00    -0.308 N 
ATOM     11  C   UNL     1       0.530  -4.088   2.523  0.00  0.00    +0.237 C 
ATOM     12  O   UNL     1       0.632  -4.759   1.514  0.00  0.00    -0.271 OA
ATOM     13  H   UNL     1       0.326  -2.213   3.236  0.00  0.00    +0.149 HD
BRANCH  11  14
ATOM     14  C   UNL     1       0.542  -4.737   3.844  0.00  0.00    +0.069 C 
ATOM     15  C   UNL     1       0.666  -6.078   3.936  0.00  0.00    +0.030 C 
BRANCH  15  16
ATOM     16  C   UNL     1       0.677  -6.724   5.249  0.00  0.00    +0.064 C 
ATOM     17  N   UNL     1       0.572  -6.147   6.420  0.00  0.00    -0.239 NA
ATOM     18  C   UNL     1       0.619  -7.033   7.422  0.00  0.00    +0.216 C 
ATOM     19  N   UNL     1       0.757  -8.255   7.018  0.00  0.00    -0.266 NA
ATOM     20  C   UNL     1       0.806  -8.206   5.546  0.00  0.00    +0.198 C 
ENDBRANCH  15  16
ENDBRANCH  11  14
ENDBRANCH   7  10
BRANCH   6  21
ATOM     21  C   UNL     1       2.104  -0.131   1.431  0.00  0.00    +0.194 C 
BRANCH  21  22
ATOM     22  S   UNL     1       2.781  -0.853   2.951  0.00  0.00    +0.032 S 
ATOM     23  O   UNL     1       2.147  -0.283   4.089  0.00  0.00    -0.158 OA
ATOM     24  O   UNL     1       2.893  -2.263   2.815  0.00  0.00    -0.158 OA
BRANCH  22  25
ATOM     25  N   UNL     1       4.343  -0.309   3.022  0.00  0.00    -0.181 NA
ATOM     26  C   UNL     1       5.430  -1.075   2.396  0.00  0.00    +0.110 C 
ATOM     27  C   UNL     1       6.516  -1.335   3.446  0.00  0.00    +0.028 C 
ATOM     28  C   UNL     1       6.944  -0.011   4.072  0.00  0.00    -0.001 C 
ATOM     29  C   UNL     1       7.535   0.913   2.992  0.00  0.00    +0.016 C 
ATOM     30  C   UNL     1       9.044   0.596   3.077  0.00  0.00    +0.036 C 
ATOM     31  C   UNL     1       9.269   0.112   4.494  0.00  0.00    -0.044 A 
ATOM     32  C   UNL     1       8.059  -0.238   5.066  0.00  0.00    -0.038 A 
ATOM     33  C   UNL     1       8.024  -0.712   6.366  0.00  0.00    +0.004 A 
ATOM     34  C   UNL     1       9.192  -0.836   7.093  0.00  0.00    +0.000 A 
ATOM     35  C   UNL     1      10.400  -0.486   6.522  0.00  0.00    +0.000 A 
ATOM     36  C   UNL     1      10.438  -0.014   5.224  0.00  0.00    +0.004 A 
ATOM     37  C   UNL     1       5.760   0.671   4.750  0.00  0.00    +0.028 C 
ATOM     38  C   UNL     1       4.667   0.950   3.706  0.00  0.00    +0.110 C 
ENDBRANCH  22  25
ENDBRANCH  21  22
ENDBRANCH   6  21
TORSDOF 6
