REMARK  Name = ZINC19941510
REMARK  11 active torsions:
REMARK  status: ('A' for Active; 'I' for Inactive)
REMARK    1  A    between atoms: C_1  and  C_2
REMARK    2  A    between atoms: C_2  and  N_3
REMARK    3  A    between atoms: N_6  and  C_9
REMARK    4  A    between atoms: C_9  and  C_11
REMARK    5  A    between atoms: C_9  and  C_25
REMARK    6  A    between atoms: C_16  and  C_24
REMARK    7  A    between atoms: C_17  and  C_23
REMARK    8  A    between atoms: N_29  and  C_30
REMARK    9  A    between atoms: C_30  and  C_31
REMARK   10  A    between atoms: C_34  and  O_37
REMARK   11  A    between atoms: O_37  and  C_38
REMARK                            x       y       z     vdW  Elec       q    Type
REMARK                         _______ _______ _______ _____ _____    ______ ____
ROOT
ATOM      1  C   UNL     1      -2.331  -0.862   1.881  0.00  0.00    +0.162 C 
ENDROOT
BRANCH   1   2
ATOM      2  C   UNL     1      -2.727   0.396   2.611  0.00  0.00    +0.042 A 
ATOM      3  C   UNL     1      -1.772   1.256   3.042  0.00  0.00    +0.021 A 
ATOM      4  C   UNL     1      -2.190   2.470   3.747  0.00  0.00    -0.001 A 
ATOM      5  C   UNL     1      -1.251   3.395   4.215  0.00  0.00    +0.010 A 
ATOM      6  C   UNL     1      -1.674   4.517   4.869  0.00  0.00    +0.004 A 
ATOM      7  C   UNL     1      -3.027   4.748   5.073  0.00  0.00    -0.046 A 
ATOM      8  C   UNL     1      -3.970   3.850   4.621  0.00  0.00    -0.024 A 
ATOM      9  C   UNL     1      -3.563   2.700   3.952  0.00  0.00    +0.052 A 
ATOM     10  N   UNL     1      -4.485   1.786   3.487  0.00  0.00    -0.322 N 
ATOM     11  H   UNL     1      -5.559   1.959   3.647  0.00  0.00    +0.169 HD
ATOM     12  C   UNL     1      -4.092   0.678   2.836  0.00  0.00    +0.254 A 
ATOM     13  O   UNL     1      -4.934  -0.107   2.436  0.00  0.00    -0.268 OA
ATOM     14  C   UNL     1      -5.436   4.114   4.850  0.00  0.00    +0.046 C 
ATOM     15  C   UNL     1      -3.471   5.994   5.797  0.00  0.00    +0.044 C 
ENDBRANCH   1   2
BRANCH   1  19
ATOM     16  N   UNL     1      -2.506  -4.449   4.105  0.00  0.00    +0.381 N 
ATOM     17  C   UNL     1      -3.005  -4.471   2.723  0.00  0.00    -0.063 C 
ATOM     18  C   UNL     1      -2.424  -3.280   1.956  0.00  0.00    +0.067 C 
ATOM     19  N   UNL     1      -2.806  -2.032   2.631  0.00  0.00    -0.292 NA
ATOM     20  C   UNL     1      -2.307  -2.011   4.013  0.00  0.00    +0.067 C 
ATOM     21  C   UNL     1      -2.888  -3.201   4.780  0.00  0.00    -0.063 C 
ATOM     22  H   UNL     1      -1.407  -4.495   4.071  0.00  0.00    -0.082 HD
BRANCH  16  24
ATOM     23  C   UNL     1      -2.657  -5.441   6.339  0.00  0.00    -0.017 C 
ATOM     24  C   UNL     1      -2.981  -5.620   4.855  0.00  0.00    -0.082 C 
ENDBRANCH  16  24
ENDBRANCH   1  19
BRANCH   1  25
ATOM     25  C   UNL     1      -0.830  -0.919   1.759  0.00  0.00    +0.173 A 
ATOM     26  N   UNL     1       0.026  -1.147   2.725  0.00  0.00    -0.111 NA
ATOM     27  N   UNL     1       1.212  -1.115   2.222  0.00  0.00    -0.023 NA
ATOM     28  N   UNL     1       1.134  -0.879   0.959  0.00  0.00    -0.044 NA
ATOM     29  N   UNL     1      -0.108  -0.746   0.636  0.00  0.00    -0.223 N 
BRANCH  29  30
ATOM     30  C   UNL     1      -0.634  -0.466  -0.702  0.00  0.00    +0.182 C 
BRANCH  30  31
ATOM     31  C   UNL     1      -0.620   1.021  -0.946  0.00  0.00    -0.026 A 
ATOM     32  C   UNL     1      -1.758   1.770  -0.713  0.00  0.00    +0.009 A 
ATOM     33  C   UNL     1      -1.746   3.134  -0.931  0.00  0.00    +0.046 A 
ATOM     34  C   UNL     1      -0.593   3.751  -1.395  0.00  0.00    +0.120 A 
ATOM     35  C   UNL     1       0.547   2.996  -1.633  0.00  0.00    +0.046 A 
ATOM     36  C   UNL     1       0.531   1.633  -1.409  0.00  0.00    +0.009 A 
BRANCH  34  37
ATOM     37  O   UNL     1      -0.579   5.092  -1.614  0.00  0.00    -0.495 OA
ATOM     38  C   UNL     1      -1.788   5.805  -1.347  0.00  0.00    +0.277 C 
ENDBRANCH  34  37
ENDBRANCH  30  31
ENDBRANCH  29  30
ENDBRANCH   1  25
TORSDOF 7
