REMARK  Name = ZINC35988235
REMARK  9 active torsions:
REMARK  status: ('A' for Active; 'I' for Inactive)
REMARK    1  A    between atoms: C_1  and  C_2
REMARK    2  A    between atoms: C_7  and  C_8
REMARK    3  A    between atoms: C_17  and  C_21
REMARK    4  A    between atoms: N_23  and  C_24
REMARK    5  A    between atoms: C_24  and  C_25
REMARK    6  A    between atoms: C_25  and  N_26
REMARK    7  A    between atoms: N_26  and  C_27
REMARK    8  A    between atoms: N_26  and  C_28
REMARK    9  A    between atoms: C_29  and  C_31
REMARK                            x       y       z     vdW  Elec       q    Type
REMARK                         _______ _______ _______ _____ _____    ______ ____
ROOT
ATOM      1  C   UNL     1      -0.700  -1.062   2.179  0.00  0.00    +0.247 C 
ATOM      2  O   UNL     1      -1.247   0.018   2.072  0.00  0.00    -0.270 OA
ATOM      3  N   UNL     1      -0.383  -1.538   3.400  0.00  0.00    -0.297 N 
ATOM      4  C   UNL     1       0.380  -2.786   3.541  0.00  0.00    +0.112 C 
ATOM      5  C   UNL     1       1.608  -2.515   4.418  0.00  0.00    +0.074 C 
ATOM      6  C   UNL     1       1.159  -1.894   5.741  0.00  0.00    +0.142 C 
ATOM      7  C   UNL     1       0.444  -0.568   5.480  0.00  0.00    +0.074 C 
ATOM      8  C   UNL     1      -0.789  -0.817   4.614  0.00  0.00    +0.112 C 
ATOM      9  N   UNL     1       0.251  -2.817   6.438  0.00  0.00    -0.253 N 
ATOM     10  C   UNL     1       0.887  -3.110   7.742  0.00  0.00    +0.190 C 
ATOM     11  C   UNL     1       1.852  -1.913   7.929  0.00  0.00    +0.194 C 
ATOM     12  O   UNL     1       2.304  -1.666   6.577  0.00  0.00    -0.353 OA
ATOM     13  C   UNL     1      -0.923  -3.298   5.982  0.00  0.00    +0.285 C 
ATOM     14  O   UNL     1      -1.349  -2.937   4.901  0.00  0.00    -0.267 OA
ENDROOT
BRANCH   1  21
ATOM     15  C   UNL     1       0.978   0.082   0.119  0.00  0.00    +0.044 C 
ATOM     16  C   UNL     1       0.425  -1.312  -0.029  0.00  0.00    -0.038 A 
ATOM     17  C   UNL     1       0.723  -2.058  -1.151  0.00  0.00    +0.004 A 
ATOM     18  C   UNL     1       0.216  -3.338  -1.288  0.00  0.00    +0.000 A 
ATOM     19  C   UNL     1      -0.591  -3.879  -0.302  0.00  0.00    +0.001 A 
ATOM     20  C   UNL     1      -0.895  -3.144   0.825  0.00  0.00    +0.013 A 
ATOM     21  C   UNL     1      -0.383  -1.854   0.972  0.00  0.00    +0.040 A 
ENDBRANCH   1  21
BRANCH  13  22
ATOM     22  C   UNL     1      -1.686  -4.255   6.790  0.00  0.00    +0.189 A 
ATOM     23  C   UNL     1      -2.951  -4.696   6.528  0.00  0.00    +0.054 A 
ATOM     24  C   UNL     1      -3.285  -5.596   7.552  0.00  0.00    +0.042 A 
ATOM     25  C   UNL     1      -2.223  -5.664   8.384  0.00  0.00    +0.196 A 
ATOM     26  O   UNL     1      -1.259  -4.858   7.918  0.00  0.00    -0.458 OA
ENDBRANCH  13  22
BRANCH  10  27
ATOM     27  C   UNL     1      -0.143  -3.148   8.842  0.00  0.00    +0.236 C 
ATOM     28  O   UNL     1      -1.290  -2.831   8.610  0.00  0.00    -0.274 OA
ATOM     29  N   UNL     1       0.211  -3.534  10.084  0.00  0.00    -0.315 N 
ATOM     30  H   UNL     1       1.129  -3.788  10.269  0.00  0.00    +0.149 HD
BRANCH  29  31
ATOM     31  C   UNL     1      -0.790  -3.571  11.153  0.00  0.00    +0.085 C 
BRANCH  31  32
ATOM     32  C   UNL     1      -0.131  -4.040  12.452  0.00  0.00    -0.061 C 
BRANCH  32  33
ATOM     33  N   UNL     1      -1.135  -4.077  13.524  0.00  0.00    +0.377 N 
ATOM     34  C   UNL     1      -0.533  -4.640  14.739  0.00  0.00    -0.097 C 
ATOM     35  C   UNL     1      -1.608  -2.713  13.798  0.00  0.00    -0.097 C 
ATOM     36  H   UNL     1      -1.913  -4.651  13.237  0.00  0.00    -0.083 HD
ENDBRANCH  32  33
ENDBRANCH  31  32
ENDBRANCH  29  31
ENDBRANCH  10  27
TORSDOF 6
