REMARK  Name = ZINC36500888
REMARK  9 active torsions:
REMARK  status: ('A' for Active; 'I' for Inactive)
REMARK    1  A    between atoms: C_3  and  C_9
REMARK    2  A    between atoms: C_4  and  O_8
REMARK    3  A    between atoms: C_5  and  O_7
REMARK    4  A    between atoms: N_11  and  C_12
REMARK    5  A    between atoms: N_11  and  C_18
REMARK    6  A    between atoms: C_12  and  C_13
REMARK    7  A    between atoms: C_18  and  C_20
REMARK    8  A    between atoms: C_18  and  C_27
REMARK    9  A    between atoms: N_29  and  C_30
REMARK                            x       y       z     vdW  Elec       q    Type
REMARK                         _______ _______ _______ _____ _____    ______ ____
ROOT
ATOM      1  C   UNL     1       3.064   2.739   0.733  0.00  0.00    +0.252 C 
ATOM      2  O   UNL     1       2.154   2.600   1.526  0.00  0.00    -0.270 OA
ATOM      3  N   UNL     1       3.367   3.965   0.261  0.00  0.00    -0.275 N 
ENDROOT
BRANCH   1   6
ATOM      4  C   UNL     1       4.824   0.276  -1.488  0.00  0.00    +0.005 A 
ATOM      5  C   UNL     1       4.101   1.373  -1.074  0.00  0.00    +0.017 A 
ATOM      6  C   UNL     1       3.838   1.565   0.285  0.00  0.00    +0.082 A 
ATOM      7  C   UNL     1       4.313   0.637   1.221  0.00  0.00    +0.171 A 
ATOM      8  C   UNL     1       5.042  -0.466   0.787  0.00  0.00    +0.159 A 
ATOM      9  C   UNL     1       5.295  -0.642  -0.563  0.00  0.00    +0.049 A 
BRANCH   8  10
ATOM     10  O   UNL     1       5.508  -1.371   1.690  0.00  0.00    -0.503 OA
ATOM     11  H   UNL     1       4.894  -2.096   1.872  0.00  0.00    +0.292 HD
ENDBRANCH   8  10
BRANCH   7  12
ATOM     12  O   UNL     1       4.064   0.814   2.543  0.00  0.00    -0.503 OA
ATOM     13  H   UNL     1       3.244   0.402   2.848  0.00  0.00    +0.292 HD
ENDBRANCH   7  12
ENDBRANCH   1   6
BRANCH   3  14
ATOM     14  C   UNL     1       2.671   5.143   0.784  0.00  0.00    +0.183 C 
BRANCH  14  15
ATOM     15  C   UNL     1       2.763   5.154   2.288  0.00  0.00    +0.122 A 
ATOM     16  C   UNL     1       3.437   6.053   3.028  0.00  0.00    +0.046 A 
ATOM     17  C   UNL     1       3.256   5.688   4.382  0.00  0.00    +0.041 A 
ATOM     18  C   UNL     1       2.482   4.588   4.388  0.00  0.00    +0.195 A 
ATOM     19  O   UNL     1       2.182   4.273   3.118  0.00  0.00    -0.466 OA
ENDBRANCH  14  15
ENDBRANCH   3  14
BRANCH   3  20
ATOM     20  C   UNL     1       4.392   4.119  -0.774  0.00  0.00    +0.193 C 
BRANCH  20  21
ATOM     21  C   UNL     1       3.738   4.518  -2.072  0.00  0.00    -0.018 A 
ATOM     22  C   UNL     1       2.381   4.777  -2.111  0.00  0.00    +0.007 A 
ATOM     23  C   UNL     1       1.781   5.143  -3.301  0.00  0.00    +0.020 A 
ATOM     24  C   UNL     1       2.540   5.251  -4.454  0.00  0.00    +0.041 A 
ATOM     25  C   UNL     1       3.898   4.992  -4.413  0.00  0.00    +0.020 A 
ATOM     26  C   UNL     1       4.498   4.631  -3.221  0.00  0.00    +0.007 A 
ATOM     27 CL   UNL     1       1.787   5.711  -5.949  0.00  0.00    -0.084 Cl
ENDBRANCH  20  21
BRANCH  20  28
ATOM     28  C   UNL     1       5.371   5.185  -0.356  0.00  0.00    +0.238 C 
ATOM     29  O   UNL     1       5.277   5.700   0.738  0.00  0.00    -0.273 OA
ATOM     30  N   UNL     1       6.353   5.566  -1.198  0.00  0.00    -0.311 N 
ATOM     31  H   UNL     1       6.428   5.154  -2.073  0.00  0.00    +0.149 HD
BRANCH  30  32
ATOM     32  C   UNL     1       7.305   6.602  -0.791  0.00  0.00    +0.073 C 
ATOM     33  C   UNL     1       6.715   7.982  -1.088  0.00  0.00    +0.022 C 
ATOM     34  C   UNL     1       7.709   9.065  -0.664  0.00  0.00    +0.002 C 
ATOM     35  C   UNL     1       9.015   8.890  -1.441  0.00  0.00    +0.000 C 
ATOM     36  C   UNL     1       9.606   7.510  -1.144  0.00  0.00    +0.002 C 
ATOM     37  C   UNL     1       8.611   6.428  -1.569  0.00  0.00    +0.022 C 
ENDBRANCH  30  32
ENDBRANCH  20  28
ENDBRANCH   3  20
TORSDOF 9
