REMARK  Name = ZINC06232537
REMARK  7 active torsions:
REMARK  status: ('A' for Active; 'I' for Inactive)
REMARK    1  A    between atoms: C_1  and  C_2
REMARK    2  A    between atoms: C_2  and  C_28
REMARK    3  A    between atoms: C_6  and  C_16
REMARK    4  A    between atoms: C_11  and  O_15
REMARK    5  A    between atoms: C_22  and  S_24
REMARK    6  A    between atoms: S_24  and  C_25
REMARK    7  A    between atoms: C_25  and  C_26
REMARK                            x       y       z     vdW  Elec       q    Type
REMARK                         _______ _______ _______ _____ _____    ______ ____
ROOT
ATOM      1  C   UNL     1      -6.851   4.938  -1.180  0.00  0.00    +0.034 C 
ATOM      2  C   UNL     1      -6.015   3.678  -0.882  0.00  0.00    +0.040 C 
ATOM      3  C   UNL     1      -4.745   4.111  -0.166  0.00  0.00    +0.096 C 
ATOM      4  C   UNL     1      -3.561   3.187  -0.414  0.00  0.00    +0.180 C 
ATOM      5  C   UNL     1      -3.675   1.914   0.428  0.00  0.00    +0.082 C 
ATOM      6  C   UNL     1      -2.504   0.986   0.087  0.00  0.00    +0.065 C 
ATOM      7  C   UNL     1      -1.215   1.764   0.029  0.00  0.00    +0.003 A 
ATOM      8  C   UNL     1      -0.013   1.076   0.008  0.00  0.00    +0.011 A 
ATOM      9  C   UNL     1       1.187   1.760   0.000  0.00  0.00    +0.046 A 
ATOM     10  C   UNL     1       1.195   3.147  -0.008  0.00  0.00    +0.120 A 
ATOM     11  C   UNL     1      -0.004   3.839  -0.011  0.00  0.00    +0.091 A 
ATOM     12  C   UNL     1      -1.210   3.149   0.004  0.00  0.00    +0.131 A 
ATOM     13  O   UNL     1      -2.363   3.867  -0.009  0.00  0.00    -0.468 OA
ATOM     14  N   UNL     1      -3.456   2.837  -1.830  0.00  0.00    -0.288 N 
ATOM     15  C   UNL     1      -4.592   2.671  -2.583  0.00  0.00    +0.131 C 
ATOM     16  N   UNL     1      -5.756   3.007  -2.144  0.00  0.00    -0.363 N 
ATOM     17  C   UNL     1      -6.851   2.770   0.024  0.00  0.00    +0.034 C 
ATOM     18  H   UNL     1      -2.466   2.708  -2.292  0.00  0.00    +0.152 HD
ATOM     19  H   UNL     1      -6.653   2.788  -2.742  0.00  0.00    +0.162 HD
ENDROOT
BRANCH   6  20
ATOM     20  C   UNL     1      -2.409  -0.081   1.148  0.00  0.00    -0.003 A 
ATOM     21  C   UNL     1      -2.508  -1.426   1.017  0.00  0.00    +0.012 A 
ATOM     22  C   UNL     1      -2.384  -2.220   2.142  0.00  0.00    +0.008 A 
ATOM     23  C   UNL     1      -2.176  -1.629   3.344  0.00  0.00    +0.045 A 
ATOM     24  S   UNL     1      -2.143   0.101   2.904  0.00  0.00    -0.101 S 
ENDBRANCH   6  20
BRANCH  10  25
ATOM     25  O   UNL     1       2.373   3.823  -0.012  0.00  0.00    -0.507 OA
ATOM     26  H   UNL     1       2.376   4.923  -0.019  0.00  0.00    +0.292 HD
ENDBRANCH  10  25
BRANCH  15  27
ATOM     27  S   UNL     1      -4.450   2.017  -4.213  0.00  0.00    -0.089 S 
BRANCH  27  28
ATOM     28  C   UNL     1      -6.191   2.021  -4.707  0.00  0.00    +0.103 C 
BRANCH  28  29
ATOM     29  C   UNL     1      -6.317   1.486  -6.110  0.00  0.00    -0.023 C 
ATOM     30  C   UNL     1      -6.955   0.362  -6.327  0.00  0.00    +0.005 C 
ENDBRANCH  28  29
ENDBRANCH  27  28
ENDBRANCH  15  27
TORSDOF 5
