REMARK  Name = ZINC47135731
REMARK  6 active torsions:
REMARK  status: ('A' for Active; 'I' for Inactive)
REMARK    1  A    between atoms: C_1  and  C_2
REMARK    2  A    between atoms: N_5  and  S_11
REMARK    3  A    between atoms: C_7  and  C_10
REMARK    4  A    between atoms: S_11  and  C_14
REMARK    5  A    between atoms: C_17  and  N_20
REMARK    6  A    between atoms: N_20  and  C_21
REMARK                            x       y       z     vdW  Elec       q    Type
REMARK                         _______ _______ _______ _____ _____    ______ ____
ROOT
ATOM      1  C   UNL     1       2.274   2.301  -1.423  0.00  0.00    +0.106 A 
ATOM      2  C   UNL     1       1.177   2.993  -1.904  0.00  0.00    +0.030 A 
ATOM      3  C   UNL     1       1.178   4.374  -1.911  0.00  0.00    +0.025 A 
ATOM      4  C   UNL     1       2.283   5.069  -1.435  0.00  0.00    +0.030 A 
ATOM      5  C   UNL     1       3.383   4.371  -0.952  0.00  0.00    +0.025 A 
ATOM      6  C   UNL     1       3.373   2.990  -0.943  0.00  0.00    +0.030 A 
ENDROOT
BRANCH   1   7
ATOM      7  S   UNL     1       2.269   0.539  -1.415  0.00  0.00    +0.061 S 
ATOM      8  O   UNL     1       3.629   0.129  -1.415  0.00  0.00    -0.153 OA
ATOM      9  O   UNL     1       1.350   0.132  -2.420  0.00  0.00    -0.153 OA
BRANCH   7  13
ATOM     10  C   UNL     1      -0.184   2.114   1.163  0.00  0.00    +0.039 C 
ATOM     11  C   UNL     1      -0.294   0.611   1.425  0.00  0.00    +0.131 C 
ATOM     12  C   UNL     1       0.182  -0.161   0.189  0.00  0.00    +0.140 C 
ATOM     13  N   UNL     1       1.629   0.058   0.035  0.00  0.00    -0.172 NA
ATOM     14  C   UNL     1       2.491  -0.164   1.206  0.00  0.00    +0.140 C 
ATOM     15  C   UNL     1       1.902   0.608   2.393  0.00  0.00    +0.131 C 
ATOM     16  O   UNL     1       0.523   0.259   2.544  0.00  0.00    -0.371 OA
ATOM     17  C   UNL     1       2.665   0.244   3.668  0.00  0.00    +0.039 C 
ENDBRANCH   7  13
ENDBRANCH   1   7
BRANCH   4  18
ATOM     18  N   UNL     1       2.287   6.465  -1.442  0.00  0.00    -0.306 N 
ATOM     19  H   UNL     1       3.014   6.950  -1.021  0.00  0.00    +0.150 HD
BRANCH  18  20
ATOM     20  C   UNL     1       1.193   7.198  -2.083  0.00  0.00    +0.296 C 
ATOM     21  C   UNL     1       1.704   8.501  -2.644  0.00  0.00    +0.025 A 
ATOM     22  C   UNL     1       2.651   8.819  -3.588  0.00  0.00    +0.010 A 
ATOM     23  C   UNL     1       2.902  10.146  -3.895  0.00  0.00    +0.000 A 
ATOM     24  C   UNL     1       2.204  11.155  -3.254  0.00  0.00    +0.001 A 
ATOM     25  C   UNL     1       1.251  10.847  -2.304  0.00  0.00    +0.015 A 
ATOM     26  C   UNL     1       0.992   9.512  -1.991  0.00  0.00    +0.067 A 
ATOM     27  C   UNL     1       0.062   8.865  -1.048  0.00  0.00    +0.342 C 
ATOM     28  O   UNL     1      -0.710   9.453  -0.316  0.00  0.00    -0.245 OA
ATOM     29  O   UNL     1       0.192   7.529  -1.116  0.00  0.00    -0.435 OA
ENDBRANCH  18  20
ENDBRANCH   4  18
TORSDOF 4
