REMARK  Name = ZINC12313697
REMARK  11 active torsions:
REMARK  status: ('A' for Active; 'I' for Inactive)
REMARK    1  A    between atoms: C_1  and  O_2
REMARK    2  A    between atoms: O_2  and  C_3
REMARK    3  A    between atoms: C_3  and  C_5
REMARK    4  A    between atoms: C_5  and  N_6
REMARK    5  A    between atoms: C_10  and  S_29
REMARK    6  A    between atoms: N_15  and  C_16
REMARK    7  A    between atoms: C_16  and  C_18
REMARK    8  A    between atoms: C_18  and  C_19
REMARK    9  A    between atoms: C_22  and  S_25
REMARK   10  A    between atoms: S_25  and  C_28
REMARK   11  A    between atoms: S_29  and  C_32
REMARK                            x       y       z     vdW  Elec       q    Type
REMARK                         _______ _______ _______ _____ _____    ______ ____
ROOT
ATOM      1  N   UNL     1      -6.537  -0.872   1.393  0.00  0.00    -0.310 N 
ATOM      2  C   UNL     1      -5.427  -0.260   1.946  0.00  0.00    +0.058 A 
ATOM      3  C   UNL     1      -5.024   1.079   1.832  0.00  0.00    +0.029 A 
ATOM      4  C   UNL     1      -3.885   1.526   2.459  0.00  0.00    +0.029 A 
ATOM      5  C   UNL     1      -3.095   0.670   3.209  0.00  0.00    +0.089 A 
ATOM      6  C   UNL     1      -3.469  -0.656   3.337  0.00  0.00    +0.044 A 
ATOM      7  C   UNL     1      -4.612  -1.102   2.716  0.00  0.00    +0.041 A 
ATOM      8  S   UNL     1      -5.438  -2.670   2.618  0.00  0.00    -0.052 S 
ATOM      9  C   UNL     1      -6.769  -2.193   1.613  0.00  0.00    +0.167 A 
ATOM     10  N   UNL     1      -7.775  -2.940   1.166  0.00  0.00    -0.156 NA
ENDROOT
BRANCH   5  11
ATOM     11  S   UNL     1      -1.635   1.264   3.997  0.00  0.00    -0.006 S 
ATOM     12  O   UNL     1      -1.444   0.397   5.106  0.00  0.00    -0.170 OA
ATOM     13  O   UNL     1      -1.869   2.652   4.194  0.00  0.00    -0.170 OA
ATOM     14  C   UNL     1      -0.315   1.019   2.777  0.00  0.00    +0.200 C 
ENDBRANCH   5  11
BRANCH  10  15
ATOM     15  C   UNL     1      -7.840  -4.228   1.487  0.00  0.00    +0.243 C 
ATOM     16  O   UNL     1      -6.980  -4.724   2.189  0.00  0.00    -0.273 OA
BRANCH  15  17
ATOM     17  C   UNL     1      -8.979  -5.075   0.980  0.00  0.00    +0.133 C 
BRANCH  17  18
ATOM     18  C   UNL     1      -8.819  -6.486   1.483  0.00  0.00    -0.038 A 
ATOM     19  C   UNL     1      -8.112  -7.410   0.736  0.00  0.00    +0.006 A 
ATOM     20  C   UNL     1      -7.961  -8.703   1.199  0.00  0.00    +0.027 A 
ATOM     21  C   UNL     1      -8.525  -9.076   2.405  0.00  0.00    +0.088 A 
ATOM     22  C   UNL     1      -9.236  -8.153   3.150  0.00  0.00    +0.027 A 
ATOM     23  C   UNL     1      -9.383  -6.859   2.689  0.00  0.00    +0.006 A 
BRANCH  21  24
ATOM     24  S   UNL     1      -8.337 -10.726   2.994  0.00  0.00    -0.006 S 
ATOM     25  O   UNL     1      -7.135 -11.190   2.394  0.00  0.00    -0.170 OA
ATOM     26  O   UNL     1      -8.449 -10.623   4.406  0.00  0.00    -0.170 OA
ATOM     27  C   UNL     1      -9.760 -11.626   2.318  0.00  0.00    +0.200 C 
ENDBRANCH  21  24
ENDBRANCH  17  18
ENDBRANCH  15  17
ENDBRANCH  10  15
BRANCH   1  28
ATOM     28  C   UNL     1      -7.465  -0.094   0.568  0.00  0.00    +0.244 C 
BRANCH  28  29
ATOM     29  C   UNL     1      -7.892  -0.918  -0.620  0.00  0.00    +0.327 C 
ATOM     30  O   UNL     1      -7.343  -1.968  -0.855  0.00  0.00    -0.249 OA
BRANCH  29  32
ATOM     31  C   UNL     1      -9.240  -1.329  -2.542  0.00  0.00    +0.280 C 
ATOM     32  O   UNL     1      -8.881  -0.484  -1.417  0.00  0.00    -0.467 OA
ENDBRANCH  29  32
ENDBRANCH  28  29
ENDBRANCH   1  28
TORSDOF 8
