REMARK  Name = ZINC46740558
REMARK  2 active torsions:
REMARK  status: ('A' for Active; 'I' for Inactive)
REMARK    1  A    between atoms: C_13  and  C_15
REMARK    2  A    between atoms: C_15  and  C_16
REMARK                            x       y       z     vdW  Elec       q    Type
REMARK                         _______ _______ _______ _____ _____    ______ ____
ROOT
ATOM      1  C   UNL     1       2.370   1.437   0.014  0.00  0.00    +0.005 A 
ATOM      2  C   UNL     1       1.127   2.057   0.003  0.00  0.00    +0.018 A 
ATOM      3  C   UNL     1      -0.015   1.282  -0.017  0.00  0.00    +0.084 A 
ATOM      4  N   UNL     1       0.061  -0.036  -0.024  0.00  0.00    -0.350 N 
ATOM      5  C   UNL     1       1.227  -0.664  -0.014  0.00  0.00    +0.099 A 
ATOM      6  C   UNL     1       2.418   0.054   0.005  0.00  0.00    +0.042 A 
ATOM      7  N   UNL     1       1.260  -2.054  -0.022  0.00  0.00    -0.314 N 
ATOM      8  C   UNL     1       2.538  -2.770  -0.142  0.00  0.00    +0.125 C 
ATOM      9  C   UNL     1       2.671  -3.737   1.041  0.00  0.00    +0.126 C 
ATOM     10  N   UNL     1       1.430  -4.516   1.153  0.00  0.00    -0.298 N 
ATOM     11  C   UNL     1       0.152  -3.799   1.273  0.00  0.00    +0.126 C 
ATOM     12  C   UNL     1       0.020  -2.833   0.096  0.00  0.00    +0.125 C 
ATOM     13  C   UNL     1       1.462  -5.863   1.145  0.00  0.00    +0.221 C 
ATOM     14  O   UNL     1       2.522  -6.443   1.045  0.00  0.00    -0.275 OA
ATOM     15  H   UNL     1      -0.757  -0.557  -0.038  0.00  0.00    +0.166 HD
ENDROOT
BRANCH  13  16
ATOM     16  C   UNL     1       0.181  -6.649   1.261  0.00  0.00    +0.152 C 
BRANCH  16  17
ATOM     17  C   UNL     1       0.491  -8.123   1.226  0.00  0.00    +0.059 A 
ATOM     18  C   UNL     1       0.074  -8.957   2.210  0.00  0.00    +0.072 A 
ATOM     19  S   UNL     1       0.725 -10.513   1.626  0.00  0.00    -0.060 S 
ATOM     20  C   UNL     1       1.448  -9.948   0.215  0.00  0.00    +0.168 A 
ATOM     21  N   UNL     1       1.177  -8.661   0.234  0.00  0.00    -0.229 NA
ATOM     22  N   UNL     1       2.156 -10.667  -0.741  0.00  0.00    -0.233 N 
ATOM     23  C   UNL     1       2.411 -12.115  -0.702  0.00  0.00    +0.136 C 
ATOM     24  C   UNL     1       3.225 -12.381  -1.983  0.00  0.00    +0.125 C 
ATOM     25  N   UNL     1       3.342 -11.055  -2.608  0.00  0.00    -0.297 N 
ATOM     26  C   UNL     1       2.709 -10.152  -1.847  0.00  0.00    +0.308 C 
ATOM     27  O   UNL     1       2.645  -8.972  -2.133  0.00  0.00    -0.252 OA
ATOM     28  H   UNL     1       3.802 -10.865  -3.441  0.00  0.00    +0.150 HD
ENDBRANCH  16  17
ENDBRANCH  13  16
TORSDOF 2
