REMARK  Name = ZINC15672465
REMARK  7 active torsions:
REMARK  status: ('A' for Active; 'I' for Inactive)
REMARK    1  A    between atoms: C_1  and  C_2
REMARK    2  A    between atoms: C_5  and  N_8
REMARK    3  A    between atoms: C_9  and  C_11
REMARK    4  A    between atoms: C_11  and  C_32
REMARK    5  A    between atoms: N_23  and  C_24
REMARK    6  A    between atoms: C_24  and  C_25
REMARK    7  A    between atoms: C_25  and  N_71
REMARK                            x       y       z     vdW  Elec       q    Type
REMARK                         _______ _______ _______ _____ _____    ______ ____
ROOT
ATOM      1  C   UNL     1       1.780  -0.843   4.271  0.00  0.00    +0.128 C 
ATOM      2  C   UNL     1       2.761  -1.132   5.407  0.00  0.00    +0.157 C 
ATOM      3  N   UNL     1       2.125  -2.033   6.371  0.00  0.00    -0.333 N 
ATOM      4  C   UNL     1       2.714  -2.965   7.207  0.00  0.00    +0.057 A 
ATOM      5  C   UNL     1       3.992  -3.459   7.506  0.00  0.00    +0.034 A 
ATOM      6  C   UNL     1       4.147  -4.418   8.442  0.00  0.00    +0.048 A 
ATOM      7  S   UNL     1       2.472  -4.709   8.985  0.00  0.00    -0.095 S 
ATOM      8  C   UNL     1       1.658  -3.535   7.934  0.00  0.00    +0.038 A 
ATOM      9  C   UNL     1       0.456  -2.961   7.536  0.00  0.00    +0.048 A 
ATOM     10  C   UNL     1       0.749  -2.044   6.571  0.00  0.00    +0.106 A 
ATOM     11  C   UNL     1      -0.128  -1.163   5.792  0.00  0.00    +0.264 C 
ATOM     12  O   UNL     1      -1.307  -1.028   6.063  0.00  0.00    -0.268 OA
ATOM     13  N   UNL     1       0.444  -0.511   4.752  0.00  0.00    -0.282 N 
ATOM     14  C   UNL     1       1.689  -2.078   3.373  0.00  0.00    +0.043 C 
ENDROOT
BRANCH   1  16
ATOM     15  N   UNL     1       2.208   1.570   3.930  0.00  0.00    -0.311 N 
ATOM     16  C   UNL     1       2.305   0.312   3.456  0.00  0.00    +0.238 C 
ATOM     17  O   UNL     1       2.814   0.109   2.374  0.00  0.00    -0.273 OA
ATOM     18  H   UNL     1       1.870   1.726   4.826  0.00  0.00    +0.149 HD
BRANCH  15  23
ATOM     19  C   UNL     1       4.296   6.511   1.918  0.00  0.00    +0.007 C 
ATOM     20  C   UNL     1       3.873   5.329   2.793  0.00  0.00    -0.014 C 
ATOM     21  C   UNL     1       2.354   5.158   2.718  0.00  0.00    +0.005 C 
ATOM     22  C   UNL     1       1.931   3.976   3.592  0.00  0.00    +0.022 C 
ATOM     23  C   UNL     1       2.614   2.701   3.093  0.00  0.00    +0.073 C 
ATOM     24  C   UNL     1       4.132   2.873   3.167  0.00  0.00    +0.022 C 
ATOM     25  C   UNL     1       4.556   4.054   2.293  0.00  0.00    +0.005 C 
ENDBRANCH  15  23
ENDBRANCH   1  16
BRANCH  13  26
ATOM     26  C   UNL     1      -0.299   0.567   4.095  0.00  0.00    +0.091 C 
BRANCH  26  27
ATOM     27  C   UNL     1      -1.236  -0.029   3.041  0.00  0.00    -0.060 C 
BRANCH  27  34
ATOM     28  C   UNL     1      -1.094   1.902   1.574  0.00  0.00    -0.079 C 
ATOM     29  C   UNL     1      -0.873   1.354   0.191  0.00  0.00    -0.019 C 
ATOM     30  C   UNL     1      -1.901   1.994  -0.765  0.00  0.00    -0.002 C 
ATOM     31  C   UNL     1      -3.218   1.379  -0.649  0.00  0.00    -0.002 C 
ATOM     32  C   UNL     1      -3.811   1.532   0.767  0.00  0.00    -0.019 C 
ATOM     33  C   UNL     1      -3.165   0.514   1.667  0.00  0.00    -0.079 C 
ATOM     34  N   UNL     1      -2.003   1.072   2.440  0.00  0.00    +0.381 N 
ATOM     35  H   UNL     1      -2.370   1.669   3.190  0.00  0.00    -0.082 HD
ENDBRANCH  27  34
ENDBRANCH  26  27
ENDBRANCH  13  26
TORSDOF 5
