REMARK  Name = ZINC16319851
REMARK  6 active torsions:
REMARK  status: ('A' for Active; 'I' for Inactive)
REMARK    1  A    between atoms: C_1  and  C_2
REMARK    2  A    between atoms: C_3  and  C_8
REMARK    3  A    between atoms: C_5  and  C_7
REMARK    4  A    between atoms: C_8  and  C_10
REMARK    5  A    between atoms: C_11  and  O_32
REMARK    6  A    between atoms: C_15  and  C_17
REMARK                            x       y       z     vdW  Elec       q    Type
REMARK                         _______ _______ _______ _____ _____    ______ ____
ROOT
ATOM      1  C   UNL     1       2.493  -2.152  -1.398  0.00  0.00    +0.073 C 
ATOM      2  C   UNL     1       1.927  -3.370  -1.227  0.00  0.00    +0.189 C 
ATOM      3  C   UNL     1       1.606  -3.562   0.200  0.00  0.00    +0.288 C 
ATOM      4  O   UNL     1       1.091  -4.556   0.671  0.00  0.00    -0.266 OA
ATOM      5  N   UNL     1       1.969  -2.474   0.903  0.00  0.00    -0.231 N 
ATOM      6  C   UNL     1       2.551  -1.505  -0.033  0.00  0.00    +0.158 C 
ATOM      7  C   UNL     1       1.820  -2.299   2.268  0.00  0.00    +0.169 A 
ATOM      8  N   UNL     1       2.158  -1.268   3.008  0.00  0.00    -0.224 NA
ATOM      9  C   UNL     1       1.947  -1.231   4.341  0.00  0.00    +0.080 A 
ATOM     10  C   UNL     1       2.256  -0.189   5.246  0.00  0.00    +0.030 A 
ATOM     11  C   UNL     1       1.978  -0.315   6.582  0.00  0.00    +0.022 A 
ATOM     12  C   UNL     1       1.388  -1.463   7.095  0.00  0.00    +0.042 A 
ATOM     13  C   UNL     1       1.073  -2.503   6.238  0.00  0.00    +0.037 A 
ATOM     14  C   UNL     1       1.347  -2.384   4.898  0.00  0.00    +0.042 A 
ATOM     15  S   UNL     1       1.126  -3.422   3.473  0.00  0.00    -0.052 S 
ATOM     16 CL   UNL     1       1.050  -1.591   8.792  0.00  0.00    -0.084 Cl
ENDROOT
BRANCH   6  17
ATOM     17  C   UNL     1       1.745  -0.232  -0.029  0.00  0.00    +0.015 A 
ATOM     18  C   UNL     1       2.179   1.053  -0.024  0.00  0.00    +0.013 A 
ATOM     19  C   UNL     1       1.248   2.075  -0.021  0.00  0.00    +0.008 A 
ATOM     20  C   UNL     1      -0.071   1.762  -0.022  0.00  0.00    +0.045 A 
ATOM     21  S   UNL     1      -0.028  -0.022  -0.028  0.00  0.00    -0.099 S 
ENDBRANCH   6  17
BRANCH   1  22
ATOM     22  C   UNL     1       2.959  -1.570  -2.662  0.00  0.00    +0.203 C 
ATOM     23  O   UNL     1       2.159  -1.304  -3.542  0.00  0.00    -0.286 OA
BRANCH  22  26
ATOM     24  C   UNL     1       4.263  -0.156  -5.109  0.00  0.00    +0.067 C 
ATOM     25  C   UNL     1       5.035  -0.687  -3.928  0.00  0.00    +0.057 A 
ATOM     26  C   UNL     1       4.388  -1.309  -2.867  0.00  0.00    +0.082 A 
ATOM     27  S   UNL     1       5.782  -1.695  -1.818  0.00  0.00    -0.069 S 
ATOM     28  C   UNL     1       7.023  -1.038  -2.840  0.00  0.00    +0.076 A 
ATOM     29  N   UNL     1       6.336  -0.579  -3.866  0.00  0.00    -0.249 NA
ATOM     30  C   UNL     1       8.511  -0.999  -2.608  0.00  0.00    +0.073 C 
ENDBRANCH  22  26
ENDBRANCH   1  22
BRANCH   2  31
ATOM     31  O   UNL     1       1.694  -4.270  -2.211  0.00  0.00    -0.502 OA
ATOM     32  H   UNL     1       1.269  -5.087  -1.821  0.00  0.00    +0.292 HD
ENDBRANCH   2  31
TORSDOF 4
