REMARK  Name = ZINC06382313
REMARK  10 active torsions:
REMARK  status: ('A' for Active; 'I' for Inactive)
REMARK    1  A    between atoms: C_1  and  C_2
REMARK    2  A    between atoms: C_2  and  N_69
REMARK    3  A    between atoms: C_3  and  C_4
REMARK    4  A    between atoms: C_3  and  N_69
REMARK    5  A    between atoms: C_5  and  C_6
REMARK    6  A    between atoms: C_5  and  N_69
REMARK    7  A    between atoms: C_6  and  O_7
REMARK    8  A    between atoms: O_7  and  C_8
REMARK    9  A    between atoms: C_12  and  C_31
REMARK   10  A    between atoms: C_17  and  C_30
REMARK                            x       y       z     vdW  Elec       q    Type
REMARK                         _______ _______ _______ _____ _____    ______ ____
ROOT
ATOM      1  C   UNL     1      -2.779   0.140   2.326  0.00  0.00    +0.122 C 
ATOM      2  C   UNL     1      -4.183  -0.092   1.770  0.00  0.00    +0.033 C 
ATOM      3  C   UNL     1      -5.238   0.305   2.800  0.00  0.00    +0.014 C 
ATOM      4  C   UNL     1      -5.082  -0.513   4.083  0.00  0.00    -0.008 C 
ATOM      5  C   UNL     1      -6.103  -0.091   5.117  0.00  0.00    +0.003 C 
ATOM      6  C   UNL     1      -6.547   1.355   4.952  0.00  0.00    +0.005 C 
ATOM      7  C   UNL     1      -7.718   1.671   5.899  0.00  0.00    +0.015 C 
ATOM      8  C   UNL     1      -7.272   1.433   7.321  0.00  0.00    +0.029 C 
ATOM      9  C   UNL     1      -6.751  -0.006   7.486  0.00  0.00    +0.006 C 
ATOM     10  C   UNL     1      -5.647  -0.388   6.549  0.00  0.00    +0.001 C 
ATOM     11  C   UNL     1      -4.306   0.267   6.834  0.00  0.00    +0.031 C 
ATOM     12  C   UNL     1      -3.313  -0.116   5.768  0.00  0.00    -0.027 C 
ATOM     13  C   UNL     1      -3.662  -0.432   4.558  0.00  0.00    -0.065 C 
ATOM     14  C   UNL     1      -2.561  -0.745   3.558  0.00  0.00    +0.062 C 
ATOM     15  C   UNL     1      -6.501  -0.061   8.998  0.00  0.00    +0.012 C 
ATOM     16  C   UNL     1      -7.751   0.685   9.551  0.00  0.00    +0.075 C 
ATOM     17  C   UNL     1      -8.367   1.437   8.373  0.00  0.00    +0.139 C 
ATOM     18  O   UNL     1      -9.458   1.924   8.281  0.00  0.00    -0.297 OA
ATOM     19  C   UNL     1      -6.271   2.505   7.747  0.00  0.00    +0.019 C 
ATOM     20  C   UNL     1      -5.376  -1.982   3.741  0.00  0.00    +0.016 C 
ENDROOT
BRANCH   1  21
ATOM     21  O   UNL     1      -1.809  -0.185   1.328  0.00  0.00    -0.378 OA
BRANCH  21  22
ATOM     22  C   UNL     1      -0.603   0.575   1.420  0.00  0.00    +0.142 C 
BRANCH  22  23
ATOM     23  C   UNL     1       0.308   0.231   0.239  0.00  0.00    -0.050 C 
BRANCH  23  24
ATOM     24  N   UNL     1      -0.368   0.632  -1.012  0.00  0.00    +0.381 N 
ATOM     25  H   UNL     1      -1.361   0.378  -0.952  0.00  0.00    -0.082 HD
BRANCH  24  27
ATOM     26  C   UNL     1      -1.147   2.510  -2.373  0.00  0.00    -0.017 C 
ATOM     27  C   UNL     1      -0.257   2.094  -1.200  0.00  0.00    -0.082 C 
ENDBRANCH  24  27
BRANCH  24  28
ATOM     28  C   UNL     1       0.238  -0.073  -2.162  0.00  0.00    -0.082 C 
ATOM     29  C   UNL     1      -0.281  -1.512  -2.184  0.00  0.00    -0.017 C 
ENDBRANCH  24  28
ENDBRANCH  23  24
ENDBRANCH  22  23
ENDBRANCH  21  22
ENDBRANCH   1  21
TORSDOF 6
