REMARK  Name = ZINC03259713
REMARK  7 active torsions:
REMARK  status: ('A' for Active; 'I' for Inactive)
REMARK    1  A    between atoms: C_1  and  C_2
REMARK    2  A    between atoms: C_2  and  C_3
REMARK    3  A    between atoms: C_3  and  C_4
REMARK    4  A    between atoms: C_4  and  N_5
REMARK    5  A    between atoms: N_7  and  N_18
REMARK    6  A    between atoms: C_8  and  C_11
REMARK    7  A    between atoms: N_18  and  C_19
REMARK                            x       y       z     vdW  Elec       q    Type
REMARK                         _______ _______ _______ _____ _____    ______ ____
ROOT
ATOM      1  N   UNL     1       0.374   1.392  -0.097  0.00  0.00    -0.260 NA
ATOM      2  C   UNL     1       0.192   0.095  -0.069  0.00  0.00    +0.186 A 
ATOM      3  N   UNL     1      -0.985  -0.620  -0.105  0.00  0.00    -0.237 N 
ATOM      4  C   UNL     1      -0.921  -1.988  -0.064  0.00  0.00    +0.078 A 
ATOM      5  C   UNL     1       0.279  -2.598   0.010  0.00  0.00    +0.077 A 
ATOM      6  S   UNL     1       1.405  -1.213   0.018  0.00  0.00    -0.056 S 
ENDROOT
BRANCH   4   7
ATOM      7  C   UNL     1      -2.162  -2.791  -0.100  0.00  0.00    +0.001 A 
ATOM      8  C   UNL     1      -3.332  -2.300   0.483  0.00  0.00    +0.011 A 
ATOM      9  C   UNL     1      -4.488  -3.051   0.441  0.00  0.00    +0.020 A 
ATOM     10  C   UNL     1      -4.487  -4.295  -0.167  0.00  0.00    +0.041 A 
ATOM     11  C   UNL     1      -3.329  -4.790  -0.742  0.00  0.00    +0.020 A 
ATOM     12  C   UNL     1      -2.168  -4.046  -0.712  0.00  0.00    +0.011 A 
ATOM     13 CL   UNL     1      -5.944  -5.238  -0.209  0.00  0.00    -0.084 Cl
ENDBRANCH   4   7
BRANCH   3  14
ATOM     14  N   UNL     1      -2.220   0.038  -0.181  0.00  0.00    -0.251 N 
ATOM     15  H   UNL     1      -2.962  -0.272  -0.931  0.00  0.00    +0.173 HD
BRANCH  14  16
ATOM     16  C   UNL     1      -2.507   1.086   0.694  0.00  0.00    +0.050 C 
ATOM     17  C   UNL     1      -1.668   1.385   1.686  0.00  0.00    -0.001 C 
ATOM     18  C   UNL     1      -1.966   2.508   2.639  0.00  0.00    +0.034 C 
ATOM     19  C   UNL     1      -2.669   3.659   1.921  0.00  0.00    +0.040 C 
ATOM     20  C   UNL     1      -3.838   3.132   1.132  0.00  0.00    -0.038 A 
ATOM     21  C   UNL     1      -3.751   1.874   0.534  0.00  0.00    +0.000 A 
ATOM     22  C   UNL     1      -4.824   1.377  -0.200  0.00  0.00    +0.010 A 
ATOM     23  C   UNL     1      -5.972   2.134  -0.331  0.00  0.00    +0.001 A 
ATOM     24  C   UNL     1      -6.054   3.380   0.265  0.00  0.00    +0.000 A 
ATOM     25  C   UNL     1      -4.989   3.878   0.995  0.00  0.00    +0.004 A 
ENDBRANCH  14  16
ENDBRANCH   3  14
BRANCH   1  26
ATOM     26  C   UNL     1       1.721   1.946   0.065  0.00  0.00    +0.144 C 
BRANCH  26  27
ATOM     27  C   UNL     1       2.092   2.755  -1.180  0.00  0.00    +0.023 C 
BRANCH  27  29
ATOM     28  C   UNL     1       3.870   4.144  -2.255  0.00  0.00    +0.004 C 
ATOM     29  C   UNL     1       3.498   3.334  -1.010  0.00  0.00    -0.002 C 
ENDBRANCH  27  29
ENDBRANCH  26  27
ENDBRANCH   1  26
TORSDOF 6
