REMARK  Name = ZINC63646566
REMARK  11 active torsions:
REMARK  status: ('A' for Active; 'I' for Inactive)
REMARK    1  A    between atoms: C_1  and  C_2
REMARK    2  A    between atoms: C_2  and  O_3
REMARK    3  A    between atoms: O_3  and  C_4
REMARK    4  A    between atoms: C_4  and  C_6
REMARK    5  A    between atoms: C_7  and  C_33
REMARK    6  A    between atoms: C_9  and  C_32
REMARK    7  A    between atoms: C_10  and  S_12
REMARK    8  A    between atoms: S_12  and  N_15
REMARK    9  A    between atoms: N_15  and  C_16
REMARK   10  A    between atoms: C_16  and  C_17
REMARK   11  A    between atoms: N_22  and  C_25
REMARK                            x       y       z     vdW  Elec       q    Type
REMARK                         _______ _______ _______ _____ _____    ______ ____
ROOT
ATOM      1  N   UNL     1       1.622   0.202  -5.810  0.00  0.00    -0.185 NA
ATOM      2  H   UNL     1       1.812   1.150  -5.887  0.00  0.00    +0.148 HD
ENDROOT
BRANCH   1   3
ATOM      3  S   UNL     1       0.973  -0.401  -4.411  0.00  0.00    +0.042 S 
ATOM      4  O   UNL     1      -0.128  -1.194  -4.834  0.00  0.00    -0.157 OA
ATOM      5  O   UNL     1       0.769   0.738  -3.585  0.00  0.00    -0.157 OA
BRANCH   3  10
ATOM      6  C   UNL     1       2.580  -2.617  -4.639  0.00  0.00    +0.088 C 
ATOM      7  C   UNL     1       3.878  -2.448  -4.984  0.00  0.00    +0.050 C 
ATOM      8  N   UNL     1       4.415  -1.366  -4.407  0.00  0.00    -0.258 NA
ATOM      9  C   UNL     1       3.594  -0.716  -3.649  0.00  0.00    +0.046 C 
ATOM     10  C   UNL     1       2.272  -1.456  -3.711  0.00  0.00    +0.230 C 
ATOM     11  C   UNL     1       3.890   0.536  -2.865  0.00  0.00    +0.063 C 
ATOM     12  C   UNL     1       4.630  -3.370  -5.910  0.00  0.00    +0.066 C 
BRANCH   6  13
ATOM     13  C   UNL     1       1.701  -3.647  -5.057  0.00  0.00    +0.339 C 
ATOM     14  O   UNL     1       2.097  -4.516  -5.811  0.00  0.00    -0.245 OA
BRANCH  13  15
ATOM     15  O   UNL     1       0.424  -3.663  -4.620  0.00  0.00    -0.462 OA
BRANCH  15  17
ATOM     16  C   UNL     1      -1.807  -4.582  -4.484  0.00  0.00    +0.048 C 
ATOM     17  C   UNL     1      -0.406  -4.731  -5.081  0.00  0.00    +0.229 C 
ENDBRANCH  15  17
ENDBRANCH  13  15
ENDBRANCH   6  13
ENDBRANCH   3  10
ENDBRANCH   1   3
BRANCH   1  18
ATOM     18  C   UNL     1       1.909  -0.697  -6.931  0.00  0.00    +0.201 C 
BRANCH  18  19
ATOM     19  C   UNL     1       2.154   0.116  -8.176  0.00  0.00    +0.231 C 
ATOM     20  O   UNL     1       2.094   1.326  -8.132  0.00  0.00    -0.274 OA
ATOM     21  N   UNL     1       2.439  -0.503  -9.339  0.00  0.00    -0.297 N 
ATOM     22  C   UNL     1       2.509  -1.969  -9.409  0.00  0.00    +0.126 C 
ATOM     23  C   UNL     1       1.549  -2.454 -10.502  0.00  0.00    +0.124 C 
ATOM     24  N   UNL     1       1.795  -1.675 -11.723  0.00  0.00    -0.327 N 
ATOM     25  C   UNL     1       1.725  -0.208 -11.653  0.00  0.00    +0.124 C 
ATOM     26  C   UNL     1       2.680   0.277 -10.561  0.00  0.00    +0.126 C 
BRANCH  24  27
ATOM     27  C   UNL     1       2.091  -2.316 -12.929  0.00  0.00    +0.030 A 
ATOM     28  C   UNL     1       2.436  -1.569 -14.048  0.00  0.00    +0.026 A 
ATOM     29  C   UNL     1       2.728  -2.205 -15.239  0.00  0.00    +0.040 A 
ATOM     30  C   UNL     1       2.678  -3.587 -15.317  0.00  0.00    +0.124 A 
ATOM     31  C   UNL     1       2.335  -4.334 -14.203  0.00  0.00    +0.040 A 
ATOM     32  C   UNL     1       2.046  -3.702 -13.009  0.00  0.00    +0.026 A 
ATOM     33  F   UNL     1       2.964  -4.207 -16.483  0.00  0.00    -0.205 F 
ENDBRANCH  24  27
ENDBRANCH  18  19
ENDBRANCH   1  18
TORSDOF 8
