REMARK  Name = ZINC15014491
REMARK  2 active torsions:
REMARK  status: ('A' for Active; 'I' for Inactive)
REMARK    1  A    between atoms: C_8  and  C_10
REMARK    2  A    between atoms: C_14  and  N_15
REMARK                            x       y       z     vdW  Elec       q    Type
REMARK                         _______ _______ _______ _____ _____    ______ ____
ROOT
ATOM      1  C   UNL     1      -1.272   5.178  -0.020  0.00  0.00    +0.068 A 
ATOM      2  C   UNL     1      -1.434   5.703  -1.367  0.00  0.00    -0.023 A 
ATOM      3  C   UNL     1      -1.460   4.775  -2.346  0.00  0.00    -0.005 A 
ATOM      4  S   UNL     1      -1.274   3.226  -1.509  0.00  0.00    -0.078 S 
ATOM      5  C   UNL     1      -1.163   3.801   0.122  0.00  0.00    +0.076 A 
ATOM      6  C   UNL     1      -1.614   5.017  -3.816  0.00  0.00    +0.043 C 
ATOM      7  C   UNL     1      -2.115   6.454  -4.020  0.00  0.00    +0.005 C 
ATOM      8  C   UNL     1      -1.262   7.401  -3.170  0.00  0.00    +0.005 C 
ATOM      9  C   UNL     1      -1.566   7.187  -1.687  0.00  0.00    +0.037 C 
ENDROOT
BRANCH   1  17
ATOM     10  C   UNL     1       2.509   5.376   2.429  0.00  0.00    +0.002 C 
ATOM     11  C   UNL     1       1.552   5.681   3.577  0.00  0.00    +0.002 C 
ATOM     12  C   UNL     1       1.238   7.157   3.587  0.00  0.00    +0.019 C 
ATOM     13  C   UNL     1      -0.026   7.434   2.752  0.00  0.00    +0.108 C 
ATOM     14  N   UNL     1      -0.061   6.633   1.513  0.00  0.00    -0.297 N 
ATOM     15  C   UNL     1       1.105   6.426   0.684  0.00  0.00    +0.108 C 
ATOM     16  C   UNL     1       1.849   5.151   1.133  0.00  0.00    +0.019 C 
ATOM     17  C   UNL     1      -1.227   6.068   1.142  0.00  0.00    +0.249 C 
ATOM     18  O   UNL     1      -2.242   6.297   1.774  0.00  0.00    -0.270 OA
ENDBRANCH   1  17
BRANCH   5  19
ATOM     19  N   UNL     1      -1.004   3.067   1.282  0.00  0.00    -0.352 N 
ATOM     20  H   UNL     1      -0.940   2.100   1.240  0.00  0.00    +0.143 HD
ATOM     21  H   UNL     1      -0.955   3.519   2.139  0.00  0.00    +0.143 HD
ENDBRANCH   5  19
TORSDOF 2
