REMARK  Name = ZINC29656447
REMARK  10 active torsions:
REMARK  status: ('A' for Active; 'I' for Inactive)
REMARK    1  A    between atoms: C_1  and  C_2
REMARK    2  A    between atoms: C_4  and  C_10
REMARK    3  A    between atoms: C_7  and  O_8
REMARK    4  A    between atoms: O_8  and  C_9
REMARK    5  A    between atoms: C_10  and  N_11
REMARK    6  A    between atoms: N_11  and  C_12
REMARK    7  A    between atoms: C_12  and  C_14
REMARK    8  A    between atoms: C_12  and  C_24
REMARK    9  A    between atoms: C_24  and  C_25
REMARK   10  A    between atoms: C_24  and  C_26
REMARK                            x       y       z     vdW  Elec       q    Type
REMARK                         _______ _______ _______ _____ _____    ______ ____
ROOT
ATOM      1  C   UNL     1       1.425  -3.932  -4.405  0.00  0.00    -0.038 C 
ENDROOT
BRANCH   1   2
ATOM      2  C   UNL     1       2.810  -4.409  -4.759  0.00  0.00    -0.057 A 
ATOM      3  C   UNL     1       3.915  -3.699  -4.328  0.00  0.00    +0.006 A 
ATOM      4  C   UNL     1       5.187  -4.132  -4.651  0.00  0.00    +0.049 A 
ATOM      5  C   UNL     1       5.358  -5.282  -5.409  0.00  0.00    +0.162 A 
ATOM      6  C   UNL     1       4.247  -5.997  -5.840  0.00  0.00    +0.162 A 
ATOM      7  C   UNL     1       2.973  -5.558  -5.508  0.00  0.00    +0.051 A 
ATOM      8  O   UNL     1       4.392  -7.131  -6.578  0.00  0.00    -0.485 OA
ATOM      9  C   UNL     1       5.666  -7.336  -7.199  0.00  0.00    +0.270 C 
ATOM     10  C   UNL     1       6.759  -7.050  -6.161  0.00  0.00    +0.270 C 
ATOM     11  O   UNL     1       6.616  -5.694  -5.723  0.00  0.00    -0.485 OA
ENDBRANCH   1   2
BRANCH   1  12
ATOM     12  N   UNL     1       1.416  -3.435  -3.023  0.00  0.00    +0.386 N 
ATOM     13  H   UNL     1       0.514  -3.033  -2.816  0.00  0.00    -0.085 HD
ATOM     14  H   UNL     1       2.132  -2.733  -2.913  0.00  0.00    -0.085 HD
BRANCH  12  15
ATOM     15  C   UNL     1       1.678  -4.549  -2.101  0.00  0.00    -0.046 C 
BRANCH  15  19
ATOM     16  C   UNL     1      -0.735  -3.500   2.155  0.00  0.00    +0.047 C 
ATOM     17  C   UNL     1       0.540  -3.534   1.352  0.00  0.00    -0.009 A 
ATOM     18  C   UNL     1       0.526  -4.003   0.053  0.00  0.00    +0.008 A 
ATOM     19  C   UNL     1       1.695  -4.035  -0.684  0.00  0.00    -0.064 A 
ATOM     20  C   UNL     1       2.881  -3.596  -0.124  0.00  0.00    +0.005 A 
ATOM     21  C   UNL     1       2.900  -3.126   1.174  0.00  0.00    +0.046 A 
ATOM     22  C   UNL     1       1.727  -3.088   1.915  0.00  0.00    +0.123 A 
BRANCH  22  23
ATOM     23  O   UNL     1       1.741  -2.619   3.190  0.00  0.00    -0.495 OA
ATOM     24  C   UNL     1       2.999  -2.177   3.704  0.00  0.00    +0.277 C 
ENDBRANCH  22  23
ENDBRANCH  15  19
ENDBRANCH  12  15
ENDBRANCH   1  12
BRANCH   1  25
ATOM     25  C   UNL     1       1.016  -2.804  -5.355  0.00  0.00    -0.027 C 
ATOM     26  C   UNL     1       1.073  -3.306  -6.799  0.00  0.00    +0.006 C 
ATOM     27  C   UNL     1      -0.409  -2.353  -5.027  0.00  0.00    +0.006 C 
ENDBRANCH   1  25
TORSDOF 6
