REMARK  Name = ZINC63362359
REMARK  8 active torsions:
REMARK  status: ('A' for Active; 'I' for Inactive)
REMARK    1  A    between atoms: C_1  and  C_2
REMARK    2  A    between atoms: C_2  and  C_3
REMARK    3  A    between atoms: C_3  and  C_4
REMARK    4  A    between atoms: C_4  and  C_5
REMARK    5  A    between atoms: C_5  and  N_6
REMARK    6  A    between atoms: C_7  and  C_9
REMARK    7  A    between atoms: C_13  and  N_15
REMARK    8  A    between atoms: C_18  and  C_34
REMARK                            x       y       z     vdW  Elec       q    Type
REMARK                         _______ _______ _______ _____ _____    ______ ____
ROOT
ATOM      1  N   UNL     1      -6.337  -9.052   0.001  0.00  0.00    -0.192 N 
ATOM      2  C   UNL     1      -6.411 -10.395  -0.098  0.00  0.00    +0.253 C 
ATOM      3  O   UNL     1      -5.489 -11.171  -0.229  0.00  0.00    -0.272 OA
ATOM      4  C   UNL     1      -7.884 -10.733  -0.011  0.00  0.00    +0.137 C 
ATOM      5  C   UNL     1      -8.346 -11.412  -1.306  0.00  0.00    +0.139 C 
ATOM      6  C   UNL     1      -9.856 -11.221  -1.378  0.00  0.00    -0.034 C 
ATOM      7  C   UNL     1     -10.383 -12.439  -1.460  0.00  0.00    -0.001 A 
ATOM      8  C   UNL     1     -11.775 -12.892  -1.613  0.00  0.00    +0.010 A 
ATOM      9  C   UNL     1     -11.965 -14.238  -1.653  0.00  0.00    +0.001 A 
ATOM     10  C   UNL     1     -10.923 -15.165  -1.557  0.00  0.00    +0.002 A 
ATOM     11  C   UNL     1      -9.614 -14.836  -1.419  0.00  0.00    +0.026 A 
ATOM     12  C   UNL     1      -9.287 -13.450  -1.368  0.00  0.00    +0.043 A 
ATOM     13  N   UNL     1      -8.120 -12.859  -1.260  0.00  0.00    -0.375 N 
ATOM     14  C   UNL     1     -10.525  -9.870  -1.294  0.00  0.00    +0.052 C 
ATOM     15  C   UNL     1      -9.979  -9.170  -0.033  0.00  0.00    +0.115 C 
ATOM     16  N   UNL     1      -8.533  -9.403   0.031  0.00  0.00    -0.268 N 
ATOM     17  C   UNL     1      -7.551  -8.496   0.107  0.00  0.00    +0.316 C 
ATOM     18  O   UNL     1      -7.739  -7.304   0.252  0.00  0.00    -0.252 OA
ATOM     19  C   UNL     1      -8.206 -11.568   1.229  0.00  0.00    +0.044 C 
ATOM     20  H   UNL     1      -7.260 -13.295  -1.163  0.00  0.00    +0.160 HD
ENDROOT
BRANCH   1  25
ATOM     21  C   UNL     1      -2.731  -8.273   0.013  0.00  0.00    +0.038 A 
ATOM     22  C   UNL     1      -2.769  -6.877  -0.002  0.00  0.00    +0.013 A 
ATOM     23  C   UNL     1      -3.982  -6.220  -0.017  0.00  0.00    +0.003 A 
ATOM     24  C   UNL     1      -5.163  -6.939  -0.015  0.00  0.00    +0.024 A 
ATOM     25  C   UNL     1      -5.136  -8.328   0.000  0.00  0.00    +0.046 A 
ATOM     26  C   UNL     1      -3.923  -8.998   0.008  0.00  0.00    +0.037 A 
BRANCH  21  28
ATOM     27  N   UNL     1      -0.283  -8.277   0.034  0.00  0.00    -0.311 N 
ATOM     28  C   UNL     1      -1.433  -8.980   0.029  0.00  0.00    +0.244 C 
ATOM     29  O   UNL     1      -1.403 -10.195   0.037  0.00  0.00    -0.270 OA
ATOM     30  H   UNL     1      -0.307  -7.307   0.027  0.00  0.00    +0.149 HD
BRANCH  27  31
ATOM     31  C   UNL     1       1.004  -8.978   0.049  0.00  0.00    +0.104 C 
BRANCH  31  32
ATOM     32  C   UNL     1       2.142  -7.955   0.051  0.00  0.00    +0.019 C 
BRANCH  32  33
ATOM     33  C   UNL     1       3.485  -8.687   0.067  0.00  0.00    +0.001 C 
BRANCH  33  35
ATOM     34  C   UNL     1       5.966  -8.395   0.086  0.00  0.00    +0.004 C 
ATOM     35  C   UNL     1       4.623  -7.664   0.070  0.00  0.00    -0.003 C 
ENDBRANCH  33  35
ENDBRANCH  32  33
ENDBRANCH  31  32
ENDBRANCH  27  31
ENDBRANCH  21  28
ENDBRANCH   1  25
TORSDOF 6
