REMARK  Name = ZINC35938488
REMARK  10 active torsions:
REMARK  status: ('A' for Active; 'I' for Inactive)
REMARK    1  A    between atoms: C_1  and  C_2
REMARK    2  A    between atoms: C_2  and  C_3
REMARK    3  A    between atoms: C_3  and  C_4
REMARK    4  A    between atoms: C_4  and  C_5
REMARK    5  A    between atoms: C_12  and  C_14
REMARK    6  A    between atoms: C_15  and  C_17
REMARK    7  A    between atoms: C_17  and  N_18
REMARK    8  A    between atoms: C_26  and  C_28
REMARK    9  A    between atoms: C_31  and  O_34
REMARK   10  A    between atoms: O_34  and  C_35
REMARK                            x       y       z     vdW  Elec       q    Type
REMARK                         _______ _______ _______ _____ _____    ______ ____
ROOT
ATOM      1  N   UNL     1       1.099 -10.057   3.356  0.00  0.00    +0.393 N 
ATOM      2  C   UNL     1       0.675 -10.377   4.725  0.00  0.00    -0.072 C 
ATOM      3  C   UNL     1       1.419 -11.640   5.194  0.00  0.00    +0.024 C 
ATOM      4  C   UNL     1       1.318 -12.653   4.101  0.00  0.00    -0.010 A 
ATOM      5  C   UNL     1       0.917 -12.423   2.818  0.00  0.00    -0.047 A 
ATOM      6  C   UNL     1       0.895 -13.525   1.967  0.00  0.00    +0.010 A 
ATOM      7  C   UNL     1       1.263 -14.743   2.427  0.00  0.00    +0.045 A 
ATOM      8  S   UNL     1       1.671 -14.387   4.130  0.00  0.00    -0.101 S 
ATOM      9  C   UNL     1       0.528 -11.010   2.396  0.00  0.00    -0.005 C 
ATOM     10  H   UNL     1       2.106 -10.096   3.303  0.00  0.00    -0.080 HD
ENDROOT
BRANCH   9  11
ATOM     11  C   UNL     1       1.070 -10.726   1.019  0.00  0.00    -0.056 A 
ATOM     12  C   UNL     1       2.401 -10.391   0.857  0.00  0.00    +0.006 A 
ATOM     13  C   UNL     1       2.901 -10.131  -0.405  0.00  0.00    +0.046 A 
ATOM     14  C   UNL     1       2.065 -10.206  -1.510  0.00  0.00    +0.120 A 
ATOM     15  C   UNL     1       0.729 -10.543  -1.344  0.00  0.00    +0.046 A 
ATOM     16  C   UNL     1       0.236 -10.808  -0.081  0.00  0.00    +0.006 A 
BRANCH  14  17
ATOM     17  O   UNL     1       2.553  -9.950  -2.752  0.00  0.00    -0.495 OA
ATOM     18  C   UNL     1       1.635 -10.046  -3.842  0.00  0.00    +0.277 C 
ENDBRANCH  14  17
ENDBRANCH   9  11
BRANCH   1  19
ATOM     19  C   UNL     1       0.650  -8.700   3.015  0.00  0.00    +0.020 C 
BRANCH  19  29
ATOM     20  C   UNL     1       1.226  -2.572   2.639  0.00  0.00    +0.216 C 
ATOM     21  O   UNL     1       1.702  -1.778   3.423  0.00  0.00    -0.276 OA
ATOM     22  N   UNL     1       1.487  -3.887   2.769  0.00  0.00    -0.296 N 
ATOM     23  C   UNL     1       0.832  -4.870   1.894  0.00  0.00    +0.127 C 
ATOM     24  C   UNL     1       0.123  -5.911   2.770  0.00  0.00    +0.126 C 
ATOM     25  N   UNL     1       1.068  -6.389   3.789  0.00  0.00    -0.300 N 
ATOM     26  C   UNL     1       1.723  -5.406   4.664  0.00  0.00    +0.130 C 
ATOM     27  C   UNL     1       2.436  -4.365   3.785  0.00  0.00    +0.090 C 
ATOM     28  C   UNL     1       2.898  -3.190   4.649  0.00  0.00    +0.029 C 
ATOM     29  C   UNL     1       1.329  -7.704   3.919  0.00  0.00    +0.199 C 
ATOM     30  O   UNL     1       2.111  -8.087   4.764  0.00  0.00    -0.278 OA
BRANCH  20  31
ATOM     31  C   UNL     1       0.341  -2.086   1.520  0.00  0.00    +0.096 C 
BRANCH  31  32
ATOM     32  C   UNL     1       0.208  -0.564   1.599  0.00  0.00    +0.009 C 
BRANCH  32  34
ATOM     33  C   UNL     1      -0.823   1.452   0.541  0.00  0.00    +0.004 C 
ATOM     34  C   UNL     1      -0.690  -0.071   0.462  0.00  0.00    -0.003 C 
ENDBRANCH  32  34
ENDBRANCH  31  32
ENDBRANCH  20  31
ENDBRANCH  19  29
ENDBRANCH   1  19
TORSDOF 7
