REMARK  Name = ZINC34847460
REMARK  10 active torsions:
REMARK  status: ('A' for Active; 'I' for Inactive)
REMARK    1  A    between atoms: C_1  and  C_2
REMARK    2  A    between atoms: C_5  and  C_8
REMARK    3  A    between atoms: C_8  and  N_9
REMARK    4  A    between atoms: N_9  and  C_10
REMARK    5  A    between atoms: C_11  and  C_22
REMARK    6  A    between atoms: C_16  and  C_21
REMARK    7  A    between atoms: N_26  and  C_30
REMARK    8  A    between atoms: C_30  and  C_31
REMARK    9  A    between atoms: C_31  and  C_32
REMARK   10  A    between atoms: C_31  and  C_33
REMARK                            x       y       z     vdW  Elec       q    Type
REMARK                         _______ _______ _______ _____ _____    ______ ____
ROOT
ATOM      1  C   UNL     1       1.733  -6.126  -0.277  0.00  0.00    +0.134 A 
ATOM      2  C   UNL     1       3.058  -6.562  -0.040  0.00  0.00    +0.081 A 
ATOM      3  C   UNL     1       3.280  -7.939   0.198  0.00  0.00    +0.267 A 
ATOM      4  O   UNL     1       4.405  -8.359   0.407  0.00  0.00    -0.267 OA
ATOM      5  N   UNL     1       2.224  -8.781   0.189  0.00  0.00    -0.267 N 
ATOM      6  C   UNL     1       2.429 -10.110   0.417  0.00  0.00    +0.099 A 
ATOM      7  C   UNL     1       1.394 -10.979   0.415  0.00  0.00    -0.034 A 
ATOM      8  C   UNL     1       0.091 -10.521   0.177  0.00  0.00    +0.008 A 
ATOM      9  C   UNL     1      -0.124  -9.194  -0.052  0.00  0.00    +0.047 A 
ATOM     10  C   UNL     1       0.965  -8.304  -0.046  0.00  0.00    +0.142 A 
ATOM     11  N   UNL     1       0.744  -7.008  -0.266  0.00  0.00    -0.214 NA
ATOM     12  C   UNL     1       1.641 -12.444   0.669  0.00  0.00    +0.045 C 
ENDROOT
BRANCH   2  13
ATOM     13  C   UNL     1       4.134  -5.644  -0.041  0.00  0.00    +0.037 C 
ATOM     14  C   UNL     1       5.092  -5.716  -1.010  0.00  0.00    +0.077 C 
ATOM     15  C   UNL     1       5.152  -6.548  -2.164  0.00  0.00    +0.258 C 
ATOM     16  O   UNL     1       4.265  -7.347  -2.408  0.00  0.00    -0.269 OA
ATOM     17  N   UNL     1       6.198  -6.430  -2.963  0.00  0.00    -0.255 N 
ATOM     18  C   UNL     1       7.183  -5.544  -2.693  0.00  0.00    +0.121 C 
ATOM     19  S   UNL     1       8.613  -5.226  -3.579  0.00  0.00    -0.027 S 
ATOM     20  S   UNL     1       6.609  -4.785  -1.182  0.00  0.00    -0.061 S 
BRANCH  17  21
ATOM     21  C   UNL     1       6.292  -7.272  -4.159  0.00  0.00    +0.118 C 
BRANCH  21  22
ATOM     22  C   UNL     1       5.628  -6.559  -5.338  0.00  0.00    +0.001 C 
ATOM     23  C   UNL     1       6.413  -5.289  -5.674  0.00  0.00    +0.009 C 
ATOM     24  C   UNL     1       5.615  -7.487  -6.554  0.00  0.00    +0.009 C 
ENDBRANCH  21  22
ENDBRANCH  17  21
ENDBRANCH   2  13
BRANCH   1  25
ATOM     25  N   UNL     1       1.473  -4.794  -0.513  0.00  0.00    -0.324 N 
ATOM     26  H   UNL     1       2.199  -4.152  -0.520  0.00  0.00    +0.148 HD
BRANCH  25  27
ATOM     27  C   UNL     1       0.098  -4.348  -0.752  0.00  0.00    +0.138 C 
BRANCH  27  32
ATOM     28  C   UNL     1       0.049   1.364  -1.628  0.00  0.00    +0.044 C 
ATOM     29  C   UNL     1       0.062  -0.126  -1.399  0.00  0.00    -0.050 A 
ATOM     30  C   UNL     1       0.215  -0.988  -2.469  0.00  0.00    +0.003 A 
ATOM     31  C   UNL     1       0.227  -2.354  -2.260  0.00  0.00    +0.005 A 
ATOM     32  C   UNL     1       0.086  -2.858  -0.980  0.00  0.00    -0.030 A 
ATOM     33  C   UNL     1      -0.066  -1.996   0.090  0.00  0.00    +0.005 A 
ATOM     34  C   UNL     1      -0.074  -0.630  -0.119  0.00  0.00    +0.003 A 
ENDBRANCH  27  32
ENDBRANCH  25  27
ENDBRANCH   1  25
TORSDOF 6
