REMARK  Name = ZINC67401403
REMARK  5 active torsions:
REMARK  status: ('A' for Active; 'I' for Inactive)
REMARK    1  A    between atoms: C_6  and  C_7
REMARK    2  A    between atoms: C_7  and  C_9
REMARK    3  A    between atoms: C_7  and  O_22
REMARK    4  A    between atoms: N_12  and  C_15
REMARK    5  A    between atoms: C_15  and  C_16
REMARK                            x       y       z     vdW  Elec       q    Type
REMARK                         _______ _______ _______ _____ _____    ______ ____
ROOT
ATOM      1  C   UNL     1      -1.653  -1.152   1.449  0.00  0.00    +0.019 C 
ATOM      2  C   UNL     1      -1.821   0.121   2.285  0.00  0.00    -0.012 C 
ATOM      3  C   UNL     1      -2.258  -0.260   3.701  0.00  0.00    -0.078 C 
ATOM      4  N   UNL     1      -3.534  -0.983   3.646  0.00  0.00    +0.385 N 
ATOM      5  C   UNL     1      -3.363  -2.240   2.907  0.00  0.00    -0.078 C 
ATOM      6  C   UNL     1      -2.968  -1.935   1.460  0.00  0.00    -0.012 C 
ATOM      7  H   UNL     1      -4.223  -0.411   3.180  0.00  0.00    -0.081 HD
ENDROOT
BRANCH   1   8
ATOM      8  C   UNL     1      -1.293  -0.775   0.011  0.00  0.00    +0.147 C 
BRANCH   8  14
ATOM      9  C   UNL     1      -0.017   1.378   0.010  0.00  0.00    +0.007 A 
ATOM     10  C   UNL     1       1.171   2.086   0.002  0.00  0.00    +0.020 A 
ATOM     11  C   UNL     1       2.378   1.410  -0.013  0.00  0.00    +0.041 A 
ATOM     12  C   UNL     1       2.396   0.027  -0.021  0.00  0.00    +0.020 A 
ATOM     13  C   UNL     1       1.208  -0.679  -0.013  0.00  0.00    +0.007 A 
ATOM     14  C   UNL     1       0.002  -0.004   0.002  0.00  0.00    -0.019 A 
ATOM     15 CL   UNL     1       3.870   2.298  -0.023  0.00  0.00    -0.084 Cl
ENDBRANCH   8  14
BRANCH   8  16
ATOM     16  O   UNL     1      -1.145  -1.963  -0.770  0.00  0.00    -0.387 OA
ATOM     17  H   UNL     1      -0.455  -2.560  -0.450  0.00  0.00    +0.210 HD
ENDBRANCH   8  16
ENDBRANCH   1   8
BRANCH   4  18
ATOM     18  C   UNL     1      -3.988  -1.278   5.011  0.00  0.00    +0.019 C 
BRANCH  18  19
ATOM     19  C   UNL     1      -5.355  -1.910   4.961  0.00  0.00    +0.204 C 
ATOM     20  O   UNL     1      -5.897  -2.096   3.893  0.00  0.00    -0.277 OA
ATOM     21  N   UNL     1      -5.974  -2.268   6.103  0.00  0.00    -0.242 N 
ATOM     22  C   UNL     1      -7.197  -2.833   6.058  0.00  0.00    +0.303 C 
ATOM     23  O   UNL     1      -7.741  -3.020   4.987  0.00  0.00    -0.253 OA
ATOM     24  N   UNL     1      -7.816  -3.191   7.200  0.00  0.00    -0.313 N 
ATOM     25  H   UNL     1      -5.540  -2.119   6.957  0.00  0.00    +0.159 HD
ATOM     26  H   UNL     1      -7.383  -3.042   8.055  0.00  0.00    +0.146 HD
ATOM     27  H   UNL     1      -8.696  -3.598   7.168  0.00  0.00    +0.146 HD
ENDBRANCH  18  19
ENDBRANCH   4  18
TORSDOF 5
