REMARK  Name = ZINC20622574
REMARK  13 active torsions:
REMARK  status: ('A' for Active; 'I' for Inactive)
REMARK    1  A    between atoms: C_1  and  C_2
REMARK    2  A    between atoms: C_6  and  O_30
REMARK    3  A    between atoms: C_7  and  C_18
REMARK    4  A    between atoms: C_12  and  C_13
REMARK    5  A    between atoms: C_13  and  C_14
REMARK    6  A    between atoms: C_14  and  O_16
REMARK    7  A    between atoms: O_16  and  C_17
REMARK    8  A    between atoms: C_18  and  N_19
REMARK    9  A    between atoms: N_19  and  C_20
REMARK   10  A    between atoms: C_22  and  C_28
REMARK   11  A    between atoms: C_22  and  C_29
REMARK   12  A    between atoms: C_24  and  C_26
REMARK   13  A    between atoms: C_24  and  C_27
REMARK                            x       y       z     vdW  Elec       q    Type
REMARK                         _______ _______ _______ _____ _____    ______ ____
ROOT
ATOM      1  C   UNL     1      -0.139   1.308   0.572  0.00  0.00    +0.045 C 
ATOM      2  C   UNL     1      -0.176  -0.194   0.446  0.00  0.00    -0.029 A 
ATOM      3  C   UNL     1      -1.446  -0.920   0.480  0.00  0.00    +0.021 A 
ATOM      4  C   UNL     1      -2.661  -0.241   0.630  0.00  0.00    +0.015 A 
ATOM      5  C   UNL     1      -3.831  -0.943   0.658  0.00  0.00    +0.046 A 
ATOM      6  C   UNL     1      -3.825  -2.332   0.538  0.00  0.00    +0.125 A 
ATOM      7  C   UNL     1      -2.632  -3.020   0.390  0.00  0.00    +0.051 A 
ATOM      8  C   UNL     1      -1.433  -2.322   0.359  0.00  0.00    +0.147 A 
ATOM      9  O   UNL     1      -0.260  -2.974   0.215  0.00  0.00    -0.421 OA
ATOM     10  C   UNL     1       0.909  -2.313   0.183  0.00  0.00    +0.341 A 
ATOM     11  O   UNL     1       1.943  -2.943   0.050  0.00  0.00    -0.245 OA
ATOM     12  C   UNL     1       0.969  -0.909   0.293  0.00  0.00    +0.051 A 
ENDROOT
BRANCH   6  13
ATOM     13  O   UNL     1      -4.997  -3.015   0.569  0.00  0.00    -0.506 OA
ATOM     14  H   UNL     1      -5.403  -3.139  -0.300  0.00  0.00    +0.292 HD
ENDBRANCH   6  13
BRANCH  12  15
ATOM     15  C   UNL     1       2.300  -0.204   0.246  0.00  0.00    +0.163 C 
BRANCH  15  16
ATOM     16  C   UNL     1       2.907  -0.184   1.626  0.00  0.00    +0.311 C 
ATOM     17  O   UNL     1       2.318  -0.690   2.552  0.00  0.00    -0.250 OA
BRANCH  16  18
ATOM     18  O   UNL     1       4.100   0.396   1.826  0.00  0.00    -0.468 OA
ATOM     19  C   UNL     1       4.615   0.379   3.159  0.00  0.00    +0.280 C 
ENDBRANCH  16  18
ENDBRANCH  15  16
ENDBRANCH  12  15
BRANCH   7  20
ATOM     20  C   UNL     1      -2.636  -4.521   0.262  0.00  0.00    +0.124 C 
BRANCH  20  21
ATOM     21  N   UNL     1      -2.741  -4.891  -1.156  0.00  0.00    -0.309 NA
ATOM     22  H   UNL     1      -3.558  -4.476  -1.579  0.00  0.00    +0.123 HD
BRANCH  21  23
ATOM     23  C   UNL     1      -2.748  -6.354  -1.320  0.00  0.00    +0.051 C 
ATOM     24  C   UNL     1      -4.183  -6.868  -1.187  0.00  0.00    +0.006 C 
ATOM     25  C   UNL     1      -4.209  -8.386  -1.368  0.00  0.00    -0.072 C 
ATOM     26  N   UNL     1      -3.582  -8.800  -2.613  0.00  0.00    +0.386 N 
ATOM     27  C   UNL     1      -2.294  -8.214  -2.949  0.00  0.00    -0.072 C 
ATOM     28  C   UNL     1      -2.240  -6.707  -2.718  0.00  0.00    +0.006 C 
ATOM     29  C   UNL     1      -1.147  -8.898  -2.200  0.00  0.00    -0.010 C 
ATOM     30  C   UNL     1      -2.054  -8.455  -4.459  0.00  0.00    -0.010 C 
ATOM     31  C   UNL     1      -3.587  -9.073  -0.153  0.00  0.00    -0.010 C 
ATOM     32  C   UNL     1      -5.693  -8.815  -1.427  0.00  0.00    -0.010 C 
ATOM     33  H   UNL     1      -3.478  -9.818  -2.598  0.00  0.00    -0.084 HD
ATOM     34  H   UNL     1      -4.232  -8.608  -3.380  0.00  0.00    -0.084 HD
ENDBRANCH  21  23
ENDBRANCH  20  21
ENDBRANCH   7  20
TORSDOF 7
