REMARK  Name = ZINC35991114
REMARK  15 active torsions:
REMARK  status: ('A' for Active; 'I' for Inactive)
REMARK    1  A    between atoms: C_1  and  C_2
REMARK    2  A    between atoms: C_2  and  N_3
REMARK    3  A    between atoms: C_4  and  C_26
REMARK    4  A    between atoms: C_5  and  C_21
REMARK    5  A    between atoms: C_6  and  C_11
REMARK    6  A    between atoms: C_14  and  C_17
REMARK    7  A    between atoms: C_17  and  C_18
REMARK    8  A    between atoms: C_17  and  C_19
REMARK    9  A    between atoms: C_17  and  C_20
REMARK   10  A    between atoms: C_21  and  O_23
REMARK   11  A    between atoms: O_23  and  C_24
REMARK   12  A    between atoms: C_24  and  C_25
REMARK   13  A    between atoms: C_26  and  N_27
REMARK   14  A    between atoms: N_27  and  C_28
REMARK   15  A    between atoms: N_27  and  C_29
REMARK                            x       y       z     vdW  Elec       q    Type
REMARK                         _______ _______ _______ _____ _____    ______ ____
ROOT
ATOM      1  N   UNL     1       0.772  -0.822  -0.719  0.00  0.00    -0.261 N 
ATOM      2  C   UNL     1       0.081  -0.907  -1.893  0.00  0.00    +0.010 C 
ATOM      3  C   UNL     1       0.575  -1.597  -2.944  0.00  0.00    +0.076 C 
ATOM      4  C   UNL     1       1.921  -2.272  -2.775  0.00  0.00    +0.143 C 
ATOM      5  N   UNL     1       2.584  -2.119  -1.469  0.00  0.00    -0.288 N 
ATOM      6  C   UNL     1       1.966  -1.393  -0.516  0.00  0.00    +0.307 C 
ATOM      7  O   UNL     1       2.507  -1.258   0.564  0.00  0.00    -0.252 OA
ATOM      8  H   UNL     1       3.447  -2.528  -1.300  0.00  0.00    +0.151 HD
ENDROOT
BRANCH   4   9
ATOM      9  C   UNL     1       1.737  -3.745  -3.032  0.00  0.00    -0.022 A 
ATOM     10  C   UNL     1       1.216  -4.560  -2.043  0.00  0.00    +0.006 A 
ATOM     11  C   UNL     1       1.047  -5.911  -2.279  0.00  0.00    +0.004 A 
ATOM     12  C   UNL     1       1.399  -6.449  -3.503  0.00  0.00    -0.042 A 
ATOM     13  C   UNL     1       1.920  -5.634  -4.491  0.00  0.00    +0.004 A 
ATOM     14  C   UNL     1       2.085  -4.282  -4.257  0.00  0.00    +0.006 A 
BRANCH  12  15
ATOM     15  C   UNL     1       1.217  -7.922  -3.760  0.00  0.00    -0.013 C 
ATOM     16  C   UNL     1      -0.261  -8.287  -3.608  0.00  0.00    +0.015 C 
ATOM     17  C   UNL     1       1.681  -8.254  -5.179  0.00  0.00    +0.015 C 
ATOM     18  C   UNL     1       2.045  -8.722  -2.752  0.00  0.00    +0.015 C 
ENDBRANCH  12  15
ENDBRANCH   4   9
BRANCH   1  20
ATOM     19  C   UNL     1       0.574   1.415   0.250  0.00  0.00    +0.025 C 
ATOM     20  C   UNL     1       0.177  -0.056   0.380  0.00  0.00    +0.111 C 
ENDBRANCH   1  20
BRANCH   3  21
ATOM     21  C   UNL     1      -0.141  -1.687  -4.161  0.00  0.00    +0.339 C 
ATOM     22  O   UNL     1      -1.272  -1.246  -4.236  0.00  0.00    -0.245 OA
BRANCH  21  23
ATOM     23  O   UNL     1       0.432  -2.261  -5.239  0.00  0.00    -0.462 OA
BRANCH  23  24
ATOM     24  C   UNL     1      -0.348  -2.318  -6.435  0.00  0.00    +0.229 C 
ATOM     25  C   UNL     1       0.462  -2.999  -7.541  0.00  0.00    +0.048 C 
ENDBRANCH  23  24
ENDBRANCH  21  23
ENDBRANCH   3  21
BRANCH   2  26
ATOM     26  C   UNL     1      -1.255  -0.220  -2.019  0.00  0.00    -0.026 C 
BRANCH  26  27
ATOM     27  N   UNL     1      -2.305  -1.087  -1.469  0.00  0.00    +0.383 N 
ATOM     28  C   UNL     1      -2.389  -2.320  -2.264  0.00  0.00    -0.095 C 
ATOM     29  H   UNL     1      -2.083  -1.319  -0.512  0.00  0.00    -0.081 HD
BRANCH  27  30
ATOM     30  C   UNL     1      -3.594  -0.385  -1.515  0.00  0.00    -0.068 C 
ATOM     31  C   UNL     1      -3.506   0.898  -0.687  0.00  0.00    -0.015 C 
ATOM     32  C   UNL     1      -4.849   1.630  -0.736  0.00  0.00    -0.002 C 
ATOM     33  C   UNL     1      -5.943   0.727  -0.162  0.00  0.00    -0.000 C 
ATOM     34  C   UNL     1      -6.031  -0.557  -0.990  0.00  0.00    -0.002 C 
ATOM     35  C   UNL     1      -4.688  -1.288  -0.942  0.00  0.00    -0.015 C 
ENDBRANCH  27  30
ENDBRANCH  26  27
ENDBRANCH   2  26
TORSDOF 9
