REMARK  Name = ZINC17779883
REMARK  5 active torsions:
REMARK  status: ('A' for Active; 'I' for Inactive)
REMARK    1  A    between atoms: C_1  and  O_2
REMARK    2  A    between atoms: O_2  and  C_3
REMARK    3  A    between atoms: C_6  and  C_10
REMARK    4  A    between atoms: C_21  and  N_25
REMARK    5  A    between atoms: C_22  and  C_23
REMARK                            x       y       z     vdW  Elec       q    Type
REMARK                         _______ _______ _______ _____ _____    ______ ____
ROOT
ATOM      1  C   UNL     1       3.672   2.186  -0.022  0.00  0.00    +0.105 C 
ATOM      2  C   UNL     1       3.728   3.052  -1.249  0.00  0.00    +0.091 A 
ATOM      3  C   UNL     1       4.011   2.485  -2.501  0.00  0.00    +0.259 A 
ATOM      4  O   UNL     1       4.217   1.287  -2.610  0.00  0.00    -0.267 OA
ATOM      5  N   UNL     1       4.053   3.293  -3.581  0.00  0.00    -0.313 N 
ATOM      6  H   UNL     1       4.247   2.923  -4.456  0.00  0.00    +0.170 HD
ATOM      7  C   UNL     1       3.825   4.615  -3.446  0.00  0.00    +0.203 A 
ATOM      8  N   UNL     1       3.561   5.152  -2.287  0.00  0.00    -0.203 NA
ATOM      9  C   UNL     1       3.502   4.409  -1.170  0.00  0.00    +0.233 A 
ATOM     10  O   UNL     1       3.226   4.998   0.013  0.00  0.00    -0.423 OA
ATOM     11  C   UNL     1       3.530   4.372   1.163  0.00  0.00    +0.200 C 
ATOM     12  C   UNL     1       3.752   3.040   1.214  0.00  0.00    +0.098 C 
ENDROOT
BRANCH   1  16
ATOM     13  C   UNL     1       0.002  -0.004   0.002  0.00  0.00    +0.134 A 
ATOM     14  C   UNL     1       1.214  -0.679  -0.013  0.00  0.00    +0.047 A 
ATOM     15  C   UNL     1       2.399   0.032  -0.021  0.00  0.00    +0.008 A 
ATOM     16  C   UNL     1       2.378   1.414  -0.013  0.00  0.00    -0.033 A 
ATOM     17  C   UNL     1       1.172   2.090   0.002  0.00  0.00    +0.023 A 
ATOM     18  C   UNL     1      -0.017   1.384   0.010  0.00  0.00    +0.060 A 
ATOM     19 BR   UNL     1      -1.667   2.308   0.022  0.00  0.00    -0.047 Br
BRANCH  13  21
ATOM     20  C   UNL     1      -1.069  -2.127   0.000  0.00  0.00    +0.277 C 
ATOM     21  O   UNL     1      -1.165  -0.701   0.009  0.00  0.00    -0.494 OA
ENDBRANCH  13  21
ENDBRANCH   1  16
BRANCH  11  22
ATOM     22  N   UNL     1       3.616   5.107   2.319  0.00  0.00    -0.328 N 
ATOM     23  H   UNL     1       3.459   6.064   2.298  0.00  0.00    +0.145 HD
ATOM     24  H   UNL     1       3.835   4.670   3.156  0.00  0.00    +0.145 HD
ENDBRANCH  11  22
BRANCH  12  25
ATOM     25  C   UNL     1       4.070   2.431   2.470  0.00  0.00    +0.101 C 
ATOM     26  N   UNL     1       4.323   1.948   3.467  0.00  0.00    -0.191 NA
ENDBRANCH  12  25
TORSDOF 4
