REMARK  Name = ZINC12529050
REMARK  6 active torsions:
REMARK  status: ('A' for Active; 'I' for Inactive)
REMARK    1  A    between atoms: C_1  and  C_2
REMARK    2  A    between atoms: C_10  and  C_16
REMARK    3  A    between atoms: C_16  and  O_18
REMARK    4  A    between atoms: O_18  and  C_19
REMARK    5  A    between atoms: C_19  and  C_20
REMARK    6  A    between atoms: N_25  and  C_26
REMARK                            x       y       z     vdW  Elec       q    Type
REMARK                         _______ _______ _______ _____ _____    ______ ____
ROOT
ATOM      1  C   UNL     1      -8.606   0.679   2.110  0.00  0.00    +0.328 C 
ENDROOT
BRANCH   1   2
ATOM      2  C   UNL     1      -7.192   1.201   2.099  0.00  0.00    +0.258 C 
ATOM      3  O   UNL     1      -6.796   1.898   3.008  0.00  0.00    -0.272 OA
ATOM      4  N   UNL     1      -6.368   0.892   1.079  0.00  0.00    -0.237 N 
ATOM      5  C   UNL     1      -5.103   1.358   1.069  0.00  0.00    +0.306 C 
ATOM      6  O   UNL     1      -4.707   2.057   1.980  0.00  0.00    -0.252 OA
ATOM      7  N   UNL     1      -4.279   1.049   0.049  0.00  0.00    -0.294 N 
ATOM      8  H   UNL     1      -6.684   0.334   0.351  0.00  0.00    +0.159 HD
ATOM      9  H   UNL     1      -4.595   0.491  -0.679  0.00  0.00    +0.151 HD
BRANCH   7  10
ATOM     10  C   UNL     1      -2.904   1.556   0.038  0.00  0.00    +0.037 C 
ATOM     11  C   UNL     1      -2.188   1.063  -1.221  0.00  0.00    +0.029 C 
ATOM     12  C   UNL     1      -0.753   1.593  -1.232  0.00  0.00    -0.008 C 
ATOM     13  C   UNL     1      -0.013   1.086   0.008  0.00  0.00    +0.007 C 
ATOM     14  C   UNL     1      -0.729   1.579   1.267  0.00  0.00    -0.008 C 
ATOM     15  C   UNL     1      -2.164   1.050   1.278  0.00  0.00    +0.029 C 
ATOM     16  C   UNL     1      -0.750   3.109   1.275  0.00  0.00    +0.007 C 
ATOM     17  C   UNL     1      -1.490   3.616   0.036  0.00  0.00    -0.008 C 
ATOM     18  C   UNL     1      -0.773   3.123  -1.223  0.00  0.00    +0.007 C 
ATOM     19  C   UNL     1      -2.925   3.086   0.047  0.00  0.00    +0.029 C 
ENDBRANCH   7  10
ENDBRANCH   1   2
BRANCH   1  20
ATOM     20  O   UNL     1      -9.286   1.147   3.304  0.00  0.00    -0.452 OA
BRANCH  20  21
ATOM     21  C   UNL     1     -10.568   0.767   3.467  0.00  0.00    +0.340 C 
ATOM     22  O   UNL     1     -11.103   0.063   2.634  0.00  0.00    -0.245 OA
BRANCH  21  31
ATOM     23  C   UNL     1     -18.130  -0.636   6.189  0.00  0.00    +0.008 C 
ATOM     24  C   UNL     1     -16.887  -0.054   6.865  0.00  0.00    -0.009 C 
ATOM     25  C   UNL     1     -17.251   1.260   7.562  0.00  0.00    +0.009 C 
ATOM     26  C   UNL     1     -16.081   1.715   8.440  0.00  0.00    +0.054 C 
ATOM     27  C   UNL     1     -14.817   1.684   7.611  0.00  0.00    +0.020 A 
ATOM     28  C   UNL     1     -14.705   1.019   6.446  0.00  0.00    -0.019 A 
ATOM     29  C   UNL     1     -13.347   1.231   5.953  0.00  0.00    +0.004 A 
ATOM     30  C   UNL     1     -12.646   0.812   4.825  0.00  0.00    +0.025 A 
ATOM     31  C   UNL     1     -11.321   1.205   4.658  0.00  0.00    +0.060 A 
ATOM     32  C   UNL     1     -10.701   2.012   5.622  0.00  0.00    +0.017 A 
ATOM     33  C   UNL     1     -11.386   2.429   6.724  0.00  0.00    +0.027 A 
ATOM     34  C   UNL     1     -12.713   2.048   6.912  0.00  0.00    +0.047 A 
ATOM     35  N   UNL     1     -13.634   2.304   7.901  0.00  0.00    -0.358 N 
ATOM     36  H   UNL     1     -13.467   2.844   8.689  0.00  0.00    +0.166 HD
ATOM     37  C   UNL     1     -15.808   0.214   5.808  0.00  0.00    +0.040 C 
ENDBRANCH  21  31
ENDBRANCH  20  21
ENDBRANCH   1  20
TORSDOF 5
