REMARK  Name = ZINC30947638
REMARK  9 active torsions:
REMARK  status: ('A' for Active; 'I' for Inactive)
REMARK    1  A    between atoms: C_1  and  C_2
REMARK    2  A    between atoms: C_7  and  C_18
REMARK    3  A    between atoms: C_9  and  C_11
REMARK    4  A    between atoms: C_16  and  O_17
REMARK    5  A    between atoms: C_19  and  C_20
REMARK    6  A    between atoms: C_23  and  N_26
REMARK    7  A    between atoms: N_26  and  C_27
REMARK    8  A    between atoms: N_26  and  C_28
REMARK    9  A    between atoms: C_29  and  C_31
REMARK                            x       y       z     vdW  Elec       q    Type
REMARK                         _______ _______ _______ _____ _____    ______ ____
ROOT
ATOM      1  C   UNL     1       7.080   5.159   0.856  0.00  0.00    +0.110 C 
ATOM      2  C   UNL     1       7.001   3.678   0.593  0.00  0.00    +0.225 C 
ATOM      3  O   UNL     1       7.976   2.978   0.765  0.00  0.00    -0.275 OA
ATOM      4  N   UNL     1       5.846   3.130   0.165  0.00  0.00    -0.178 N 
ATOM      5  C   UNL     1       4.694   3.907   0.087  0.00  0.00    +0.235 A 
ATOM      6  N   UNL     1       4.761   5.213   0.309  0.00  0.00    -0.194 NA
ATOM      7  C   UNL     1       3.657   5.959   0.235  0.00  0.00    +0.159 A 
ATOM      8  N   UNL     1       2.489   5.389  -0.062  0.00  0.00    -0.208 NA
ATOM      9  C   UNL     1       2.427   4.080  -0.284  0.00  0.00    +0.169 A 
ATOM     10  N   UNL     1       3.530   3.339  -0.204  0.00  0.00    -0.194 NA
ATOM     11  C   UNL     1       5.807   1.829  -0.187  0.00  0.00    +0.225 C 
ATOM     12  O   UNL     1       4.770   1.339  -0.579  0.00  0.00    -0.275 OA
ATOM     13  C   UNL     1       7.052   0.985  -0.093  0.00  0.00    +0.110 C 
ENDROOT
BRANCH   9  14
ATOM     14  C   UNL     1       1.130   3.445  -0.614  0.00  0.00    +0.061 A 
ATOM     15  C   UNL     1       1.062   2.072  -0.846  0.00  0.00    +0.015 A 
ATOM     16  C   UNL     1      -0.148   1.485  -1.153  0.00  0.00    +0.001 A 
ATOM     17  C   UNL     1      -1.296   2.256  -1.235  0.00  0.00    +0.004 A 
ATOM     18  C   UNL     1      -1.241   3.616  -1.001  0.00  0.00    +0.046 A 
ATOM     19  C   UNL     1      -0.032   4.220  -0.692  0.00  0.00    +0.128 A 
BRANCH  19  20
ATOM     20  O   UNL     1       0.024   5.557  -0.468  0.00  0.00    -0.506 OA
ATOM     21  H   UNL     1      -0.891   6.164  -0.530  0.00  0.00    +0.292 HD
ENDBRANCH  19  20
ENDBRANCH   9  14
BRANCH   7  22
ATOM     22  C   UNL     1       3.729   7.407   0.481  0.00  0.00    +0.049 C 
ATOM     23  C   UNL     1       2.615   8.158   0.406  0.00  0.00    +0.011 C 
BRANCH  23  24
ATOM     24  C   UNL     1       2.687   9.607   0.652  0.00  0.00    -0.025 A 
ATOM     25  C   UNL     1       3.912  10.205   0.970  0.00  0.00    +0.010 A 
ATOM     26  C   UNL     1       3.976  11.561   1.195  0.00  0.00    +0.023 A 
ATOM     27  C   UNL     1       2.823  12.336   1.117  0.00  0.00    +0.029 A 
ATOM     28  C   UNL     1       1.602  11.745   0.807  0.00  0.00    +0.023 A 
ATOM     29  C   UNL     1       1.530  10.390   0.575  0.00  0.00    +0.010 A 
BRANCH  27  30
ATOM     30  N   UNL     1       2.891  13.708   1.350  0.00  0.00    -0.336 N 
ATOM     31  C   UNL     1       1.706  14.545   1.147  0.00  0.00    +0.129 C 
ATOM     32  C   UNL     1       4.148  14.313   1.798  0.00  0.00    +0.129 C 
ENDBRANCH  27  30
ENDBRANCH  23  24
ENDBRANCH   7  22
TORSDOF 5
