REMARK  Name = ZINC44452589
REMARK  4 active torsions:
REMARK  status: ('A' for Active; 'I' for Inactive)
REMARK    1  A    between atoms: C_4  and  C_7
REMARK    2  A    between atoms: C_8  and  C_9
REMARK    3  A    between atoms: N_11  and  C_12
REMARK    4  A    between atoms: C_13  and  C_20
REMARK                            x       y       z     vdW  Elec       q    Type
REMARK                         _______ _______ _______ _____ _____    ______ ____
ROOT
ATOM      1  C   UNL     1       6.226  -4.758  -0.085  0.00  0.00    +0.085 A 
ATOM      2  C   UNL     1       6.440  -6.126  -0.100  0.00  0.00    +0.069 A 
ATOM      3  C   UNL     1       7.828  -6.585  -0.115  0.00  0.00    -0.023 A 
ATOM      4  C   UNL     1       8.735  -5.592  -0.111  0.00  0.00    -0.004 A 
ATOM      5  S   UNL     1       7.769  -4.103  -0.097  0.00  0.00    -0.077 S 
ATOM      6  C   UNL     1      10.144  -6.120  -0.123  0.00  0.00    +0.043 C 
ATOM      7  C   UNL     1      10.010  -7.600   0.297  0.00  0.00    +0.010 C 
ATOM      8  C   UNL     1       8.566  -7.922  -0.138  0.00  0.00    +0.037 C 
ENDROOT
BRANCH   2   9
ATOM      9  C   UNL     1       5.323  -7.073  -0.100  0.00  0.00    +0.254 C 
ATOM     10  O   UNL     1       4.850  -7.456  -1.153  0.00  0.00    -0.270 OA
ATOM     11  N   UNL     1       4.818  -7.519   1.068  0.00  0.00    -0.236 N 
ATOM     12  C   UNL     1       3.790  -8.391   1.068  0.00  0.00    +0.304 C 
ATOM     13  O   UNL     1       3.318  -8.774   0.015  0.00  0.00    -0.253 OA
ATOM     14  N   UNL     1       3.285  -8.838   2.235  0.00  0.00    -0.313 N 
ATOM     15  H   UNL     1       5.195  -7.214   1.908  0.00  0.00    +0.159 HD
ATOM     16  H   UNL     1       3.662  -8.532   3.075  0.00  0.00    +0.146 HD
ATOM     17  H   UNL     1       2.545  -9.465   2.235  0.00  0.00    +0.146 HD
ENDBRANCH   2   9
BRANCH   1  20
ATOM     18  C   UNL     1       4.993  -2.739  -0.061  0.00  0.00    +0.241 C 
ATOM     19  O   UNL     1       6.037  -2.113  -0.068  0.00  0.00    -0.270 OA
ATOM     20  N   UNL     1       5.016  -4.086  -0.069  0.00  0.00    -0.276 N 
ATOM     21  H   UNL     1       4.184  -4.585  -0.063  0.00  0.00    +0.156 HD
BRANCH  18  23
ATOM     22  C   UNL     1       3.692  -0.680  -0.037  0.00  0.00    +0.013 C 
ATOM     23  C   UNL     1       3.714  -2.028  -0.045  0.00  0.00    +0.068 C 
BRANCH  22  27
ATOM     24  C   UNL     1      -0.017   1.380   0.010  0.00  0.00    +0.000 A 
ATOM     25  C   UNL     1       1.168   2.095   0.002  0.00  0.00    +0.001 A 
ATOM     26  C   UNL     1       2.377   1.433  -0.013  0.00  0.00    +0.008 A 
ATOM     27  C   UNL     1       2.405   0.035  -0.021  0.00  0.00    -0.025 A 
ATOM     28  C   UNL     1       1.203  -0.681  -0.013  0.00  0.00    +0.008 A 
ATOM     29  C   UNL     1       0.002  -0.004   0.002  0.00  0.00    +0.001 A 
ENDBRANCH  22  27
ENDBRANCH  18  23
ENDBRANCH   1  20
TORSDOF 4
