REMARK  Name = ZINC18367754
REMARK  15 active torsions:
REMARK  status: ('A' for Active; 'I' for Inactive)
REMARK    1  A    between atoms: C_1  and  O_2
REMARK    2  A    between atoms: O_2  and  C_3
REMARK    3  A    between atoms: C_3  and  C_5
REMARK    4  A    between atoms: C_5  and  C_6
REMARK    5  A    between atoms: C_7  and  C_31
REMARK    6  A    between atoms: C_8  and  N_15
REMARK    7  A    between atoms: C_10  and  C_11
REMARK    8  A    between atoms: C_11  and  O_13
REMARK    9  A    between atoms: O_13  and  C_14
REMARK   10  A    between atoms: C_16  and  C_18
REMARK   11  A    between atoms: C_18  and  S_19
REMARK   12  A    between atoms: S_19  and  C_20
REMARK   13  A    between atoms: C_23  and  C_25
REMARK   14  A    between atoms: C_31  and  O_33
REMARK   15  A    between atoms: O_33  and  C_34
REMARK                            x       y       z     vdW  Elec       q    Type
REMARK                         _______ _______ _______ _____ _____    ______ ____
ROOT
ATOM      1  C   UNL     1       1.266   4.253   1.199  0.00  0.00    +0.000 A 
ATOM      2  C   UNL     1       1.232   3.542   0.009  0.00  0.00    +0.092 A 
ATOM      3  C   UNL     1       1.248   4.272  -1.185  0.00  0.00    +0.087 A 
ATOM      4  S   UNL     1       1.317   5.914  -0.635  0.00  0.00    -0.066 S 
ATOM      5  C   UNL     1       1.323   5.618   1.123  0.00  0.00    +0.102 A 
ENDROOT
BRANCH   3   6
ATOM      6  N   UNL     1       1.217   3.800  -2.482  0.00  0.00    -0.279 N 
ATOM      7  C   UNL     1       1.240   4.665  -3.515  0.00  0.00    +0.228 C 
ATOM      8  O   UNL     1       1.288   5.858  -3.305  0.00  0.00    -0.275 OA
ATOM      9  H   UNL     1       1.179   2.845  -2.650  0.00  0.00    +0.155 HD
BRANCH   7  10
ATOM     10  C   UNL     1       1.206   4.150  -4.931  0.00  0.00    +0.175 C 
BRANCH  10  11
ATOM     11  S   UNL     1       1.248   5.545  -6.082  0.00  0.00    -0.056 S 
BRANCH  11  12
ATOM     12  C   UNL     1       1.200   4.679  -7.615  0.00  0.00    +0.278 A 
ATOM     13  N   UNL     1       1.154   3.377  -7.770  0.00  0.00    -0.101 NA
ATOM     14  N   UNL     1       1.125   3.094  -9.025  0.00  0.00    -0.105 NA
ATOM     15  C   UNL     1       1.161   4.205  -9.723  0.00  0.00    +0.265 A 
ATOM     16  O   UNL     1       1.209   5.232  -8.844  0.00  0.00    -0.410 OA
BRANCH  15  17
ATOM     17  C   UNL     1       1.150   4.314 -11.190  0.00  0.00    +0.104 A 
ATOM     18  C   UNL     1       1.181   5.473 -11.911  0.00  0.00    +0.032 A 
ATOM     19  C   UNL     1       1.159   5.120 -13.269  0.00  0.00    +0.020 A 
ATOM     20  C   UNL     1       1.107   3.772 -13.344  0.00  0.00    +0.083 A 
ATOM     21  N   UNL     1       1.101   3.267 -12.078  0.00  0.00    -0.357 N 
ATOM     22  H   UNL     1       1.067   2.326 -11.844  0.00  0.00    +0.165 HD
ENDBRANCH  15  17
ENDBRANCH  11  12
ENDBRANCH  10  11
ENDBRANCH   7  10
ENDBRANCH   3   6
BRANCH   5  23
ATOM     23  C   UNL     1       1.371   6.593   2.213  0.00  0.00    +0.346 C 
ATOM     24  O   UNL     1       1.368   6.213   3.369  0.00  0.00    -0.244 OA
BRANCH  23  25
ATOM     25  O   UNL     1       1.420   7.912   1.937  0.00  0.00    -0.464 OA
ATOM     26  C   UNL     1       1.465   8.807   3.050  0.00  0.00    +0.280 C 
ENDBRANCH  23  25
ENDBRANCH   5  23
BRANCH   2  27
ATOM     27  C   UNL     1       1.175   2.076   0.002  0.00  0.00    +0.342 C 
ATOM     28  O   UNL     1       2.204   1.428  -0.011  0.00  0.00    -0.245 OA
BRANCH  27  29
ATOM     29  O   UNL     1      -0.018   1.448   0.010  0.00  0.00    -0.464 OA
ATOM     30  C   UNL     1       0.002  -0.004   0.002  0.00  0.00    +0.280 C 
ENDBRANCH  27  29
ENDBRANCH   2  27
BRANCH   1  31
ATOM     31  C   UNL     1       1.246   3.546   2.530  0.00  0.00    +0.158 C 
BRANCH  31  32
ATOM     32  C   UNL     1       2.659   3.255   2.966  0.00  0.00    +0.311 C 
ATOM     33  O   UNL     1       3.587   3.587   2.268  0.00  0.00    -0.250 OA
BRANCH  32  35
ATOM     34  C   UNL     1       4.271   2.379   4.487  0.00  0.00    +0.280 C 
ATOM     35  O   UNL     1       2.886   2.626   4.130  0.00  0.00    -0.468 OA
ENDBRANCH  32  35
ENDBRANCH  31  32
ENDBRANCH   1  31
TORSDOF 12
