REMARK  Name = ZINC08200139
REMARK  12 active torsions:
REMARK  status: ('A' for Active; 'I' for Inactive)
REMARK    1  A    between atoms: C_1  and  C_2
REMARK    2  A    between atoms: C_2  and  N_46
REMARK    3  A    between atoms: C_3  and  C_4
REMARK    4  A    between atoms: C_3  and  N_46
REMARK    5  A    between atoms: C_5  and  C_6
REMARK    6  A    between atoms: C_5  and  N_46
REMARK    7  A    between atoms: C_10  and  C_14
REMARK    8  A    between atoms: C_11  and  C_13
REMARK    9  A    between atoms: C_15  and  S_17
REMARK   10  A    between atoms: S_17  and  C_18
REMARK   11  A    between atoms: C_21  and  S_23
REMARK   12  A    between atoms: S_23  and  C_24
REMARK                            x       y       z     vdW  Elec       q    Type
REMARK                         _______ _______ _______ _____ _____    ______ ____
ROOT
ATOM      1  C   UNL     1       0.265  -0.275  -0.482  0.00  0.00    +0.115 A 
ATOM      2  N   UNL     1       1.160  -1.210  -0.225  0.00  0.00    -0.227 NA
ATOM      3  C   UNL     1       2.416  -0.885   0.010  0.00  0.00    +0.113 A 
ATOM      4  C   UNL     1       2.843   0.461  -0.003  0.00  0.00    +0.043 A 
ATOM      5  C   UNL     1       4.255   0.656   0.274  0.00  0.00    -0.029 A 
ATOM      6  C   UNL     1       5.029  -0.412   0.516  0.00  0.00    -0.008 A 
ATOM      7  S   UNL     1       3.897  -1.784   0.385  0.00  0.00    -0.074 S 
ATOM      8  C   UNL     1       6.504  -0.446   0.824  0.00  0.00    +0.052 C 
ATOM      9  C   UNL     1       4.844   2.043   0.292  0.00  0.00    +0.045 C 
ATOM     10  C   UNL     1       1.830   1.419  -0.286  0.00  0.00    +0.115 A 
ATOM     11  N   UNL     1       0.594   1.004  -0.511  0.00  0.00    -0.227 NA
ENDROOT
BRANCH   1  12
ATOM     12  C   UNL     1      -1.163  -0.675  -0.747  0.00  0.00    -0.001 C 
BRANCH  12  13
ATOM     13  N   UNL     1      -1.338  -0.884  -2.200  0.00  0.00    +0.384 N 
ATOM     14  H   UNL     1      -0.989  -0.059  -2.700  0.00  0.00    -0.081 HD
BRANCH  13  16
ATOM     15  C   UNL     1      -1.026  -3.315  -1.871  0.00  0.00    -0.017 C 
ATOM     16  C   UNL     1      -0.570  -2.070  -2.635  0.00  0.00    -0.082 C 
ENDBRANCH  13  16
BRANCH  13  17
ATOM     17  C   UNL     1      -2.771  -1.067  -2.515  0.00  0.00    -0.082 C 
ATOM     18  C   UNL     1      -2.951  -1.020  -4.033  0.00  0.00    -0.017 C 
ENDBRANCH  13  17
ENDBRANCH  12  13
ENDBRANCH   1  12
BRANCH  10  19
ATOM     19  S   UNL     1       2.217   3.138  -0.337  0.00  0.00    -0.041 S 
BRANCH  19  20
ATOM     20  C   UNL     1       0.628   3.798  -0.716  0.00  0.00    +0.165 A 
ATOM     21  N   UNL     1      -0.515   3.168  -0.905  0.00  0.00    -0.134 NA
ATOM     22  N   UNL     1      -1.652   3.885  -1.195  0.00  0.00    -0.134 NA
ATOM     23  C   UNL     1      -1.594   5.201  -1.283  0.00  0.00    +0.159 A 
ATOM     24  S   UNL     1       0.134   5.500  -0.941  0.00  0.00    -0.033 S 
BRANCH  23  25
ATOM     25  S   UNL     1      -2.877   6.355  -1.637  0.00  0.00    -0.100 S 
ATOM     26  C   UNL     1      -4.349   5.319  -1.863  0.00  0.00    +0.092 C 
ENDBRANCH  23  25
ENDBRANCH  19  20
ENDBRANCH  10  19
TORSDOF 7
