REMARK  Name = ZINC36530479
REMARK  11 active torsions:
REMARK  status: ('A' for Active; 'I' for Inactive)
REMARK    1  A    between atoms: C_1  and  C_2
REMARK    2  A    between atoms: C_2  and  C_3
REMARK    3  A    between atoms: C_2  and  C_4
REMARK    4  A    between atoms: C_2  and  N_5
REMARK    5  A    between atoms: C_6  and  C_8
REMARK    6  A    between atoms: C_8  and  C_10
REMARK    7  A    between atoms: C_8  and  N_20
REMARK    8  A    between atoms: C_12  and  N_17
REMARK    9  A    between atoms: N_20  and  C_21
REMARK   10  A    between atoms: C_22  and  C_24
REMARK   11  A    between atoms: C_25  and  C_26
REMARK                            x       y       z     vdW  Elec       q    Type
REMARK                         _______ _______ _______ _____ _____    ______ ____
ROOT
ATOM      1  C   UNL     1       2.640  -0.615  -2.680  0.00  0.00    +0.194 C 
ENDROOT
BRANCH   1   2
ATOM      2  C   UNL     1       2.487  -2.113  -2.712  0.00  0.00    +0.002 A 
ATOM      3  C   UNL     1       2.203  -2.804  -1.549  0.00  0.00    +0.040 A 
ATOM      4  C   UNL     1       2.063  -4.179  -1.578  0.00  0.00    +0.127 A 
ATOM      5  C   UNL     1       2.208  -4.864  -2.770  0.00  0.00    +0.034 A 
ATOM      6  C   UNL     1       2.492  -4.175  -3.934  0.00  0.00    +0.022 A 
ATOM      7  C   UNL     1       2.627  -2.798  -3.906  0.00  0.00    +0.047 A 
ATOM      8 CL   UNL     1       2.977  -1.930  -5.369  0.00  0.00    -0.083 Cl
BRANCH   4   9
ATOM      9  N   UNL     1       1.759  -4.918  -0.333  0.00  0.00    +0.056 N 
ATOM     10  O   UNL     1       1.632  -4.319   0.710  0.00  0.00    -0.126 OA
ATOM     11  O   UNL     1       1.637  -6.120  -0.357  0.00  0.00    -0.126 OA
ENDBRANCH   4   9
ENDBRANCH   1   2
BRANCH   1  13
ATOM     12  N   UNL     1       0.730  -0.275  -1.146  0.00  0.00    -0.309 N 
ATOM     13  C   UNL     1       2.037  -0.075  -1.409  0.00  0.00    +0.239 C 
ATOM     14  O   UNL     1       2.727   0.539  -0.623  0.00  0.00    -0.273 OA
ATOM     15  H   UNL     1       0.178  -0.766  -1.775  0.00  0.00    +0.149 HD
BRANCH  12  17
ATOM     16  C   UNL     1       0.298   1.772   0.122  0.00  0.00    +0.031 C 
ATOM     17  C   UNL     1       0.143   0.250   0.089  0.00  0.00    +0.026 C 
ATOM     18  C   UNL     1       0.861  -0.362   1.294  0.00  0.00    +0.031 C 
ATOM     19  C   UNL     1      -1.342  -0.113   0.142  0.00  0.00    +0.031 C 
ENDBRANCH  12  17
ENDBRANCH   1  13
BRANCH   1  20
ATOM     20  N   UNL     1       4.063  -0.267  -2.731  0.00  0.00    -0.278 N 
ATOM     21  C   UNL     1       4.992  -0.840  -1.754  0.00  0.00    +0.134 C 
ATOM     22  C   UNL     1       4.517   0.579  -3.677  0.00  0.00    +0.292 C 
ATOM     23  O   UNL     1       3.745   1.055  -4.489  0.00  0.00    -0.260 OA
BRANCH  22  24
ATOM     24  C   UNL     1       5.907   0.918  -3.727  0.00  0.00    -0.003 C 
ATOM     25  C   UNL     1       7.047   1.196  -3.767  0.00  0.00    -0.057 C 
BRANCH  25  26
ATOM     26  C   UNL     1       8.437   1.535  -3.817  0.00  0.00    +0.025 A 
ATOM     27  C   UNL     1       9.328   0.986  -2.889  0.00  0.00    +0.017 A 
ATOM     28  C   UNL     1      10.665   1.317  -2.944  0.00  0.00    +0.001 A 
ATOM     29  C   UNL     1      11.127   2.191  -3.913  0.00  0.00    +0.000 A 
ATOM     30  C   UNL     1      10.251   2.739  -4.834  0.00  0.00    +0.001 A 
ATOM     31  C   UNL     1       8.912   2.413  -4.796  0.00  0.00    +0.017 A 
ENDBRANCH  25  26
ENDBRANCH  22  24
ENDBRANCH   1  20
TORSDOF 7
