REMARK  Name = ZINC63281320
REMARK  9 active torsions:
REMARK  status: ('A' for Active; 'I' for Inactive)
REMARK    1  A    between atoms: C_1  and  C_2
REMARK    2  A    between atoms: C_2  and  C_3
REMARK    3  A    between atoms: C_3  and  C_4
REMARK    4  A    between atoms: C_4  and  C_6
REMARK    5  A    between atoms: C_4  and  N_19
REMARK    6  A    between atoms: C_14  and  O_16
REMARK    7  A    between atoms: O_16  and  C_17
REMARK    8  A    between atoms: C_17  and  C_18
REMARK    9  A    between atoms: C_20  and  C_22
REMARK                            x       y       z     vdW  Elec       q    Type
REMARK                         _______ _______ _______ _____ _____    ______ ____
ROOT
ATOM      1  C   UNL     1       0.763  -2.041   1.233  0.00  0.00    +0.159 C 
ENDROOT
BRANCH   1   2
ATOM      2  C   UNL     1       1.693  -2.536   2.310  0.00  0.00    +0.236 C 
ATOM      3  O   UNL     1       1.241  -3.006   3.333  0.00  0.00    -0.274 OA
ATOM      4  N   UNL     1       3.027  -2.457   2.137  0.00  0.00    -0.297 N 
ATOM      5  C   UNL     1       3.590  -1.786   0.957  0.00  0.00    +0.127 C 
ATOM      6  C   UNL     1       4.559  -0.695   1.428  0.00  0.00    +0.130 C 
ATOM      7  N   UNL     1       5.477  -1.277   2.417  0.00  0.00    -0.264 N 
ATOM      8  C   UNL     1       4.915  -1.948   3.597  0.00  0.00    +0.130 C 
ATOM      9  C   UNL     1       3.946  -3.035   3.128  0.00  0.00    +0.127 C 
ATOM     10  C   UNL     1       6.811  -1.198   2.244  0.00  0.00    +0.403 C 
ATOM     11  O   UNL     1       7.265  -0.641   1.263  0.00  0.00    -0.226 OA
BRANCH  10  12
ATOM     12  O   UNL     1       7.642  -1.736   3.157  0.00  0.00    -0.451 OA
BRANCH  12  13
ATOM     13  C   UNL     1       9.044  -1.615   2.909  0.00  0.00    +0.230 C 
ATOM     14  C   UNL     1       9.822  -2.281   4.046  0.00  0.00    +0.048 C 
ENDBRANCH  12  13
ENDBRANCH  10  12
ENDBRANCH   1   2
BRANCH   1  15
ATOM     15  N   UNL     1      -0.513  -2.756   1.323  0.00  0.00    -0.302 N 
ATOM     16  C   UNL     1      -1.295  -2.879   0.232  0.00  0.00    +0.240 C 
ATOM     17  O   UNL     1      -0.942  -2.398  -0.824  0.00  0.00    -0.273 OA
ATOM     18  H   UNL     1      -0.795  -3.141   2.168  0.00  0.00    +0.150 HD
BRANCH  16  19
ATOM     19  C   UNL     1      -2.607  -3.614   0.325  0.00  0.00    +0.190 C 
ATOM     20  C   UNL     1      -3.533  -2.909   1.290  0.00  0.00    +0.016 C 
ATOM     21  C   UNL     1      -4.618  -2.544   0.570  0.00  0.00    -0.004 A 
ATOM     22  C   UNL     1      -5.854  -1.836   0.923  0.00  0.00    +0.010 A 
ATOM     23  C   UNL     1      -6.779  -1.612  -0.037  0.00  0.00    +0.001 A 
ATOM     24  C   UNL     1      -6.588  -2.038  -1.359  0.00  0.00    +0.002 A 
ATOM     25  C   UNL     1      -5.479  -2.694  -1.760  0.00  0.00    +0.026 A 
ATOM     26  C   UNL     1      -4.440  -2.983  -0.833  0.00  0.00    +0.043 A 
ATOM     27  N   UNL     1      -3.289  -3.597  -0.974  0.00  0.00    -0.370 N 
ATOM     28  H   UNL     1      -2.946  -3.976  -1.799  0.00  0.00    +0.161 HD
ENDBRANCH  16  19
ENDBRANCH   1  15
BRANCH   1  29
ATOM     29  C   UNL     1       0.521  -0.542   1.417  0.00  0.00    +0.031 C 
BRANCH  29  31
ATOM     30  C   UNL     1      -0.547   1.489   0.429  0.00  0.00    +0.004 C 
ATOM     31  C   UNL     1      -0.306  -0.010   0.245  0.00  0.00    -0.001 C 
ENDBRANCH  29  31
ENDBRANCH   1  29
TORSDOF 7
