REMARK  Name = ZINC50377068
REMARK  6 active torsions:
REMARK  status: ('A' for Active; 'I' for Inactive)
REMARK    1  A    between atoms: C_1  and  O_2
REMARK    2  A    between atoms: O_2  and  C_3
REMARK    3  A    between atoms: C_8  and  N_10
REMARK    4  A    between atoms: C_11  and  C_15
REMARK    5  A    between atoms: C_17  and  N_22
REMARK    6  A    between atoms: C_19  and  N_21
REMARK                            x       y       z     vdW  Elec       q    Type
REMARK                         _______ _______ _______ _____ _____    ______ ____
ROOT
ATOM      1  N   UNL     1       2.790  -2.311  -1.056  0.00  0.00    -0.220 N 
ATOM      2  C   UNL     1       3.710  -2.016  -0.105  0.00  0.00    +0.182 A 
ATOM      3  N   UNL     1       4.774  -1.554  -0.727  0.00  0.00    -0.108 NA
ATOM      4  N   UNL     1       4.583  -1.542  -1.996  0.00  0.00    -0.023 NA
ATOM      5  N   UNL     1       3.408  -1.990  -2.278  0.00  0.00    -0.043 NA
ENDROOT
BRANCH   2   6
ATOM      6  C   UNL     1       3.547  -2.180   1.357  0.00  0.00    +0.024 A 
ATOM      7  C   UNL     1       2.290  -2.035   1.941  0.00  0.00    +0.034 A 
ATOM      8  C   UNL     1       2.141  -2.190   3.312  0.00  0.00    +0.027 A 
ATOM      9  C   UNL     1       3.243  -2.489   4.102  0.00  0.00    +0.045 A 
ATOM     10  C   UNL     1       4.497  -2.633   3.524  0.00  0.00    +0.027 A 
ATOM     11  C   UNL     1       4.651  -2.486   2.153  0.00  0.00    +0.034 A 
BRANCH  10  12
ATOM     12  N   UNL     1       5.603  -2.934   4.322  0.00  0.00    -0.358 N 
ATOM     13  H   UNL     1       5.495  -3.041   5.280  0.00  0.00    +0.142 HD
ATOM     14  H   UNL     1       6.479  -3.035   3.918  0.00  0.00    +0.142 HD
ENDBRANCH  10  12
BRANCH   8  15
ATOM     15  N   UNL     1       0.881  -2.044   3.897  0.00  0.00    -0.358 N 
ATOM     16  H   UNL     1       0.111  -1.835   3.346  0.00  0.00    +0.142 HD
ATOM     17  H   UNL     1       0.776  -2.152   4.856  0.00  0.00    +0.142 HD
ENDBRANCH   8  15
ENDBRANCH   2   6
BRANCH   1  22
ATOM     18  C   UNL     1       0.389  -1.814  -1.271  0.00  0.00    +0.142 C 
ATOM     19  C   UNL     1      -0.430  -2.449  -2.414  0.00  0.00    +0.034 C 
ATOM     20  C   UNL     1       0.519  -3.516  -3.014  0.00  0.00    +0.005 C 
ATOM     21  C   UNL     1       1.229  -4.085  -1.760  0.00  0.00    +0.029 C 
ATOM     22  C   UNL     1       1.444  -2.854  -0.855  0.00  0.00    +0.140 C 
BRANCH  18  24
ATOM     23  C   UNL     1      -1.001  -0.190  -0.187  0.00  0.00    +0.194 C 
ATOM     24  O   UNL     1      -0.465  -1.514  -0.165  0.00  0.00    -0.378 OA
ENDBRANCH  18  24
ENDBRANCH   1  22
TORSDOF 5
