REMARK  Name = ZINC40708909
REMARK  5 active torsions:
REMARK  status: ('A' for Active; 'I' for Inactive)
REMARK    1  A    between atoms: C_2  and  C_3
REMARK    2  A    between atoms: C_3  and  N_4
REMARK    3  A    between atoms: C_6  and  N_22
REMARK    4  A    between atoms: C_7  and  N_11
REMARK    5  A    between atoms: N_11  and  C_12
REMARK                            x       y       z     vdW  Elec       q    Type
REMARK                         _______ _______ _______ _____ _____    ______ ____
ROOT
ATOM      1  N   UNL     1      -1.318  -1.700  -1.126  0.00  0.00    -0.324 N 
ATOM      2  C   UNL     1      -2.419  -2.523  -1.328  0.00  0.00    +0.145 A 
ATOM      3  C   UNL     1      -2.452  -3.412  -2.404  0.00  0.00    +0.105 A 
ATOM      4  C   UNL     1      -3.582  -4.216  -2.560  0.00  0.00    +0.145 A 
ATOM      5  N   UNL     1      -4.578  -4.106  -1.684  0.00  0.00    -0.219 NA
ATOM      6  C   UNL     1      -4.507  -3.254  -0.682  0.00  0.00    +0.225 A 
ATOM      7  N   UNL     1      -3.456  -2.480  -0.496  0.00  0.00    -0.219 NA
ATOM      8  H   UNL     1      -0.566  -1.737  -1.737  0.00  0.00    +0.148 HD
ENDROOT
BRANCH   3   9
ATOM      9  N   UNL     1      -1.377  -3.495  -3.304  0.00  0.00    -0.353 N 
ATOM     10  H   UNL     1      -0.598  -2.929  -3.183  0.00  0.00    +0.143 HD
ATOM     11  H   UNL     1      -1.414  -4.117  -4.048  0.00  0.00    +0.143 HD
ENDBRANCH   3   9
BRANCH   4  12
ATOM     12  N   UNL     1      -3.666  -5.118  -3.614  0.00  0.00    -0.322 N 
ATOM     13  H   UNL     1      -2.935  -5.192  -4.249  0.00  0.00    +0.148 HD
BRANCH  12  14
ATOM     14  C   UNL     1      -4.857  -5.957  -3.768  0.00  0.00    +0.034 C 
ATOM     15  C   UNL     1      -6.088  -5.066  -3.944  0.00  0.00    +0.029 C 
ATOM     16  C   UNL     1      -7.332  -5.942  -4.104  0.00  0.00    -0.008 C 
ATOM     17  C   UNL     1      -7.171  -6.838  -5.334  0.00  0.00    +0.007 C 
ATOM     18  C   UNL     1      -5.939  -7.729  -5.158  0.00  0.00    -0.008 C 
ATOM     19  C   UNL     1      -4.695  -6.853  -4.997  0.00  0.00    +0.029 C 
ATOM     20  C   UNL     1      -6.114  -8.599  -3.912  0.00  0.00    +0.007 C 
ATOM     21  C   UNL     1      -6.276  -7.703  -2.682  0.00  0.00    -0.008 C 
ATOM     22  C   UNL     1      -7.507  -6.813  -2.858  0.00  0.00    +0.007 C 
ATOM     23  C   UNL     1      -5.032  -6.827  -2.522  0.00  0.00    +0.029 C 
ENDBRANCH  12  14
ENDBRANCH   4  12
BRANCH   1  24
ATOM     24  C   UNL     1      -1.293  -0.775   0.010  0.00  0.00    +0.130 C 
BRANCH  24  26
ATOM     25  C   UNL     1      -0.016   1.306   0.009  0.00  0.00    +0.005 C 
ATOM     26  C   UNL     1       0.002  -0.004   0.002  0.00  0.00    -0.016 C 
ENDBRANCH  24  26
ENDBRANCH   1  24
TORSDOF 5
