REMARK  Name = ZINC41159786
REMARK  6 active torsions:
REMARK  status: ('A' for Active; 'I' for Inactive)
REMARK    1  A    between atoms: C_1  and  C_2
REMARK    2  A    between atoms: C_4  and  C_29
REMARK    3  A    between atoms: C_9  and  C_14
REMARK    4  A    between atoms: C_14  and  N_15
REMARK    5  A    between atoms: N_15  and  S_16
REMARK    6  A    between atoms: S_16  and  C_19
REMARK                            x       y       z     vdW  Elec       q    Type
REMARK                         _______ _______ _______ _____ _____    ______ ____
ROOT
ATOM      1  C   UNL     1       0.089  -5.020   3.624  0.00  0.00    +0.146 C 
ENDROOT
BRANCH   1  10
ATOM      2  C   UNL     1      -0.018   1.503   0.010  0.00  0.00    +0.044 C 
ATOM      3  C   UNL     1       0.002  -0.004   0.002  0.00  0.00    -0.050 A 
ATOM      4  C   UNL     1       0.006  -0.685  -1.208  0.00  0.00    +0.008 A 
ATOM      5  C   UNL     1       0.024  -2.063  -1.239  0.00  0.00    -0.026 A 
ATOM      6  C   UNL     1       0.040  -2.780  -0.047  0.00  0.00    +0.052 A 
ATOM      7  C   UNL     1       0.037  -2.086   1.177  0.00  0.00    -0.001 A 
ATOM      8  C   UNL     1       0.023  -0.687   1.185  0.00  0.00    +0.013 A 
ATOM      9  C   UNL     1       0.053  -2.850   2.426  0.00  0.00    +0.020 A 
ATOM     10  C   UNL     1       0.072  -4.204   2.357  0.00  0.00    +0.033 A 
ATOM     11  C   UNL     1       0.074  -4.852   1.103  0.00  0.00    +0.254 A 
ATOM     12  O   UNL     1       0.091  -6.070   1.064  0.00  0.00    -0.268 OA
ATOM     13  N   UNL     1       0.059  -4.159  -0.049  0.00  0.00    -0.322 N 
ATOM     14  H   UNL     1       0.061  -4.636  -0.893  0.00  0.00    +0.169 HD
ATOM     15  C   UNL     1       0.027  -2.790  -2.559  0.00  0.00    +0.046 C 
ENDBRANCH   1  10
BRANCH   1  16
ATOM     16  N   UNL     1      -1.280  -5.404   3.976  0.00  0.00    -0.185 NA
ATOM     17  H   UNL     1      -2.032  -4.959   3.556  0.00  0.00    +0.148 HD
BRANCH  16  18
ATOM     18  S   UNL     1      -1.543  -6.599   5.092  0.00  0.00    +0.059 S 
ATOM     19  O   UNL     1      -2.952  -6.719   5.234  0.00  0.00    -0.153 OA
ATOM     20  O   UNL     1      -0.720  -7.695   4.716  0.00  0.00    -0.153 OA
BRANCH  18  21
ATOM     21  C   UNL     1      -0.930  -6.014   6.637  0.00  0.00    +0.109 A 
ATOM     22  C   UNL     1       0.391  -6.252   6.988  0.00  0.00    +0.031 A 
ATOM     23  C   UNL     1       0.884  -5.800   8.192  0.00  0.00    +0.033 A 
ATOM     24  C   UNL     1       0.049  -5.099   9.062  0.00  0.00    +0.113 A 
ATOM     25  C   UNL     1      -1.286  -4.860   8.704  0.00  0.00    +0.161 A 
ATOM     26  C   UNL     1      -1.765  -5.317   7.486  0.00  0.00    +0.077 A 
ATOM     27  O   UNL     1      -1.839  -4.170   9.728  0.00  0.00    -0.406 OA
ATOM     28  C   UNL     1      -0.897  -3.992  10.669  0.00  0.00    +0.441 A 
ATOM     29  O   UNL     1      -1.086  -3.343  11.840  0.00  0.00    -0.221 OA
ATOM     30  N   UNL     1       0.228  -4.536  10.289  0.00  0.00    -0.172 NA
ENDBRANCH  18  21
ENDBRANCH  16  18
ENDBRANCH   1  16
TORSDOF 4
