REMARK  Name = ZINC39634836
REMARK  16 active torsions:
REMARK  status: ('A' for Active; 'I' for Inactive)
REMARK    1  A    between atoms: C_1  and  C_2
REMARK    2  A    between atoms: C_4  and  C_11
REMARK    3  A    between atoms: N_5  and  C_7
REMARK    4  A    between atoms: C_7  and  C_8
REMARK    5  A    between atoms: C_7  and  C_9
REMARK    6  A    between atoms: C_7  and  C_10
REMARK    7  A    between atoms: C_15  and  C_24
REMARK    8  A    between atoms: N_26  and  C_27
REMARK    9  A    between atoms: C_27  and  C_28
REMARK   10  A    between atoms: C_28  and  N_29
REMARK   11  A    between atoms: N_29  and  C_30
REMARK   12  A    between atoms: N_29  and  C_33
REMARK   13  A    between atoms: C_30  and  C_31
REMARK   14  A    between atoms: C_30  and  C_32
REMARK   15  A    between atoms: C_33  and  C_34
REMARK   16  A    between atoms: C_33  and  C_35
REMARK                            x       y       z     vdW  Elec       q    Type
REMARK                         _______ _______ _______ _____ _____    ______ ____
ROOT
ATOM      1  C   UNL     1      -0.275  -3.557  -0.355  0.00  0.00    +0.265 C 
ATOM      2  O   UNL     1      -0.582  -3.672  -1.526  0.00  0.00    -0.268 OA
ATOM      3  N   UNL     1      -0.472  -4.583   0.497  0.00  0.00    -0.295 N 
ATOM      4  C   UNL     1      -0.301  -4.587   1.969  0.00  0.00    +0.121 C 
ATOM      5  C   UNL     1      -1.479  -5.437   2.496  0.00  0.00    +0.100 C 
ATOM      6  C   UNL     1      -1.872  -6.339   1.314  0.00  0.00    -0.004 C 
ATOM      7  C   UNL     1      -0.916  -5.960   0.173  0.00  0.00    +0.115 C 
ATOM      8  C   UNL     1      -1.695  -7.807   1.687  0.00  0.00    -0.010 C 
ATOM      9  C   UNL     1      -2.148  -8.685   0.517  0.00  0.00    -0.082 C 
ATOM     10  N   UNL     1      -3.555  -8.404   0.207  0.00  0.00    +0.379 N 
ATOM     11  C   UNL     1      -3.701  -7.014  -0.240  0.00  0.00    -0.082 C 
ATOM     12  C   UNL     1      -3.314  -6.066   0.898  0.00  0.00    -0.010 C 
ATOM     13  H   UNL     1      -3.868  -9.026  -0.523  0.00  0.00    -0.086 HD
ATOM     14  H   UNL     1      -4.115  -8.551   1.033  0.00  0.00    -0.086 HD
ENDROOT
BRANCH   1  18
ATOM     15  C   UNL     1       1.954   0.002   2.489  0.00  0.00    +0.067 C 
ATOM     16  C   UNL     1       1.283  -0.736   1.359  0.00  0.00    +0.061 A 
ATOM     17  C   UNL     1       0.868  -2.069   1.379  0.00  0.00    +0.057 A 
ATOM     18  C   UNL     1       0.312  -2.299   0.132  0.00  0.00    +0.124 A 
ATOM     19  N   UNL     1       0.418  -1.123  -0.555  0.00  0.00    -0.254 N 
ATOM     20  N   UNL     1       0.980  -0.238   0.187  0.00  0.00    -0.175 NA
BRANCH  19  21
ATOM     21  C   UNL     1      -0.045  -0.903  -1.928  0.00  0.00    +0.056 C 
ATOM     22  C   UNL     1      -1.531  -1.252  -2.027  0.00  0.00    +0.036 C 
ATOM     23  C   UNL     1       0.160   0.565  -2.306  0.00  0.00    +0.036 C 
ATOM     24  C   UNL     1       0.753  -1.792  -2.884  0.00  0.00    +0.036 C 
ENDBRANCH  19  21
ENDBRANCH   1  18
BRANCH   5  25
ATOM     25  C   UNL     1      -2.632  -4.551   2.889  0.00  0.00    +0.218 C 
ATOM     26  O   UNL     1      -2.855  -3.534   2.266  0.00  0.00    -0.275 OA
ATOM     27  N   UNL     1      -3.415  -4.887   3.933  0.00  0.00    -0.317 N 
ATOM     28  H   UNL     1      -3.194  -5.660   4.476  0.00  0.00    +0.149 HD
BRANCH  27  29
ATOM     29  C   UNL     1      -4.600  -4.085   4.248  0.00  0.00    +0.085 C 
BRANCH  29  30
ATOM     30  C   UNL     1      -5.307  -4.678   5.469  0.00  0.00    -0.059 C 
BRANCH  30  31
ATOM     31  N   UNL     1      -6.554  -3.941   5.718  0.00  0.00    +0.384 N 
ATOM     32  H   UNL     1      -7.124  -3.955   4.886  0.00  0.00    -0.081 HD
BRANCH  31  33
ATOM     33  C   UNL     1      -7.284  -4.576   6.824  0.00  0.00    -0.074 C 
ATOM     34  C   UNL     1      -8.642  -3.892   6.996  0.00  0.00    -0.014 C 
ATOM     35  C   UNL     1      -7.496  -6.058   6.510  0.00  0.00    -0.014 C 
ENDBRANCH  31  33
BRANCH  31  36
ATOM     36  C   UNL     1      -6.239  -2.551   6.074  0.00  0.00    -0.074 C 
ATOM     37  C   UNL     1      -4.911  -2.507   6.832  0.00  0.00    -0.014 C 
ATOM     38  C   UNL     1      -6.126  -1.712   4.799  0.00  0.00    -0.014 C 
ENDBRANCH  31  36
ENDBRANCH  30  31
ENDBRANCH  29  30
ENDBRANCH  27  29
ENDBRANCH   5  25
TORSDOF 8
