REMARK  Name = ZINC39536955
REMARK  9 active torsions:
REMARK  status: ('A' for Active; 'I' for Inactive)
REMARK    1  A    between atoms: C_1  and  C_2
REMARK    2  A    between atoms: N_5  and  C_8
REMARK    3  A    between atoms: C_8  and  C_9
REMARK    4  A    between atoms: N_13  and  C_14
REMARK    5  A    between atoms: C_14  and  C_15
REMARK    6  A    between atoms: N_17  and  C_18
REMARK    7  A    between atoms: N_17  and  C_25
REMARK    8  A    between atoms: C_18  and  C_19
REMARK    9  A    between atoms: C_25  and  C_26
REMARK                            x       y       z     vdW  Elec       q    Type
REMARK                         _______ _______ _______ _____ _____    ______ ____
ROOT
ATOM      1  C   UNL     1      -2.256  -4.034   4.464  0.00  0.00    +0.243 C 
ENDROOT
BRANCH   1   6
ATOM      2  C   UNL     1      -0.037  -4.014   3.292  0.00  0.00    +0.136 A 
ATOM      3  N   UNL     1       1.209  -4.162   3.673  0.00  0.00    -0.115 NA
ATOM      4  N   UNL     1       1.214  -4.367   4.945  0.00  0.00    -0.023 NA
ATOM      5  N   UNL     1       0.004  -4.353   5.385  0.00  0.00    -0.044 NA
ATOM      6  N   UNL     1      -0.796  -4.133   4.397  0.00  0.00    -0.222 N 
BRANCH   2   7
ATOM      7  C   UNL     1      -0.524  -3.754   1.889  0.00  0.00    +0.000 C 
BRANCH   7  12
ATOM      8  C   UNL     1      -0.052   1.622   0.047  0.00  0.00    +0.007 C 
ATOM      9  C   UNL     1       0.084   0.105   0.188  0.00  0.00    -0.018 C 
ATOM     10  C   UNL     1      -1.301  -0.543   0.109  0.00  0.00    -0.016 C 
ATOM     11  C   UNL     1      -1.166  -2.051   0.329  0.00  0.00    -0.078 C 
ATOM     12  N   UNL     1      -0.579  -2.306   1.651  0.00  0.00    +0.384 N 
ATOM     13  C   UNL     1       0.778  -1.749   1.709  0.00  0.00    -0.078 C 
ATOM     14  C   UNL     1       0.717  -0.229   1.541  0.00  0.00    -0.016 C 
ATOM     15  H   UNL     1      -1.151  -1.872   2.360  0.00  0.00    -0.081 HD
ENDBRANCH   7  12
ENDBRANCH   2   7
ENDBRANCH   1   6
BRANCH   1  16
ATOM     16  C   UNL     1      -2.861  -5.400   4.265  0.00  0.00    +0.237 C 
ATOM     17  O   UNL     1      -2.150  -6.346   3.998  0.00  0.00    -0.274 OA
ATOM     18  N   UNL     1      -4.193  -5.571   4.383  0.00  0.00    -0.297 N 
BRANCH  18  19
ATOM     19  C   UNL     1      -4.769  -6.915   4.298  0.00  0.00    +0.139 C 
BRANCH  19  20
ATOM     20  C   UNL     1      -4.733  -7.573   5.679  0.00  0.00    +0.136 C 
ATOM     21  C   UNL     1      -5.280  -9.021   5.599  0.00  0.00    +0.035 C 
ATOM     22  C   UNL     1      -4.582  -9.668   6.826  0.00  0.00    +0.031 C 
ATOM     23  C   UNL     1      -3.222  -8.937   6.853  0.00  0.00    +0.160 C 
ATOM     24  O   UNL     1      -3.377  -7.707   6.133  0.00  0.00    -0.375 OA
ENDBRANCH  19  20
ENDBRANCH  18  19
BRANCH  18  25
ATOM     25  C   UNL     1      -5.064  -4.412   4.596  0.00  0.00    +0.111 C 
BRANCH  25  26
ATOM     26  C   UNL     1      -5.136  -4.096   6.091  0.00  0.00    +0.006 C 
ATOM     27  C   UNL     1      -6.256  -4.849   6.827  0.00  0.00    +0.005 C 
ATOM     28  C   UNL     1      -6.508  -3.551   7.611  0.00  0.00    +0.001 C 
ATOM     29  C   UNL     1      -5.903  -2.802   6.412  0.00  0.00    +0.005 C 
ENDBRANCH  25  26
ENDBRANCH  18  25
ENDBRANCH   1  16
TORSDOF 8
