REMARK  Name = ZINC65385529
REMARK  1 active torsions:
REMARK  status: ('A' for Active; 'I' for Inactive)
REMARK    1  A    between atoms: C_11  and  C_14
REMARK                            x       y       z     vdW  Elec       q    Type
REMARK                         _______ _______ _______ _____ _____    ______ ____
ROOT
ATOM      1  C   UNL     1       5.175  -3.375  -0.070  0.00  0.00    +0.070 C 
ATOM      2  C   UNL     1       5.638  -4.069  -1.342  0.00  0.00    +0.109 C 
ATOM      3  C   UNL     1       7.131  -4.013  -1.459  0.00  0.00    +0.214 C 
ATOM      4  O   UNL     1       7.624  -3.337  -2.337  0.00  0.00    -0.276 OA
ATOM      5  N   UNL     1       7.934  -4.679  -0.635  0.00  0.00    -0.310 N 
ATOM      6  C   UNL     1       7.430  -5.669   0.302  0.00  0.00    +0.160 C 
ATOM      7  C   UNL     1       6.559  -5.039   1.370  0.00  0.00    +0.071 A 
ATOM      8  C   UNL     1       5.654  -4.072   1.160  0.00  0.00    +0.024 A 
ATOM      9  S   UNL     1       5.063  -3.740   2.812  0.00  0.00    -0.057 S 
ATOM     10  C   UNL     1       5.968  -4.910   3.611  0.00  0.00    +0.156 A 
ATOM     11  N   UNL     1       6.662  -5.447   2.647  0.00  0.00    -0.228 NA
ATOM     12  N   UNL     1       5.976  -5.223   4.962  0.00  0.00    -0.338 N 
ATOM     13  H   UNL     1       8.887  -4.498  -0.660  0.00  0.00    +0.149 HD
ATOM     14  H   UNL     1       5.406  -4.735   5.576  0.00  0.00    +0.144 HD
ATOM     15  H   UNL     1       6.553  -5.929   5.293  0.00  0.00    +0.144 HD
ENDROOT
BRANCH   1  26
ATOM     16  C   UNL     1      -0.017   1.375   0.010  0.00  0.00    +0.001 A 
ATOM     17  C   UNL     1       1.172   2.087   0.002  0.00  0.00    +0.004 A 
ATOM     18  C   UNL     1       2.384   1.429  -0.013  0.00  0.00    +0.047 A 
ATOM     19  C   UNL     1       2.423   0.040  -0.022  0.00  0.00    +0.136 A 
ATOM     20  C   UNL     1       1.219  -0.677  -0.014  0.00  0.00    +0.028 A 
ATOM     21  C   UNL     1       0.002  -0.004   0.002  0.00  0.00    +0.012 A 
ATOM     22  C   UNL     1       1.603  -2.102  -0.027  0.00  0.00    +0.028 A 
ATOM     23  C   UNL     1       0.889  -3.296  -0.027  0.00  0.00    +0.012 A 
ATOM     24  C   UNL     1       1.565  -4.497  -0.041  0.00  0.00    +0.001 A 
ATOM     25  C   UNL     1       2.951  -4.516  -0.056  0.00  0.00    +0.008 A 
ATOM     26  C   UNL     1       3.668  -3.338  -0.056  0.00  0.00    +0.004 A 
ATOM     27  C   UNL     1       3.004  -2.117  -0.041  0.00  0.00    +0.140 A 
ATOM     28  O   UNL     1       3.447  -0.841  -0.038  0.00  0.00    -0.455 OA
ENDBRANCH   1  26
TORSDOF 1
