REMARK  Name = ZINC19832587
REMARK  11 active torsions:
REMARK  status: ('A' for Active; 'I' for Inactive)
REMARK    1  A    between atoms: C_1  and  C_2
REMARK    2  A    between atoms: C_4  and  C_32
REMARK    3  A    between atoms: C_5  and  N_9
REMARK    4  A    between atoms: C_6  and  C_8
REMARK    5  A    between atoms: C_13  and  N_14
REMARK    6  A    between atoms: N_14  and  C_15
REMARK    7  A    between atoms: C_15  and  C_16
REMARK    8  A    between atoms: C_16  and  C_26
REMARK    9  A    between atoms: C_18  and  O_25
REMARK   10  A    between atoms: C_21  and  C_23
REMARK   11  A    between atoms: C_21  and  C_24
REMARK                            x       y       z     vdW  Elec       q    Type
REMARK                         _______ _______ _______ _____ _____    ______ ____
ROOT
ATOM      1  N   UNL     1      -0.012  -4.203  -0.744  0.00  0.00    -0.189 N 
ATOM      2  C   UNL     1      -1.163  -4.878  -0.544  0.00  0.00    +0.265 C 
ATOM      3  O   UNL     1      -2.238  -4.313  -0.604  0.00  0.00    -0.269 OA
ATOM      4  C   UNL     1      -1.081  -6.320  -0.252  0.00  0.00    +0.113 C 
ATOM      5  C   UNL     1      -2.218  -7.078  -0.036  0.00  0.00    +0.085 C 
ATOM      6  C   UNL     1       0.264  -6.920  -0.199  0.00  0.00    +0.258 C 
ATOM      7  O   UNL     1       0.411  -8.104   0.037  0.00  0.00    -0.270 OA
ATOM      8  N   UNL     1       1.327  -6.120  -0.419  0.00  0.00    -0.235 N 
ATOM      9  C   UNL     1       1.179  -4.815  -0.686  0.00  0.00    +0.320 C 
ATOM     10  O   UNL     1       2.178  -4.150  -0.880  0.00  0.00    -0.251 OA
ATOM     11  H   UNL     1       2.220  -6.498  -0.388  0.00  0.00    +0.159 HD
ENDROOT
BRANCH   1  16
ATOM     12  C   UNL     1      -0.223   1.354  -1.876  0.00  0.00    +0.044 C 
ATOM     13  C   UNL     1      -0.167  -0.121  -1.575  0.00  0.00    -0.050 A 
ATOM     14  C   UNL     1      -0.209  -1.038  -2.610  0.00  0.00    +0.008 A 
ATOM     15  C   UNL     1      -0.157  -2.391  -2.337  0.00  0.00    -0.028 A 
ATOM     16  C   UNL     1      -0.064  -2.830  -1.023  0.00  0.00    +0.052 A 
ATOM     17  C   UNL     1      -0.023  -1.907   0.013  0.00  0.00    -0.028 A 
ATOM     18  C   UNL     1      -0.069  -0.555  -0.266  0.00  0.00    +0.008 A 
ATOM     19  C   UNL     1       0.078  -2.380   1.440  0.00  0.00    +0.046 C 
ATOM     20  C   UNL     1      -0.203  -3.390  -3.465  0.00  0.00    +0.046 C 
ENDBRANCH   1  16
BRANCH   5  21
ATOM     21  N   UNL     1      -3.419  -6.476   0.069  0.00  0.00    -0.348 N 
ATOM     22  H   UNL     1      -3.478  -5.508   0.074  0.00  0.00    +0.146 HD
BRANCH  21  23
ATOM     23  C   UNL     1      -4.637  -7.284   0.175  0.00  0.00    +0.107 C 
BRANCH  23  24
ATOM     24  C   UNL     1      -5.865  -6.353   0.282  0.00  0.00    -0.014 C 
ATOM     25  C   UNL     1      -5.665  -5.464   1.504  0.00  0.00    +0.039 C 
ATOM     26  C   UNL     1      -6.932  -4.669   1.810  0.00  0.00    +0.116 C 
ATOM     27  C   UNL     1      -8.064  -5.646   2.122  0.00  0.00    +0.037 C 
ATOM     28  C   UNL     1      -8.351  -6.543   0.923  0.00  0.00    -0.032 C 
ATOM     29  C   UNL     1      -7.104  -7.223   0.390  0.00  0.00    +0.014 C 
ATOM     30  C   UNL     1      -9.053  -5.740  -0.176  0.00  0.00    +0.011 C 
ATOM     31  C   UNL     1      -9.332  -7.643   1.386  0.00  0.00    +0.011 C 
ATOM     32  C   UNL     1      -5.901  -5.497  -0.987  0.00  0.00    +0.013 C 
BRANCH  26  33
ATOM     33  O   UNL     1      -6.701  -3.840   2.955  0.00  0.00    -0.392 OA
ATOM     34  H   UNL     1      -7.462  -3.302   3.212  0.00  0.00    +0.210 HD
ENDBRANCH  26  33
ENDBRANCH  23  24
ENDBRANCH  21  23
ENDBRANCH   5  21
TORSDOF 5
