REMARK  Name = ZINC39534339
REMARK  9 active torsions:
REMARK  status: ('A' for Active; 'I' for Inactive)
REMARK    1  A    between atoms: C_4  and  O_7
REMARK    2  A    between atoms: O_7  and  S_8
REMARK    3  A    between atoms: S_8  and  C_11
REMARK    4  A    between atoms: C_14  and  C_17
REMARK    5  A    between atoms: C_17  and  C_19
REMARK    6  A    between atoms: C_17  and  N_28
REMARK    7  A    between atoms: C_19  and  N_20
REMARK    8  A    between atoms: N_20  and  C_21
REMARK    9  A    between atoms: C_26  and  O_27
REMARK                            x       y       z     vdW  Elec       q    Type
REMARK                         _______ _______ _______ _____ _____    ______ ____
ROOT
ATOM      1  C   UNL     1       0.945  -5.443   3.611  0.00  0.00    +0.104 C 
ENDROOT
BRANCH   1   2
ATOM      2  N   UNL     1       1.953  -6.436   4.004  0.00  0.00    -0.290 NA
ATOM      3  C   UNL     1       1.323  -7.718   4.351  0.00  0.00    +0.100 C 
ATOM      4  C   UNL     1       2.410  -8.745   4.677  0.00  0.00    +0.097 C 
ATOM      5  N   UNL     1       3.232  -8.248   5.789  0.00  0.00    -0.299 NA
ATOM      6  C   UNL     1       3.862  -6.967   5.443  0.00  0.00    +0.161 C 
ATOM      7  C   UNL     1       2.776  -5.939   5.117  0.00  0.00    +0.120 C 
ATOM      8 CL   UNL     1       4.844  -6.383   6.838  0.00  0.00    -0.104 Cl
ATOM      9  H   UNL     1       2.687  -8.167   6.633  0.00  0.00    +0.123 HD
ENDBRANCH   1   2
BRANCH   1  13
ATOM     10  C   UNL     1       2.890  -1.817   2.462  0.00  0.00    +0.128 A 
ATOM     11  C   UNL     1       1.722  -1.771   3.201  0.00  0.00    +0.031 A 
ATOM     12  C   UNL     1       1.093  -2.944   3.573  0.00  0.00    +0.007 A 
ATOM     13  C   UNL     1       1.630  -4.164   3.205  0.00  0.00    -0.029 A 
ATOM     14  C   UNL     1       2.797  -4.210   2.466  0.00  0.00    +0.007 A 
ATOM     15  C   UNL     1       3.425  -3.037   2.090  0.00  0.00    +0.031 A 
BRANCH  10  16
ATOM     16  S   UNL     1       3.692  -0.322   1.988  0.00  0.00    +0.151 S 
ATOM     17  O   UNL     1       5.057  -0.647   1.763  0.00  0.00    -0.131 OA
ATOM     18  O   UNL     1       3.290   0.669   2.924  0.00  0.00    -0.131 OA
BRANCH  16  19
ATOM     19  O   UNL     1       3.116   0.091   0.642  0.00  0.00    -0.342 OA
BRANCH  19  23
ATOM     20  C   UNL     1      -0.683   1.686   0.859  0.00  0.00    +0.000 A 
ATOM     21  C   UNL     1       0.420   2.514   0.959  0.00  0.00    +0.004 A 
ATOM     22  C   UNL     1       1.693   1.982   0.887  0.00  0.00    +0.048 A 
ATOM     23  C   UNL     1       1.865   0.616   0.714  0.00  0.00    +0.157 A 
ATOM     24  C   UNL     1       0.756  -0.212   0.614  0.00  0.00    +0.048 A 
ATOM     25  C   UNL     1      -0.514   0.324   0.687  0.00  0.00    +0.004 A 
ENDBRANCH  19  23
ENDBRANCH  16  19
ENDBRANCH  10  16
ENDBRANCH   1  13
BRANCH   1  26
ATOM     26  C   UNL     1       0.131  -5.981   2.433  0.00  0.00    +0.125 C 
BRANCH  26  27
ATOM     27  N   UNL     1      -0.926  -5.026   2.092  0.00  0.00    -0.339 N 
ATOM     28  H   UNL     1      -0.985  -4.180   2.563  0.00  0.00    +0.146 HD
BRANCH  27  29
ATOM     29  C   UNL     1      -1.851  -5.335   1.088  0.00  0.00    +0.069 A 
ATOM     30  C   UNL     1      -1.772  -6.547   0.418  0.00  0.00    +0.026 A 
ATOM     31  C   UNL     1      -2.687  -6.849  -0.573  0.00  0.00    +0.002 A 
ATOM     32  C   UNL     1      -3.682  -5.946  -0.899  0.00  0.00    +0.004 A 
ATOM     33  C   UNL     1      -3.767  -4.736  -0.236  0.00  0.00    +0.047 A 
ATOM     34  C   UNL     1      -2.857  -4.427   0.762  0.00  0.00    +0.138 A 
BRANCH  34  35
ATOM     35  O   UNL     1      -2.943  -3.240   1.419  0.00  0.00    -0.505 OA
ATOM     36  H   UNL     1      -2.438  -2.525   1.008  0.00  0.00    +0.292 HD
ENDBRANCH  34  35
ENDBRANCH  27  29
ENDBRANCH  26  27
ENDBRANCH   1  26
TORSDOF 9
