REMARK  Name = ZINC14475993
REMARK  4 active torsions:
REMARK  status: ('A' for Active; 'I' for Inactive)
REMARK    1  A    between atoms: C_1  and  C_2
REMARK    2  A    between atoms: C_9  and  C_18
REMARK    3  A    between atoms: C_20  and  N_25
REMARK    4  A    between atoms: C_23  and  O_24
REMARK                            x       y       z     vdW  Elec       q    Type
REMARK                         _______ _______ _______ _____ _____    ______ ____
ROOT
ATOM      1  C   UNL     1      -0.018   1.503   0.010  0.00  0.00    +0.045 C 
ATOM      2  C   UNL     1       0.002  -0.004   0.002  0.00  0.00    -0.029 A 
ATOM      3  C   UNL     1       0.006  -0.686  -1.198  0.00  0.00    +0.006 A 
ATOM      4  C   UNL     1       0.026  -2.068  -1.203  0.00  0.00    +0.020 A 
ATOM      5  C   UNL     1       0.049  -2.766  -0.011  0.00  0.00    +0.046 A 
ATOM      6  C   UNL     1       0.049  -2.088   1.201  0.00  0.00    -0.001 A 
ATOM      7  C   UNL     1       0.023  -0.705   1.205  0.00  0.00    +0.036 A 
ATOM      8  N   UNL     1      -0.003   0.004   2.400  0.00  0.00    -0.336 N 
ATOM      9  C   UNL     1      -0.024  -0.643   3.696  0.00  0.00    +0.108 C 
ATOM     10  C   UNL     1       0.470  -2.059   3.694  0.00  0.00    +0.029 C 
ATOM     11  C   UNL     1       0.095  -2.894   2.469  0.00  0.00    +0.050 C 
ATOM     12  C   UNL     1       1.244  -3.882   2.349  0.00  0.00    -0.023 C 
ATOM     13  C   UNL     1       2.284  -3.464   3.022  0.00  0.00    -0.030 C 
ATOM     14  C   UNL     1       2.010  -2.143   3.694  0.00  0.00    +0.033 C 
ATOM     15 CL   UNL     1       0.079  -4.502  -0.027  0.00  0.00    -0.083 Cl
ATOM     16  H   UNL     1      -0.008   0.974   2.365  0.00  0.00    +0.147 HD
ENDROOT
BRANCH   9  17
ATOM     17  C   UNL     1      -1.440  -0.635   4.210  0.00  0.00    +0.017 A 
ATOM     18  C   UNL     1      -2.498  -0.570   3.324  0.00  0.00    +0.041 A 
ATOM     19  C   UNL     1      -3.797  -0.563   3.796  0.00  0.00    +0.127 A 
ATOM     20  C   UNL     1      -4.042  -0.621   5.156  0.00  0.00    +0.036 A 
ATOM     21  C   UNL     1      -2.988  -0.686   6.046  0.00  0.00    +0.048 A 
ATOM     22  C   UNL     1      -1.683  -0.699   5.575  0.00  0.00    +0.122 A 
BRANCH  19  23
ATOM     23  N   UNL     1      -4.928  -0.492   2.844  0.00  0.00    +0.056 N 
ATOM     24  O   UNL     1      -4.715  -0.441   1.655  0.00  0.00    -0.126 OA
ATOM     25  O   UNL     1      -6.065  -0.486   3.256  0.00  0.00    -0.126 OA
ENDBRANCH  19  23
BRANCH  22  26
ATOM     26  O   UNL     1      -0.644  -0.769   6.448  0.00  0.00    -0.506 OA
ATOM     27  H   UNL     1      -0.323   0.093   6.747  0.00  0.00    +0.292 HD
ENDBRANCH  22  26
ENDBRANCH   9  17
TORSDOF 3
