REMARK  Name = ZINC41634505
REMARK  5 active torsions:
REMARK  status: ('A' for Active; 'I' for Inactive)
REMARK    1  A    between atoms: C_1  and  O_2
REMARK    2  A    between atoms: O_2  and  C_3
REMARK    3  A    between atoms: C_8  and  C_9
REMARK    4  A    between atoms: C_9  and  C_11
REMARK    5  A    between atoms: C_9  and  N_20
REMARK                            x       y       z     vdW  Elec       q    Type
REMARK                         _______ _______ _______ _____ _____    ______ ____
ROOT
ATOM      1  C   UNL     1       0.051  -2.828  -0.033  0.00  0.00    +0.009 C 
ENDROOT
BRANCH   1   2
ATOM      2  C   UNL     1      -1.419  -3.017  -0.305  0.00  0.00    +0.050 A 
ATOM      3  C   UNL     1      -2.471  -2.578   0.395  0.00  0.00    +0.282 A 
ATOM      4  N   UNL     1      -3.752  -2.855  -0.018  0.00  0.00    -0.170 N 
ATOM      5  C   UNL     1      -3.896  -3.587  -1.156  0.00  0.00    +0.199 A 
ATOM      6  S   UNL     1      -2.215  -3.880  -1.652  0.00  0.00    -0.050 S 
ATOM      7  N   UNL     1      -5.165  -3.762  -1.408  0.00  0.00    -0.208 NA
ATOM      8  C   UNL     1      -5.887  -3.163  -0.463  0.00  0.00    +0.246 A 
ATOM      9  N   UNL     1      -5.085  -2.600   0.400  0.00  0.00    -0.150 NA
ATOM     10  O   UNL     1      -2.271  -1.849   1.527  0.00  0.00    -0.265 OA
ENDBRANCH   1   2
BRANCH   1  11
ATOM     11  N   UNL     1       0.714  -4.139   0.008  0.00  0.00    +0.388 N 
ATOM     12  C   UNL     1       0.105  -4.958   1.064  0.00  0.00    -0.070 C 
ATOM     13  C   UNL     1       0.673  -6.380   0.997  0.00  0.00    +0.056 C 
ATOM     14  C   UNL     1       2.183  -6.291   1.062  0.00  0.00    +0.130 C 
ATOM     15  O   UNL     1       2.819  -6.987   1.816  0.00  0.00    -0.298 OA
ATOM     16  C   UNL     1       2.868  -5.297   0.146  0.00  0.00    +0.056 C 
ATOM     17  C   UNL     1       2.145  -3.952   0.274  0.00  0.00    -0.070 C 
ATOM     18  H   UNL     1       0.596  -4.601  -0.881  0.00  0.00    -0.080 HD
ENDBRANCH   1  11
BRANCH   1  24
ATOM     19  C   UNL     1       0.606  -0.607  -1.056  0.00  0.00    +0.122 A 
ATOM     20  C   UNL     1       1.173   0.161  -2.063  0.00  0.00    +0.046 A 
ATOM     21  C   UNL     1       1.786  -0.455  -3.136  0.00  0.00    +0.004 A 
ATOM     22  C   UNL     1       1.836  -1.835  -3.208  0.00  0.00    +0.000 A 
ATOM     23  C   UNL     1       1.271  -2.602  -2.207  0.00  0.00    +0.006 A 
ATOM     24  C   UNL     1       0.661  -1.991  -1.128  0.00  0.00    -0.014 A 
BRANCH  19  26
ATOM     25  C   UNL     1      -0.017   1.425   0.010  0.00  0.00    +0.277 C 
ATOM     26  O   UNL     1       0.002  -0.004   0.002  0.00  0.00    -0.495 OA
ENDBRANCH  19  26
ENDBRANCH   1  24
TORSDOF 4
