REMARK  Name = ZINC13422306
REMARK  8 active torsions:
REMARK  status: ('A' for Active; 'I' for Inactive)
REMARK    1  A    between atoms: C_1  and  C_2
REMARK    2  A    between atoms: C_2  and  C_4
REMARK    3  A    between atoms: C_2  and  O_15
REMARK    4  A    between atoms: N_6  and  C_7
REMARK    5  A    between atoms: C_7  and  C_13
REMARK    6  A    between atoms: O_15  and  C_16
REMARK    7  A    between atoms: C_19  and  C_24
REMARK    8  A    between atoms: C_21  and  C_22
REMARK                            x       y       z     vdW  Elec       q    Type
REMARK                         _______ _______ _______ _____ _____    ______ ____
ROOT
ATOM      1  C   UNL     1       2.906  -2.768  -1.628  0.00  0.00    +0.062 C 
ATOM      2  C   UNL     1       2.534  -2.664  -0.148  0.00  0.00    +0.256 C 
ENDROOT
BRANCH   2   3
ATOM      3  C   UNL     1       2.480  -4.044   0.455  0.00  0.00    +0.255 C 
ATOM      4  O   UNL     1       1.427  -4.487   0.863  0.00  0.00    -0.272 OA
ATOM      5  N   UNL     1       3.602  -4.786   0.541  0.00  0.00    -0.294 N 
ATOM      6  H   UNL     1       4.444  -4.431   0.215  0.00  0.00    +0.150 HD
BRANCH   5   7
ATOM      7  C   UNL     1       3.550  -6.128   1.127  0.00  0.00    +0.121 C 
ATOM      8  C   UNL     1       3.057  -6.034   2.572  0.00  0.00    +0.041 C 
ATOM      9  C   UNL     1       3.002  -7.435   3.184  0.00  0.00    +0.003 C 
ATOM     10  C   UNL     1       4.400  -8.056   3.162  0.00  0.00    +0.000 C 
ATOM     11  C   UNL     1       4.893  -8.150   1.716  0.00  0.00    +0.003 C 
ATOM     12  C   UNL     1       4.947  -6.749   1.104  0.00  0.00    +0.041 C 
BRANCH   7  13
ATOM     13  C   UNL     1       2.626  -6.968   0.347  0.00  0.00    +0.088 C 
ATOM     14  N   UNL     1       1.914  -7.617  -0.255  0.00  0.00    -0.194 NA
ENDBRANCH   7  13
ENDBRANCH   5   7
ENDBRANCH   2   3
BRANCH   2  15
ATOM     15  O   UNL     1       1.255  -2.039  -0.021  0.00  0.00    -0.479 OA
BRANCH  15  16
ATOM     16  C   UNL     1       1.230  -0.684  -0.015  0.00  0.00    +0.136 A 
ATOM     17  C   UNL     1       2.399   0.033  -0.242  0.00  0.00    +0.047 A 
ATOM     18  C   UNL     1       2.380   1.409  -0.237  0.00  0.00    +0.019 A 
ATOM     19  C   UNL     1       1.183   2.097  -0.003  0.00  0.00    +0.064 A 
ATOM     20  C   UNL     1       0.005   1.388   0.226  0.00  0.00    +0.034 A 
ATOM     21  C   UNL     1       0.024  -0.005   0.221  0.00  0.00    +0.105 A 
BRANCH  21  22
ATOM     22  C   UNL     1      -1.217  -0.763   0.462  0.00  0.00    +0.390 C 
ATOM     23  O   UNL     1      -1.198  -1.978   0.457  0.00  0.00    -0.240 OA
ATOM     24  O   UNL     1      -2.373  -0.108   0.687  0.00  0.00    -0.240 OA
ENDBRANCH  21  22
BRANCH  19  25
ATOM     25  C   UNL     1       1.168   3.572   0.001  0.00  0.00    +0.387 C 
ATOM     26  O   UNL     1       0.130   4.169   0.204  0.00  0.00    -0.241 OA
ATOM     27  O   UNL     1       2.307   4.257  -0.220  0.00  0.00    -0.241 OA
ENDBRANCH  19  25
ENDBRANCH  15  16
ENDBRANCH   2  15
TORSDOF 7
