REMARK  Name = ZINC54939616
REMARK  6 active torsions:
REMARK  status: ('A' for Active; 'I' for Inactive)
REMARK    1  A    between atoms: C_1  and  C_2
REMARK    2  A    between atoms: C_2  and  C_4
REMARK    3  A    between atoms: C_2  and  N_10
REMARK    4  A    between atoms: C_13  and  N_16
REMARK    5  A    between atoms: C_17  and  C_19
REMARK    6  A    between atoms: N_21  and  C_22
REMARK                            x       y       z     vdW  Elec       q    Type
REMARK                         _______ _______ _______ _____ _____    ______ ____
ROOT
ATOM      1  N   UNL     1       2.659  -3.495   1.604  0.00  0.00    -0.307 N 
ATOM      2  C   UNL     1       3.416  -4.241   2.433  0.00  0.00    +0.299 C 
ATOM      3  O   UNL     1       3.519  -3.933   3.603  0.00  0.00    -0.265 OA
ATOM      4  H   UNL     1       2.577  -3.742   0.669  0.00  0.00    +0.149 HD
ENDROOT
BRANCH   1   8
ATOM      5  N   UNL     1       0.746  -0.470   1.181  0.00  0.00    +0.385 N 
ATOM      6  C   UNL     1       2.179  -0.082   1.127  0.00  0.00    -0.076 C 
ATOM      7  C   UNL     1       2.888  -1.081   2.066  0.00  0.00    +0.002 C 
ATOM      8  C   UNL     1       1.961  -2.313   2.114  0.00  0.00    +0.055 C 
ATOM      9  C   UNL     1       0.770  -1.955   1.199  0.00  0.00    -0.056 C 
ATOM     10  H   UNL     1       0.313  -0.113   2.020  0.00  0.00    -0.081 HD
BRANCH   5  12
ATOM     11  C   UNL     1       0.025   1.548  -0.006  0.00  0.00    -0.008 C 
ATOM     12  C   UNL     1       0.036   0.018  -0.010  0.00  0.00    -0.041 C 
BRANCH  12  13
ATOM     13  C   UNL     1      -1.381  -0.495   0.004  0.00  0.00    -0.061 A 
ATOM     14  C   UNL     1      -2.090  -0.532   1.190  0.00  0.00    +0.002 A 
ATOM     15  C   UNL     1      -3.390  -1.003   1.203  0.00  0.00    +0.000 A 
ATOM     16  C   UNL     1      -3.980  -1.435   0.031  0.00  0.00    +0.000 A 
ATOM     17  C   UNL     1      -3.271  -1.397  -1.155  0.00  0.00    +0.000 A 
ATOM     18  C   UNL     1      -1.973  -0.923  -1.169  0.00  0.00    +0.002 A 
ENDBRANCH  12  13
ENDBRANCH   5  12
ENDBRANCH   1   8
BRANCH   2  19
ATOM     19  C   UNL     1       4.128  -5.446   1.913  0.00  0.00    +0.303 C 
ATOM     20  O   UNL     1       4.025  -5.754   0.743  0.00  0.00    -0.265 OA
ATOM     21  N   UNL     1       4.885  -6.192   2.742  0.00  0.00    -0.277 N 
ATOM     22  H   UNL     1       5.021  -5.910   3.660  0.00  0.00    +0.155 HD
BRANCH  21  23
ATOM     23  C   UNL     1       5.473  -7.368   2.281  0.00  0.00    +0.042 A 
ATOM     24  C   UNL     1       5.922  -7.458   0.980  0.00  0.00    +0.024 A 
ATOM     25  C   UNL     1       6.510  -8.627   0.509  0.00  0.00    +0.002 A 
ATOM     26  C   UNL     1       6.659  -9.714   1.317  0.00  0.00    +0.008 A 
ATOM     27  C   UNL     1       6.215  -9.664   2.649  0.00  0.00    -0.016 A 
ATOM     28  C   UNL     1       5.620  -8.477   3.142  0.00  0.00    +0.003 A 
ATOM     29  C   UNL     1       5.182  -8.427   4.474  0.00  0.00    +0.010 A 
ATOM     30  C   UNL     1       5.340  -9.515   5.277  0.00  0.00    +0.001 A 
ATOM     31  C   UNL     1       5.931 -10.682   4.795  0.00  0.00    +0.001 A 
ATOM     32  C   UNL     1       6.355 -10.770   3.505  0.00  0.00    +0.008 A 
ENDBRANCH  21  23
ENDBRANCH   2  19
TORSDOF 5
