REMARK  Name = ZINC21215996
REMARK  6 active torsions:
REMARK  status: ('A' for Active; 'I' for Inactive)
REMARK    1  A    between atoms: C_1  and  C_2
REMARK    2  A    between atoms: C_2  and  C_19
REMARK    3  A    between atoms: C_3  and  C_4
REMARK    4  A    between atoms: C_6  and  C_11
REMARK    5  A    between atoms: C_8  and  C_9
REMARK    6  A    between atoms: C_8  and  C_10
REMARK                            x       y       z     vdW  Elec       q    Type
REMARK                         _______ _______ _______ _____ _____    ______ ____
ROOT
ATOM      1  C   UNL     1       5.669  -3.090   1.245  0.00  0.00    +0.030 C 
ATOM      2  C   UNL     1       5.130  -2.434  -0.028  0.00  0.00    +0.089 C 
ATOM      3  C   UNL     1       5.273  -3.955   0.046  0.00  0.00    -0.016 C 
ATOM      4  C   UNL     1       3.990  -4.781   0.164  0.00  0.00    +0.012 C 
ATOM      5  C   UNL     1       6.401  -4.599  -0.763  0.00  0.00    +0.012 C 
ENDROOT
BRANCH   2   6
ATOM      6  C   UNL     1       3.736  -1.863   0.021  0.00  0.00    +0.223 C 
ATOM      7  O   UNL     1       3.070  -1.972   1.029  0.00  0.00    -0.275 OA
ATOM      8  N   UNL     1       3.229  -1.231  -1.057  0.00  0.00    -0.263 N 
ATOM      9  C   UNL     1       1.942  -0.705  -1.012  0.00  0.00    +0.187 A 
ATOM     10  N   UNL     1       1.062  -0.715  -0.026  0.00  0.00    -0.126 NA
ATOM     11  N   UNL     1      -0.079  -0.187  -0.146  0.00  0.00    -0.148 NA
ATOM     12  C   UNL     1      -0.434   0.399  -1.272  0.00  0.00    +0.183 A 
ATOM     13  S   UNL     1       1.050   0.147  -2.239  0.00  0.00    -0.039 S 
ATOM     14  H   UNL     1       3.832  -1.132  -1.971  0.00  0.00    +0.157 HD
ENDBRANCH   2   6
BRANCH   1  17
ATOM     15  C   UNL     1       6.707  -3.936   3.724  0.00  0.00    +0.038 C 
ATOM     16  C   UNL     1       7.622  -3.330   2.691  0.00  0.00    -0.079 C 
ATOM     17  C   UNL     1       7.139  -2.937   1.538  0.00  0.00    -0.023 C 
ATOM     18  C   UNL     1       9.092  -3.178   2.983  0.00  0.00    +0.038 C 
ENDBRANCH   1  17
TORSDOF 2
