REMARK  Name = ZINC40404903
REMARK  20 active torsions:
REMARK  status: ('A' for Active; 'I' for Inactive)
REMARK    1  A    between atoms: C_1  and  C_2
REMARK    2  A    between atoms: C_7  and  O_8
REMARK    3  A    between atoms: O_8  and  C_9
REMARK    4  A    between atoms: C_9  and  C_10
REMARK    5  A    between atoms: C_10  and  C_12
REMARK    6  A    between atoms: C_10  and  O_38
REMARK    7  A    between atoms: C_12  and  N_13
REMARK    8  A    between atoms: N_13  and  C_14
REMARK    9  A    between atoms: N_13  and  C_19
REMARK   10  A    between atoms: C_14  and  C_15
REMARK   11  A    between atoms: C_15  and  C_16
REMARK   12  A    between atoms: C_16  and  O_17
REMARK   13  A    between atoms: O_17  and  C_18
REMARK   14  A    between atoms: C_19  and  C_20
REMARK   15  A    between atoms: C_26  and  C_37
REMARK   16  A    between atoms: C_27  and  C_31
REMARK   17  A    between atoms: C_31  and  O_33
REMARK   18  A    between atoms: O_33  and  C_34
REMARK   19  A    between atoms: C_34  and  C_35
REMARK   20  A    between atoms: C_34  and  C_36
REMARK                            x       y       z     vdW  Elec       q    Type
REMARK                         _______ _______ _______ _____ _____    ______ ____
ROOT
ATOM      1  N   UNL     1       0.122   0.244   7.405  0.00  0.00    +0.386 N 
ATOM      2  H   UNL     1       0.749   0.794   6.837  0.00  0.00    -0.081 HD
ENDROOT
BRANCH   1   3
ATOM      3  C   UNL     1      -0.455  -0.836   6.594  0.00  0.00    -0.043 C 
BRANCH   3   4
ATOM      4  C   UNL     1      -1.109  -0.242   5.344  0.00  0.00    +0.135 C 
BRANCH   4   5
ATOM      5  O   UNL     1      -2.253   0.525   5.725  0.00  0.00    -0.390 OA
ATOM      6  H   UNL     1      -2.932   0.015   6.187  0.00  0.00    +0.210 HD
ENDBRANCH   4   5
BRANCH   4   7
ATOM      7  C   UNL     1      -1.540  -1.372   4.408  0.00  0.00    +0.258 C 
BRANCH   7   8
ATOM      8  O   UNL     1      -2.045  -0.817   3.192  0.00  0.00    -0.489 OA
BRANCH   8  15
ATOM      9  C   UNL     1      -3.045   0.260   0.780  0.00  0.00    +0.047 C 
ATOM     10  C   UNL     1      -2.975  -1.223   1.040  0.00  0.00    -0.009 A 
ATOM     11  C   UNL     1      -3.405  -2.115   0.077  0.00  0.00    +0.007 A 
ATOM     12  C   UNL     1      -3.341  -3.475   0.316  0.00  0.00    +0.000 A 
ATOM     13  C   UNL     1      -2.847  -3.946   1.518  0.00  0.00    +0.004 A 
ATOM     14  C   UNL     1      -2.416  -3.058   2.484  0.00  0.00    +0.046 A 
ATOM     15  C   UNL     1      -2.474  -1.693   2.245  0.00  0.00    +0.124 A 
ENDBRANCH   8  15
ENDBRANCH   7   8
ENDBRANCH   4   7
ENDBRANCH   3   4
ENDBRANCH   1   3
BRANCH   1  16
ATOM     16  C   UNL     1      -0.956   1.103   7.915  0.00  0.00    -0.076 C 
BRANCH  16  17
ATOM     17  C   UNL     1      -1.992   0.243   8.643  0.00  0.00    +0.009 C 
BRANCH  17  18
ATOM     18  C   UNL     1      -3.164   1.121   9.084  0.00  0.00    +0.157 C 
BRANCH  18  19
ATOM     19  O   UNL     1      -4.131   0.319   9.764  0.00  0.00    -0.383 OA
ATOM     20  C   UNL     1      -5.274   1.046  10.219  0.00  0.00    +0.193 C 
ENDBRANCH  18  19
ENDBRANCH  17  18
ENDBRANCH  16  17
ENDBRANCH   1  16
BRANCH   1  21
ATOM     21  C   UNL     1       0.862  -0.334   8.535  0.00  0.00    -0.003 C 
BRANCH  21  22
ATOM     22  C   UNL     1       1.586   0.762   9.274  0.00  0.00    +0.094 A 
ATOM     23  N   UNL     1       2.282   0.451  10.395  0.00  0.00    -0.312 N 
ATOM     24  H   UNL     1       2.302  -0.469  10.702  0.00  0.00    +0.170 HD
ATOM     25  C   UNL     1       2.947   1.393  11.092  0.00  0.00    +0.260 A 
ATOM     26  O   UNL     1       3.570   1.103  12.098  0.00  0.00    -0.267 OA
ATOM     27  C   UNL     1       2.900   2.791  10.604  0.00  0.00    +0.076 A 
ATOM     28  C   UNL     1       3.498   3.933  11.140  0.00  0.00    -0.015 A 
ATOM     29  C   UNL     1       3.328   5.140  10.525  0.00  0.00    +0.102 A 
ATOM     30  S   UNL     1       2.296   4.730   9.128  0.00  0.00    -0.062 S 
ATOM     31  C   UNL     1       2.142   2.987   9.426  0.00  0.00    +0.116 A 
ATOM     32  N   UNL     1       1.529   1.982   8.814  0.00  0.00    -0.229 NA
ATOM     33  C   UNL     1       4.327   3.834  12.394  0.00  0.00    +0.046 C 
BRANCH  29  34
ATOM     34  C   UNL     1       3.860   6.447  10.916  0.00  0.00    +0.346 C 
ATOM     35  O   UNL     1       4.554   6.549  11.909  0.00  0.00    -0.244 OA
BRANCH  34  36
ATOM     36  O   UNL     1       3.579   7.539  10.174  0.00  0.00    -0.458 OA
BRANCH  36  37
ATOM     37  C   UNL     1       4.132   8.781  10.614  0.00  0.00    +0.171 C 
ATOM     38  C   UNL     1       5.506   8.984   9.973  0.00  0.00    +0.052 C 
ATOM     39  C   UNL     1       3.203   9.926  10.203  0.00  0.00    +0.052 C 
ENDBRANCH  36  37
ENDBRANCH  34  36
ENDBRANCH  29  34
ENDBRANCH  21  22
ENDBRANCH   1  21
TORSDOF 15
