REMARK  Name = ZINC35401065
REMARK  6 active torsions:
REMARK  status: ('A' for Active; 'I' for Inactive)
REMARK    1  A    between atoms: C_4  and  C_7
REMARK    2  A    between atoms: C_7  and  C_8
REMARK    3  A    between atoms: C_8  and  N_9
REMARK    4  A    between atoms: C_10  and  C_12
REMARK    5  A    between atoms: C_12  and  N_13
REMARK    6  A    between atoms: C_21  and  C_25
REMARK                            x       y       z     vdW  Elec       q    Type
REMARK                         _______ _______ _______ _____ _____    ______ ____
ROOT
ATOM      1  N   UNL     1       7.806  -2.994   3.899  0.00  0.00    -0.257 N 
ATOM      2  C   UNL     1       7.284  -4.145   4.510  0.00  0.00    +0.058 A 
ATOM      3  C   UNL     1       6.433  -4.834   3.661  0.00  0.00    +0.025 A 
ATOM      4  C   UNL     1       5.822  -5.998   4.092  0.00  0.00    +0.002 A 
ATOM      5  C   UNL     1       6.057  -6.477   5.367  0.00  0.00    +0.002 A 
ATOM      6  C   UNL     1       6.906  -5.794   6.221  0.00  0.00    +0.025 A 
ATOM      7  C   UNL     1       7.521  -4.628   5.796  0.00  0.00    +0.053 A 
ATOM      8  N   UNL     1       8.341  -4.080   6.795  0.00  0.00    -0.312 N 
ATOM      9  C   UNL     1       9.106  -2.929   6.734  0.00  0.00    +0.050 C 
ATOM     10  C   UNL     1       9.249  -2.047   5.684  0.00  0.00    +0.092 C 
ATOM     11  C   UNL     1       8.663  -2.088   4.409  0.00  0.00    +0.246 C 
ATOM     12  O   UNL     1       8.966  -1.174   3.662  0.00  0.00    -0.270 OA
ATOM     13  H   UNL     1       8.374  -4.568   7.632  0.00  0.00    +0.152 HD
ENDROOT
BRANCH   9  14
ATOM     14  C   UNL     1       9.864  -2.605   7.945  0.00  0.00    +0.035 A 
ATOM     15  C   UNL     1      10.705  -1.529   8.188  0.00  0.00    +0.018 A 
ATOM     16  C   UNL     1      11.282  -1.492   9.435  0.00  0.00    +0.023 A 
ATOM     17  C   UNL     1      11.001  -2.481  10.320  0.00  0.00    +0.056 A 
ATOM     18  S   UNL     1       9.940  -3.487   9.492  0.00  0.00    -0.080 S 
ATOM     19 BR   UNL     1      11.649  -2.679  12.085  0.00  0.00    -0.043 Br
ENDBRANCH   9  14
BRANCH   1  20
ATOM     20  C   UNL     1       7.365  -2.749   2.524  0.00  0.00    +0.209 C 
BRANCH  20  22
ATOM     21  N   UNL     1       7.972  -3.505   0.248  0.00  0.00    -0.314 N 
ATOM     22  C   UNL     1       8.200  -3.570   1.575  0.00  0.00    +0.231 C 
ATOM     23  O   UNL     1       9.076  -4.290   2.005  0.00  0.00    -0.274 OA
ATOM     24  H   UNL     1       7.271  -2.930  -0.096  0.00  0.00    +0.149 HD
BRANCH  21  25
ATOM     25  C   UNL     1       8.783  -4.304  -0.674  0.00  0.00    +0.109 C 
BRANCH  25  26
ATOM     26  C   UNL     1       8.323  -4.048  -2.111  0.00  0.00    +0.054 C 
BRANCH  26  30
ATOM     27  C   UNL     1      10.687  -6.375  -4.802  0.00  0.00    +0.000 A 
ATOM     28  C   UNL     1       9.521  -6.899  -4.275  0.00  0.00    +0.000 A 
ATOM     29  C   UNL     1       8.756  -6.146  -3.404  0.00  0.00    +0.004 A 
ATOM     30  C   UNL     1       9.157  -4.869  -3.059  0.00  0.00    -0.046 A 
ATOM     31  C   UNL     1      10.323  -4.345  -3.585  0.00  0.00    +0.004 A 
ATOM     32  C   UNL     1      11.087  -5.098  -4.457  0.00  0.00    +0.000 A 
ENDBRANCH  26  30
ENDBRANCH  25  26
ENDBRANCH  21  25
ENDBRANCH  20  22
ENDBRANCH   1  20
TORSDOF 6
