REMARK  Name = ZINC01501586
REMARK  7 active torsions:
REMARK  status: ('A' for Active; 'I' for Inactive)
REMARK    1  A    between atoms: C_4  and  N_7
REMARK    2  A    between atoms: N_7  and  N_15
REMARK    3  A    between atoms: C_8  and  C_10
REMARK    4  A    between atoms: C_16  and  C_18
REMARK    5  A    between atoms: C_18  and  C_19
REMARK    6  A    between atoms: C_18  and  C_26
REMARK    7  A    between atoms: C_18  and  O_33
REMARK                            x       y       z     vdW  Elec       q    Type
REMARK                         _______ _______ _______ _____ _____    ______ ____
ROOT
ATOM      1  N   UNL     1       4.434   0.939  -0.302  0.00  0.00    -0.224 N 
ATOM      2  C   UNL     1       5.042   1.520   0.751  0.00  0.00    +0.270 C 
ATOM      3  O   UNL     1       4.379   1.991   1.651  0.00  0.00    -0.270 OA
ATOM      4  H   UNL     1       5.036   0.513  -1.118  0.00  0.00    +0.174 HD
ENDROOT
BRANCH   1   5
ATOM      5  N   UNL     1       3.035   0.878  -0.357  0.00  0.00    -0.184 N 
ATOM      6  C   UNL     1       2.402  -0.286  -0.114  0.00  0.00    +0.274 C 
ATOM      7  O   UNL     1       1.193  -0.359  -0.237  0.00  0.00    -0.267 OA
BRANCH   5  11
ATOM      8  C   UNL     1       0.836   4.295  -1.270  0.00  0.00    +0.000 A 
ATOM      9  C   UNL     1       1.928   3.950  -2.045  0.00  0.00    +0.002 A 
ATOM     10  C   UNL     1       2.659   2.818  -1.745  0.00  0.00    +0.025 A 
ATOM     11  C   UNL     1       2.297   2.025  -0.664  0.00  0.00    +0.056 A 
ATOM     12  C   UNL     1       1.200   2.375   0.113  0.00  0.00    +0.025 A 
ATOM     13  C   UNL     1       0.473   3.508  -0.193  0.00  0.00    +0.002 A 
ENDBRANCH   5  11
BRANCH   6  14
ATOM     14  C   UNL     1       3.168  -1.466   0.298  0.00  0.00    +0.076 A 
ATOM     15  C   UNL     1       2.716  -2.743   0.593  0.00  0.00    +0.021 A 
ATOM     16  C   UNL     1       3.659  -3.671   0.958  0.00  0.00    +0.008 A 
ATOM     17  C   UNL     1       4.966  -3.303   1.012  0.00  0.00    +0.046 A 
ATOM     18  S   UNL     1       4.927  -1.634   0.544  0.00  0.00    -0.092 S 
ENDBRANCH   6  14
ENDBRANCH   1   5
BRANCH   2  19
ATOM     19  C   UNL     1       6.547   1.586   0.810  0.00  0.00    +0.194 C 
BRANCH  19  20
ATOM     20  C   UNL     1       7.027   2.796   0.050  0.00  0.00    -0.003 A 
ATOM     21  C   UNL     1       6.333   3.988   0.138  0.00  0.00    +0.009 A 
ATOM     22  C   UNL     1       6.776   5.099  -0.555  0.00  0.00    +0.020 A 
ATOM     23  C   UNL     1       7.908   5.014  -1.346  0.00  0.00    +0.041 A 
ATOM     24  C   UNL     1       8.599   3.819  -1.439  0.00  0.00    +0.020 A 
ATOM     25  C   UNL     1       8.158   2.710  -0.741  0.00  0.00    +0.009 A 
ATOM     26 CL   UNL     1       8.461   6.407  -2.222  0.00  0.00    -0.084 Cl
ENDBRANCH  19  20
BRANCH  19  27
ATOM     27  C   UNL     1       6.989   1.689   2.247  0.00  0.00    -0.003 A 
ATOM     28  C   UNL     1       6.649   2.799   2.997  0.00  0.00    +0.009 A 
ATOM     29  C   UNL     1       7.050   2.891   4.317  0.00  0.00    +0.020 A 
ATOM     30  C   UNL     1       7.800   1.877   4.884  0.00  0.00    +0.041 A 
ATOM     31  C   UNL     1       8.145   0.768   4.131  0.00  0.00    +0.020 A 
ATOM     32  C   UNL     1       7.739   0.675   2.813  0.00  0.00    +0.009 A 
ATOM     33 CL   UNL     1       8.309   1.994   6.540  0.00  0.00    -0.084 Cl
ENDBRANCH  19  27
BRANCH  19  34
ATOM     34  O   UNL     1       7.099   0.405   0.225  0.00  0.00    -0.371 OA
ATOM     35  H   UNL     1       8.190   0.273   0.177  0.00  0.00    +0.212 HD
ENDBRANCH  19  34
ENDBRANCH   2  19
TORSDOF 7
