REMARK  Name = ZINC32921858
REMARK  14 active torsions:
REMARK  status: ('A' for Active; 'I' for Inactive)
REMARK    1  A    between atoms: C_1  and  C_2
REMARK    2  A    between atoms: C_4  and  C_28
REMARK    3  A    between atoms: C_6  and  C_24
REMARK    4  A    between atoms: C_10  and  C_11
REMARK    5  A    between atoms: N_13  and  C_14
REMARK    6  A    between atoms: C_14  and  C_16
REMARK    7  A    between atoms: C_14  and  C_20
REMARK    8  A    between atoms: C_16  and  C_17
REMARK    9  A    between atoms: C_17  and  C_18
REMARK   10  A    between atoms: C_17  and  C_19
REMARK   11  A    between atoms: N_22  and  C_23
REMARK   12  A    between atoms: C_24  and  C_25
REMARK   13  A    between atoms: C_24  and  C_26
REMARK   14  A    between atoms: C_24  and  C_27
REMARK                            x       y       z     vdW  Elec       q    Type
REMARK                         _______ _______ _______ _____ _____    ______ ____
ROOT
ATOM      1  C   UNL     1       4.824   1.719  -0.598  0.00  0.00    +0.046 C 
ATOM      2  C   UNL     1       3.406   2.228  -0.539  0.00  0.00    -0.020 A 
ATOM      3  C   UNL     1       2.338   1.324  -0.435  0.00  0.00    +0.032 A 
ATOM      4  C   UNL     1       2.362  -0.091  -0.371  0.00  0.00    +0.050 A 
ATOM      5  N   UNL     1       1.229  -0.752  -0.275  0.00  0.00    -0.236 NA
ATOM      6  C   UNL     1       0.056  -0.144  -0.235  0.00  0.00    +0.136 A 
ATOM      7  N   UNL     1      -0.039   1.170  -0.291  0.00  0.00    -0.224 NA
ATOM      8  C   UNL     1       1.045   1.909  -0.388  0.00  0.00    +0.113 A 
ATOM      9  S   UNL     1       1.380   3.648  -0.487  0.00  0.00    -0.064 S 
ATOM     10  C   UNL     1       3.160   3.565  -0.587  0.00  0.00    +0.079 A 
ATOM     11  C   UNL     1       3.673  -0.833  -0.413  0.00  0.00    +0.066 C 
ENDROOT
BRANCH  10  12
ATOM     12  C   UNL     1       4.123   4.670  -0.694  0.00  0.00    +0.252 C 
ATOM     13  O   UNL     1       5.305   4.433  -0.858  0.00  0.00    -0.270 OA
ATOM     14  N   UNL     1       3.697   5.946  -0.611  0.00  0.00    -0.300 N 
ATOM     15  H   UNL     1       2.628   6.160  -0.463  0.00  0.00    +0.150 HD
BRANCH  14  16
ATOM     16  C   UNL     1       4.657   7.047  -0.718  0.00  0.00    +0.159 C 
BRANCH  16  17
ATOM     17  C   UNL     1       4.109   8.261  -0.014  0.00  0.00    +0.233 C 
ATOM     18  O   UNL     1       3.023   8.212   0.525  0.00  0.00    -0.274 OA
ATOM     19  N   UNL     1       4.825   9.402   0.018  0.00  0.00    -0.317 N 
ATOM     20  C   UNL     1       4.293  10.583   0.703  0.00  0.00    +0.128 C 
ATOM     21  H   UNL     1       5.810   9.447  -0.470  0.00  0.00    +0.148 HD
ENDBRANCH  16  17
BRANCH  16  22
ATOM     22  C   UNL     1       4.893   7.377  -2.193  0.00  0.00    +0.034 C 
BRANCH  22  23
ATOM     23  C   UNL     1       5.565   6.186  -2.881  0.00  0.00    -0.015 C 
ATOM     24  C   UNL     1       5.688   6.465  -4.380  0.00  0.00    +0.007 C 
ATOM     25  C   UNL     1       6.958   5.973  -2.285  0.00  0.00    +0.007 C 
ENDBRANCH  22  23
ENDBRANCH  16  22
ENDBRANCH  14  16
ENDBRANCH  10  12
BRANCH   6  26
ATOM     26  C   UNL     1      -1.200  -0.970  -0.124  0.00  0.00    +0.022 C 
ATOM     27  C   UNL     1      -2.418  -0.045  -0.097  0.00  0.00    +0.019 C 
ATOM     28  C   UNL     1      -1.300  -1.910  -1.328  0.00  0.00    +0.019 C 
ATOM     29  C   UNL     1      -1.156  -1.794   1.164  0.00  0.00    +0.019 C 
ENDBRANCH   6  26
TORSDOF 6
