REMARK  Name = ZINC39694380
REMARK  5 active torsions:
REMARK  status: ('A' for Active; 'I' for Inactive)
REMARK    1  A    between atoms: C_4  and  N_31
REMARK    2  A    between atoms: C_5  and  C_7
REMARK    3  A    between atoms: C_7  and  N_8
REMARK    4  A    between atoms: C_9  and  C_11
REMARK    5  A    between atoms: C_22  and  C_24
REMARK                            x       y       z     vdW  Elec       q    Type
REMARK                         _______ _______ _______ _____ _____    ______ ____
ROOT
ATOM      1  C   UNL     1       1.327  -4.320   3.782  0.00  0.00    +0.100 C 
ATOM      2  C   UNL     1       2.862  -4.154   3.714  0.00  0.00    +0.121 C 
ATOM      3  N   UNL     1       3.397  -5.318   4.460  0.00  0.00    -0.300 N 
ATOM      4  C   UNL     1       2.512  -6.443   4.073  0.00  0.00    +0.115 C 
ATOM      5  C   UNL     1       1.101  -5.823   4.017  0.00  0.00    -0.004 C 
ATOM      6  C   UNL     1       0.307  -6.425   2.862  0.00  0.00    -0.010 C 
ATOM      7  C   UNL     1       0.045  -7.906   3.146  0.00  0.00    -0.082 C 
ATOM      8  N   UNL     1      -0.702  -8.041   4.402  0.00  0.00    +0.379 N 
ATOM      9  C   UNL     1       0.108  -7.545   5.522  0.00  0.00    -0.082 C 
ATOM     10  C   UNL     1       0.373  -6.048   5.338  0.00  0.00    -0.010 C 
ATOM     11  C   UNL     1       4.450  -5.347   5.301  0.00  0.00    +0.219 C 
ATOM     12  O   UNL     1       5.031  -4.319   5.580  0.00  0.00    -0.275 OA
ATOM     13  H   UNL     1      -1.556  -7.507   4.344  0.00  0.00    -0.086 HD
ATOM     14  H   UNL     1      -0.926  -9.013   4.556  0.00  0.00    -0.086 HD
ENDROOT
BRANCH  11  15
ATOM     15  C   UNL     1       4.905  -6.655   5.894  0.00  0.00    +0.079 C 
ATOM     16  C   UNL     1       5.630  -6.396   7.220  0.00  0.00    +0.017 C 
ATOM     17  C   UNL     1       5.921  -7.744   7.884  0.00  0.00    +0.027 C 
ATOM     18  C   UNL     1       6.564  -8.676   6.899  0.00  0.00    -0.031 C 
ATOM     19  C   UNL     1       6.543  -8.504   5.617  0.00  0.00    -0.030 C 
ATOM     20  C   UNL     1       5.877  -7.345   4.933  0.00  0.00    +0.039 C 
ENDBRANCH  11  15
BRANCH   1  22
ATOM     21  N   UNL     1      -0.567  -3.417   2.471  0.00  0.00    -0.311 N 
ATOM     22  C   UNL     1       0.695  -3.891   2.483  0.00  0.00    +0.218 C 
ATOM     23  O   UNL     1       1.322  -3.972   1.448  0.00  0.00    -0.275 OA
ATOM     24  H   UNL     1      -1.068  -3.352   3.299  0.00  0.00    +0.149 HD
BRANCH  21  25
ATOM     25  C   UNL     1      -1.181  -3.001   1.208  0.00  0.00    +0.141 C 
BRANCH  25  30
ATOM     26  C   UNL     1      -4.947  -2.900   1.460  0.00  0.00    +0.000 A 
ATOM     27  C   UNL     1      -5.162  -1.622   1.944  0.00  0.00    +0.002 A 
ATOM     28  C   UNL     1      -4.090  -0.787   2.192  0.00  0.00    +0.023 A 
ATOM     29  C   UNL     1      -2.796  -1.231   1.954  0.00  0.00    +0.035 A 
ATOM     30  C   UNL     1      -2.583  -2.515   1.468  0.00  0.00    -0.009 A 
ATOM     31  C   UNL     1      -3.659  -3.345   1.222  0.00  0.00    +0.007 A 
BRANCH  29  32
ATOM     32  N   UNL     1      -1.710  -0.389   2.203  0.00  0.00    -0.325 N 
ATOM     33  C   UNL     1      -1.192   0.509   1.158  0.00  0.00    +0.133 C 
ATOM     34  C   UNL     1      -1.083   1.921   1.744  0.00  0.00    +0.178 C 
ATOM     35  O   UNL     1      -0.337   1.869   2.962  0.00  0.00    -0.377 OA
ATOM     36  C   UNL     1      -0.948   1.083   3.989  0.00  0.00    +0.178 C 
ATOM     37  C   UNL     1      -1.053  -0.368   3.520  0.00  0.00    +0.133 C 
ENDBRANCH  29  32
ENDBRANCH  25  30
ENDBRANCH  21  25
ENDBRANCH   1  22
TORSDOF 5
