REMARK  Name = ZINC43934375
REMARK  14 active torsions:
REMARK  status: ('A' for Active; 'I' for Inactive)
REMARK    1  A    between atoms: C_1  and  C_2
REMARK    2  A    between atoms: C_2  and  C_4
REMARK    3  A    between atoms: C_2  and  N_24
REMARK    4  A    between atoms: N_6  and  C_7
REMARK    5  A    between atoms: C_7  and  C_8
REMARK    6  A    between atoms: C_8  and  C_10
REMARK    7  A    between atoms: C_8  and  N_18
REMARK    8  A    between atoms: C_13  and  O_16
REMARK    9  A    between atoms: O_16  and  C_17
REMARK   10  A    between atoms: C_25  and  O_27
REMARK   11  A    between atoms: O_27  and  C_28
REMARK   12  A    between atoms: C_28  and  C_29
REMARK   13  A    between atoms: C_28  and  C_30
REMARK   14  A    between atoms: C_28  and  C_31
REMARK                            x       y       z     vdW  Elec       q    Type
REMARK                         _______ _______ _______ _____ _____    ______ ____
ROOT
ATOM      1  C   UNL     1       0.921  -0.689   3.603  0.00  0.00    +0.093 C 
ENDROOT
BRANCH   1   4
ATOM      2  C   UNL     1       1.614  -2.824   2.655  0.00  0.00    +0.233 C 
ATOM      3  O   UNL     1       2.000  -2.229   1.671  0.00  0.00    -0.274 OA
ATOM      4  N   UNL     1       1.059  -2.146   3.679  0.00  0.00    -0.315 N 
ATOM      5  H   UNL     1       0.751  -2.621   4.466  0.00  0.00    +0.149 HD
BRANCH   2   7
ATOM      6  C   UNL     1       0.373  -4.958   2.892  0.00  0.00    +0.038 C 
ATOM      7  C   UNL     1       1.756  -4.322   2.734  0.00  0.00    +0.159 C 
BRANCH   7   8
ATOM      8  N   UNL     1       2.384  -4.818   1.506  0.00  0.00    -0.270 N 
ATOM      9  C   UNL     1       3.063  -5.982   1.520  0.00  0.00    +0.401 C 
ATOM     10  O   UNL     1       3.155  -6.621   2.550  0.00  0.00    -0.226 OA
ATOM     11  H   UNL     1       2.311  -4.309   0.684  0.00  0.00    +0.153 HD
BRANCH   9  12
ATOM     12  O   UNL     1       3.640  -6.438   0.392  0.00  0.00    -0.445 OA
BRANCH  12  13
ATOM     13  C   UNL     1       4.344  -7.679   0.478  0.00  0.00    +0.107 C 
ATOM     14  C   UNL     1       3.380  -8.782   0.922  0.00  0.00    +0.055 C 
ATOM     15  C   UNL     1       4.926  -8.031  -0.891  0.00  0.00    +0.055 C 
ATOM     16  C   UNL     1       5.478  -7.552   1.498  0.00  0.00    +0.055 C 
ENDBRANCH  12  13
ENDBRANCH   9  12
ENDBRANCH   7   8
ENDBRANCH   2   7
ENDBRANCH   1   4
BRANCH   1  17
ATOM     17  C   UNL     1       0.164  -0.183   4.832  0.00  0.00    -0.020 C 
BRANCH  17  18
ATOM     18  N   UNL     1      -0.058   1.263   4.710  0.00  0.00    +0.385 N 
ATOM     19  C   UNL     1      -0.736   1.757   5.915  0.00  0.00    -0.078 C 
ATOM     20  C   UNL     1      -0.897   3.276   5.829  0.00  0.00    -0.019 C 
ATOM     21  C   UNL     1      -1.731   3.626   4.593  0.00  0.00    -0.004 C 
ATOM     22  C   UNL     1      -1.054   3.042   3.350  0.00  0.00    -0.019 C 
ATOM     23  C   UNL     1      -0.887   1.532   3.528  0.00  0.00    -0.078 C 
ATOM     24  H   UNL     1       0.830   1.732   4.610  0.00  0.00    -0.081 HD
ENDBRANCH  17  18
BRANCH  17  25
ATOM     25  C   UNL     1       0.973  -0.465   6.072  0.00  0.00    -0.059 A 
ATOM     26  C   UNL     1       2.016   0.373   6.420  0.00  0.00    +0.005 A 
ATOM     27  C   UNL     1       2.760   0.117   7.555  0.00  0.00    +0.046 A 
ATOM     28  C   UNL     1       2.459  -0.981   8.348  0.00  0.00    +0.120 A 
ATOM     29  C   UNL     1       1.411  -1.820   7.997  0.00  0.00    +0.046 A 
ATOM     30  C   UNL     1       0.667  -1.557   6.863  0.00  0.00    +0.005 A 
BRANCH  28  31
ATOM     31  O   UNL     1       3.189  -1.235   9.465  0.00  0.00    -0.495 OA
ATOM     32  C   UNL     1       2.822  -2.383  10.233  0.00  0.00    +0.277 C 
ENDBRANCH  28  31
ENDBRANCH  17  25
ENDBRANCH   1  17
TORSDOF 9
