REMARK  Name = ZINC12497986
REMARK  7 active torsions:
REMARK  status: ('A' for Active; 'I' for Inactive)
REMARK    1  A    between atoms: C_1  and  O_2
REMARK    2  A    between atoms: O_2  and  C_3
REMARK    3  A    between atoms: C_3  and  C_5
REMARK    4  A    between atoms: C_5  and  C_34
REMARK    5  A    between atoms: C_10  and  C_12
REMARK    6  A    between atoms: C_15  and  O_18
REMARK    7  A    between atoms: N_21  and  C_24
REMARK                            x       y       z     vdW  Elec       q    Type
REMARK                         _______ _______ _______ _____ _____    ______ ____
ROOT
ATOM      1  C   UNL     1       1.280   1.975   0.000  0.00  0.00    +0.070 C 
ATOM      2  C   UNL     1       2.447   1.292   0.695  0.00  0.00    +0.090 C 
ATOM      3  C   UNL     1       3.197   2.580   1.210  0.00  0.00    +0.078 C 
ATOM      4  C   UNL     1       2.099   3.350   1.819  0.00  0.00    -0.026 C 
ATOM      5  C   UNL     1       4.498   2.049   1.535  0.00  0.00    +0.229 C 
ATOM      6  O   UNL     1       5.236   2.402   2.430  0.00  0.00    -0.275 OA
ATOM      7  N   UNL     1       4.720   1.058   0.611  0.00  0.00    -0.210 N 
ATOM      8  C   UNL     1       3.591   0.719  -0.081  0.00  0.00    +0.229 C 
ATOM      9  O   UNL     1       3.530   0.084  -1.111  0.00  0.00    -0.275 OA
ATOM     10  N   UNL     1       1.011   3.198   0.802  0.00  0.00    +0.398 N 
ATOM     11  H   UNL     1       0.105   3.109   1.276  0.00  0.00    -0.083 HD
ATOM     12  H   UNL     1       0.996   4.020   0.187  0.00  0.00    -0.083 HD
ENDROOT
BRANCH   7  13
ATOM     13  C   UNL     1       5.971   0.459   0.400  0.00  0.00    +0.048 A 
ATOM     14  C   UNL     1       6.110  -0.542  -0.552  0.00  0.00    +0.028 A 
ATOM     15  C   UNL     1       7.342  -1.130  -0.763  0.00  0.00    +0.051 A 
ATOM     16  C   UNL     1       8.441  -0.730  -0.018  0.00  0.00    +0.162 A 
ATOM     17  C   UNL     1       8.305   0.270   0.938  0.00  0.00    +0.164 A 
ATOM     18  C   UNL     1       7.069   0.862   1.146  0.00  0.00    +0.073 A 
ATOM     19  O   UNL     1       9.374   0.681   1.673  0.00  0.00    -0.485 OA
ATOM     20  C   UNL     1      10.511  -0.189   1.698  0.00  0.00    +0.270 C 
ATOM     21  C   UNL     1      10.802  -0.642   0.261  0.00  0.00    +0.270 C 
ATOM     22  O   UNL     1       9.646  -1.327  -0.234  0.00  0.00    -0.485 OA
ENDBRANCH   7  13
BRANCH   4  23
ATOM     23  C   UNL     1       2.488   4.796   1.987  0.00  0.00    -0.060 A 
ATOM     24  C   UNL     1       2.542   5.629   0.884  0.00  0.00    +0.005 A 
ATOM     25  C   UNL     1       2.893   6.956   1.036  0.00  0.00    +0.045 A 
ATOM     26  C   UNL     1       3.202   7.451   2.295  0.00  0.00    +0.117 A 
ATOM     27  C   UNL     1       3.152   6.612   3.399  0.00  0.00    +0.045 A 
ATOM     28  C   UNL     1       2.796   5.287   3.242  0.00  0.00    +0.005 A 
BRANCH  26  29
ATOM     29  O   UNL     1       3.553   8.755   2.446  0.00  0.00    -0.507 OA
ATOM     30  H   UNL     1       4.503   8.918   2.365  0.00  0.00    +0.292 HD
ENDBRANCH  26  29
ENDBRANCH   4  23
BRANCH   1  31
ATOM     31  C   UNL     1       1.656   2.346  -1.411  0.00  0.00    -0.047 A 
ATOM     32  C   UNL     1       2.979   2.582  -1.735  0.00  0.00    +0.003 A 
ATOM     33  C   UNL     1       3.325   2.918  -3.030  0.00  0.00    +0.000 A 
ATOM     34  C   UNL     1       2.346   3.026  -4.000  0.00  0.00    +0.000 A 
ATOM     35  C   UNL     1       1.022   2.795  -3.676  0.00  0.00    +0.000 A 
ATOM     36  C   UNL     1       0.678   2.455  -2.381  0.00  0.00    +0.003 A 
ENDBRANCH   1  31
BRANCH   1  37
ATOM     37  C   UNL     1       0.074   1.072  -0.003  0.00  0.00    +0.301 C 
ATOM     38  O   UNL     1       0.218  -0.128   0.027  0.00  0.00    -0.252 OA
BRANCH  37  40
ATOM     39  C   UNL     1      -2.274   0.668  -0.050  0.00  0.00    +0.280 C 
ATOM     40  O   UNL     1      -1.159   1.599  -0.043  0.00  0.00    -0.469 OA
ENDBRANCH  37  40
ENDBRANCH   1  37
TORSDOF 6
