REMARK  Name = ZINC39774287
REMARK  7 active torsions:
REMARK  status: ('A' for Active; 'I' for Inactive)
REMARK    1  A    between atoms: C_1  and  C_2
REMARK    2  A    between atoms: C_10  and  O_40
REMARK    3  A    between atoms: N_22  and  N_23
REMARK    4  A    between atoms: C_24  and  C_26
REMARK    5  A    between atoms: C_26  and  C_27
REMARK    6  A    between atoms: C_26  and  C_33
REMARK    7  A    between atoms: C_26  and  O_39
REMARK                            x       y       z     vdW  Elec       q    Type
REMARK                         _______ _______ _______ _____ _____    ______ ____
ROOT
ATOM      1  C   UNL     1      -0.135   0.325   2.108  0.00  0.00    +0.018 C 
ATOM      2  C   UNL     1      -0.337  -1.181   1.891  0.00  0.00    +0.011 C 
ATOM      3  C   UNL     1       0.587  -1.625   0.781  0.00  0.00    +0.013 C 
ATOM      4  C   UNL     1       0.606  -3.143   0.635  0.00  0.00    +0.009 C 
ATOM      5  C   UNL     1       1.074  -3.759   1.959  0.00  0.00    +0.023 C 
ATOM      6  C   UNL     1       1.153  -5.256   1.783  0.00  0.00    -0.041 A 
ATOM      7  C   UNL     1       2.253  -5.767   1.106  0.00  0.00    +0.008 A 
ATOM      8  C   UNL     1       2.384  -7.125   0.907  0.00  0.00    +0.046 A 
ATOM      9  C   UNL     1       1.409  -7.987   1.389  0.00  0.00    +0.117 A 
ATOM     10  C   UNL     1       0.315  -7.476   2.065  0.00  0.00    +0.049 A 
ATOM     11  C   UNL     1       0.186  -6.108   2.266  0.00  0.00    -0.040 A 
ATOM     12  C   UNL     1      -1.027  -5.622   3.014  0.00  0.00    +0.036 C 
ATOM     13  C   UNL     1      -1.240  -4.122   2.795  0.00  0.00    +0.009 C 
ATOM     14  C   UNL     1       0.081  -3.405   3.058  0.00  0.00    +0.001 C 
ATOM     15  C   UNL     1      -0.086  -1.905   3.223  0.00  0.00    +0.005 C 
ATOM     16  C   UNL     1      -1.399  -1.634   4.005  0.00  0.00    +0.010 C 
ATOM     17  C   UNL     1      -2.494  -1.499   2.928  0.00  0.00    +0.053 C 
ATOM     18  C   UNL     1      -1.795  -1.426   1.583  0.00  0.00    +0.043 C 
ATOM     19  N   UNL     1      -2.332  -1.544   0.429  0.00  0.00    -0.189 NA
ENDROOT
BRANCH  19  20
ATOM     20  N   UNL     1      -3.710  -1.771   0.317  0.00  0.00    -0.204 N 
ATOM     21  C   UNL     1      -4.276  -1.896  -0.899  0.00  0.00    +0.273 C 
ATOM     22  O   UNL     1      -3.592  -1.812  -1.898  0.00  0.00    -0.270 OA
ATOM     23  H   UNL     1      -4.256  -1.838   1.116  0.00  0.00    +0.177 HD
BRANCH  21  24
ATOM     24  C   UNL     1      -5.758  -2.140  -1.020  0.00  0.00    +0.194 C 
BRANCH  24  25
ATOM     25  C   UNL     1      -6.489  -0.823  -0.974  0.00  0.00    -0.003 A 
ATOM     26  C   UNL     1      -5.973   0.277  -1.634  0.00  0.00    +0.007 A 
ATOM     27  C   UNL     1      -6.644   1.485  -1.592  0.00  0.00    +0.000 A 
ATOM     28  C   UNL     1      -7.830   1.593  -0.891  0.00  0.00    +0.000 A 
ATOM     29  C   UNL     1      -8.346   0.493  -0.232  0.00  0.00    +0.000 A 
ATOM     30  C   UNL     1      -7.678  -0.716  -0.277  0.00  0.00    +0.007 A 
ENDBRANCH  24  25
BRANCH  24  31
ATOM     31  C   UNL     1      -6.049  -2.831  -2.327  0.00  0.00    -0.003 A 
ATOM     32  C   UNL     1      -6.551  -4.119  -2.331  0.00  0.00    +0.007 A 
ATOM     33  C   UNL     1      -6.818  -4.753  -3.530  0.00  0.00    +0.000 A 
ATOM     34  C   UNL     1      -6.583  -4.099  -4.725  0.00  0.00    +0.000 A 
ATOM     35  C   UNL     1      -6.082  -2.811  -4.721  0.00  0.00    +0.000 A 
ATOM     36  C   UNL     1      -5.819  -2.175  -3.522  0.00  0.00    +0.007 A 
ENDBRANCH  24  31
BRANCH  24  37
ATOM     37  O   UNL     1      -6.194  -2.965   0.063  0.00  0.00    -0.371 OA
ATOM     38  H   UNL     1      -5.764  -3.830   0.096  0.00  0.00    +0.212 HD
ENDBRANCH  24  37
ENDBRANCH  21  24
ENDBRANCH  19  20
BRANCH   9  39
ATOM     39  O   UNL     1       1.528  -9.327   1.196  0.00  0.00    -0.507 OA
ATOM     40  H   UNL     1       2.002  -9.786   1.903  0.00  0.00    +0.292 HD
ENDBRANCH   9  39
TORSDOF 6
