REMARK  Name = ZINC40066665
REMARK  10 active torsions:
REMARK  status: ('A' for Active; 'I' for Inactive)
REMARK    1  A    between atoms: C_1  and  C_2
REMARK    2  A    between atoms: C_3  and  C_21
REMARK    3  A    between atoms: C_4  and  N_12
REMARK    4  A    between atoms: N_5  and  C_11
REMARK    5  A    between atoms: C_8  and  C_9
REMARK    6  A    between atoms: N_12  and  C_13
REMARK    7  A    between atoms: C_13  and  C_14
REMARK    8  A    between atoms: N_25  and  C_29
REMARK    9  A    between atoms: C_29  and  C_31
REMARK   10  A    between atoms: C_29  and  C_32
REMARK                            x       y       z     vdW  Elec       q    Type
REMARK                         _______ _______ _______ _____ _____    ______ ____
ROOT
ATOM      1  C   UNL     1      -1.170   1.614   0.541  0.00  0.00    +0.046 C 
ATOM      2  C   UNL     1      -1.108   0.212   1.090  0.00  0.00    -0.017 A 
ATOM      3  C   UNL     1      -2.277  -0.559   1.212  0.00  0.00    +0.019 A 
ATOM      4  C   UNL     1      -2.193  -1.863   1.726  0.00  0.00    +0.109 A 
ATOM      5  N   UNL     1      -0.996  -2.380   2.105  0.00  0.00    -0.298 N 
ATOM      6  C   UNL     1       0.137  -1.662   1.999  0.00  0.00    +0.270 A 
ATOM      7  O   UNL     1       1.198  -2.151   2.347  0.00  0.00    -0.266 OA
ATOM      8  C   UNL     1       0.107  -0.342   1.480  0.00  0.00    +0.120 A 
ATOM      9  C   UNL     1      -0.936  -3.742   2.640  0.00  0.00    +0.154 C 
ENDROOT
BRANCH   3  10
ATOM     10  C   UNL     1      -3.571  -0.007   0.806  0.00  0.00    +0.032 C 
ATOM     11  C   UNL     1      -4.333  -0.663  -0.111  0.00  0.00    +0.077 C 
ATOM     12  C   UNL     1      -5.619  -0.326  -0.632  0.00  0.00    +0.259 C 
ATOM     13  O   UNL     1      -6.201   0.678  -0.264  0.00  0.00    -0.269 OA
ATOM     14  N   UNL     1      -6.158  -1.136  -1.527  0.00  0.00    -0.248 N 
ATOM     15  C   UNL     1      -5.511  -2.250  -1.936  0.00  0.00    +0.121 C 
ATOM     16  S   UNL     1      -6.015  -3.427  -3.072  0.00  0.00    -0.027 S 
ATOM     17  S   UNL     1      -3.993  -2.178  -0.997  0.00  0.00    -0.061 S 
BRANCH  14  18
ATOM     18  C   UNL     1      -7.476  -0.822  -2.083  0.00  0.00    +0.110 C 
ATOM     19  C   UNL     1      -7.970  -2.002  -2.923  0.00  0.00    +0.033 C 
BRANCH  18  20
ATOM     20  C   UNL     1      -7.375   0.405  -2.952  0.00  0.00    -0.027 A 
ATOM     21  C   UNL     1      -6.341   0.525  -3.862  0.00  0.00    +0.005 A 
ATOM     22  C   UNL     1      -6.249   1.651  -4.659  0.00  0.00    +0.000 A 
ATOM     23  C   UNL     1      -7.190   2.656  -4.547  0.00  0.00    +0.000 A 
ATOM     24  C   UNL     1      -8.225   2.536  -3.638  0.00  0.00    +0.000 A 
ATOM     25  C   UNL     1      -8.320   1.409  -2.844  0.00  0.00    +0.005 A 
ENDBRANCH  18  20
ENDBRANCH  14  18
ENDBRANCH   3  10
BRANCH   8  26
ATOM     26  C   UNL     1       1.317   0.416   1.364  0.00  0.00    +0.105 C 
ATOM     27  N   UNL     1       2.276   1.017   1.272  0.00  0.00    -0.191 NA
ENDBRANCH   8  26
BRANCH   4  28
ATOM     28  N   UNL     1      -3.324  -2.617   1.847  0.00  0.00    -0.326 N 
ATOM     29  H   UNL     1      -3.576  -3.229   1.138  0.00  0.00    +0.148 HD
BRANCH  28  30
ATOM     30  C   UNL     1      -4.156  -2.503   3.047  0.00  0.00    +0.138 C 
BRANCH  30  31
ATOM     31  C   UNL     1      -5.263  -3.523   2.989  0.00  0.00    -0.030 A 
ATOM     32  C   UNL     1      -6.470  -3.200   2.396  0.00  0.00    +0.008 A 
ATOM     33  C   UNL     1      -7.486  -4.135   2.342  0.00  0.00    +0.038 A 
ATOM     34  C   UNL     1      -7.296  -5.396   2.883  0.00  0.00    +0.123 A 
ATOM     35  C   UNL     1      -6.087  -5.718   3.476  0.00  0.00    +0.038 A 
ATOM     36  C   UNL     1      -5.070  -4.783   3.524  0.00  0.00    +0.008 A 
ATOM     37  F   UNL     1      -8.289  -6.310   2.831  0.00  0.00    -0.205 F 
ENDBRANCH  30  31
ENDBRANCH  28  30
ENDBRANCH   4  28
TORSDOF 7
