REMARK  Name = ZINC21607961
REMARK  7 active torsions:
REMARK  status: ('A' for Active; 'I' for Inactive)
REMARK    1  A    between atoms: C_1  and  C_2
REMARK    2  A    between atoms: C_14  and  C_15
REMARK    3  A    between atoms: C_15  and  O_17
REMARK    4  A    between atoms: O_17  and  C_18
REMARK    5  A    between atoms: C_18  and  C_19
REMARK    6  A    between atoms: N_21  and  C_22
REMARK    7  A    between atoms: C_22  and  C_23
REMARK                            x       y       z     vdW  Elec       q    Type
REMARK                         _______ _______ _______ _____ _____    ______ ____
ROOT
ATOM      1  C   UNL     1      -4.558   8.278  -0.605  0.00  0.00    +0.347 C 
ATOM      2  O   UNL     1      -4.738   8.600  -1.764  0.00  0.00    -0.244 OA
ENDROOT
BRANCH   1  16
ATOM      3  C   UNL     1      -3.452   6.313  -2.642  0.00  0.00    +0.046 C 
ATOM      4  C   UNL     1      -3.337   6.107  -1.153  0.00  0.00    -0.015 A 
ATOM      5  C   UNL     1      -2.700   4.970  -0.651  0.00  0.00    +0.076 A 
ATOM      6  C   UNL     1      -2.644   4.868   0.758  0.00  0.00    +0.116 A 
ATOM      7  N   UNL     1      -2.066   3.838   1.357  0.00  0.00    -0.226 NA
ATOM      8  C   UNL     1      -1.513   2.857   0.685  0.00  0.00    +0.114 A 
ATOM      9  N   UNL     1      -1.507   2.842  -0.672  0.00  0.00    -0.296 N 
ATOM     10  C   UNL     1      -2.070   3.849  -1.380  0.00  0.00    +0.263 A 
ATOM     11  O   UNL     1      -2.058   3.832  -2.598  0.00  0.00    -0.267 OA
ATOM     12  C   UNL     1      -0.832   1.633  -1.179  0.00  0.00    +0.127 C 
ATOM     13  C   UNL     1      -0.013   1.086   0.008  0.00  0.00    +0.029 C 
ATOM     14  C   UNL     1      -0.810   1.621   1.217  0.00  0.00    +0.076 C 
ATOM     15  S   UNL     1      -3.471   6.340   1.307  0.00  0.00    -0.062 S 
ATOM     16  C   UNL     1      -3.857   7.030  -0.293  0.00  0.00    +0.102 A 
ENDBRANCH   1  16
BRANCH   1  17
ATOM     17  O   UNL     1      -5.003   9.069   0.393  0.00  0.00    -0.451 OA
BRANCH  17  18
ATOM     18  C   UNL     1      -5.689  10.290   0.009  0.00  0.00    +0.328 C 
BRANCH  18  19
ATOM     19  C   UNL     1      -6.111  11.039   1.247  0.00  0.00    +0.251 C 
ATOM     20  O   UNL     1      -5.858  10.588   2.344  0.00  0.00    -0.272 OA
ATOM     21  N   UNL     1      -6.769  12.210   1.135  0.00  0.00    -0.308 N 
ATOM     22  H   UNL     1      -6.998  12.619   0.140  0.00  0.00    +0.149 HD
BRANCH  21  23
ATOM     23  C   UNL     1      -7.179  12.938   2.338  0.00  0.00    +0.139 C 
BRANCH  23  24
ATOM     24  C   UNL     1      -7.891  14.205   1.940  0.00  0.00    -0.030 A 
ATOM     25  C   UNL     1      -7.174  15.374   1.764  0.00  0.00    +0.006 A 
ATOM     26  C   UNL     1      -7.826  16.535   1.394  0.00  0.00    +0.020 A 
ATOM     27  C   UNL     1      -9.197  16.530   1.210  0.00  0.00    +0.041 A 
ATOM     28  C   UNL     1      -9.915  15.361   1.392  0.00  0.00    +0.020 A 
ATOM     29  C   UNL     1      -9.261  14.200   1.757  0.00  0.00    +0.006 A 
ATOM     30 CL   UNL     1     -10.017  17.990   0.751  0.00  0.00    -0.084 Cl
ENDBRANCH  23  24
ENDBRANCH  21  23
ENDBRANCH  18  19
ENDBRANCH  17  18
ENDBRANCH   1  17
TORSDOF 6
