REMARK  Name = ZINC12456065
REMARK  11 active torsions:
REMARK  status: ('A' for Active; 'I' for Inactive)
REMARK    1  A    between atoms: C_1  and  C_2
REMARK    2  A    between atoms: C_2  and  O_3
REMARK    3  A    between atoms: O_3  and  C_4
REMARK    4  A    between atoms: C_4  and  C_6
REMARK    5  A    between atoms: N_11  and  C_13
REMARK    6  A    between atoms: C_14  and  C_27
REMARK    7  A    between atoms: C_17  and  C_18
REMARK    8  A    between atoms: N_29  and  C_30
REMARK    9  A    between atoms: N_29  and  C_31
REMARK   10  A    between atoms: C_31  and  C_32
REMARK   11  A    between atoms: C_33  and  C_37
REMARK                            x       y       z     vdW  Elec       q    Type
REMARK                         _______ _______ _______ _____ _____    ______ ____
ROOT
ATOM      1  C   UNL     1      -2.180   6.327   0.738  0.00  0.00    +0.112 A 
ATOM      2  C   UNL     1      -3.309   7.060   0.329  0.00  0.00    +0.075 A 
ATOM      3  C   UNL     1      -3.212   8.456   0.223  0.00  0.00    +0.018 A 
ATOM      4  C   UNL     1      -2.016   9.054   0.512  0.00  0.00    +0.027 A 
ATOM      5  C   UNL     1      -0.931   8.268   0.909  0.00  0.00    +0.049 A 
ATOM      6  N   UNL     1      -0.981   6.904   1.031  0.00  0.00    -0.342 N 
ATOM      7  H   UNL     1      -0.166   6.352   1.324  0.00  0.00    +0.167 HD
ENDROOT
BRANCH   5   8
ATOM      8  C   UNL     1       0.360   8.914   1.222  0.00  0.00    +0.013 A 
ATOM      9  C   UNL     1       0.501  10.260   1.122  0.00  0.00    +0.056 A 
ATOM     10  S   UNL     1       2.197  10.536   1.596  0.00  0.00    -0.096 S 
ATOM     11  C   UNL     1       2.680   8.857   1.905  0.00  0.00    +0.020 A 
ATOM     12  C   UNL     1       1.513   8.114   1.639  0.00  0.00    -0.002 A 
ATOM     13  C   UNL     1       1.599   6.714   1.804  0.00  0.00    +0.010 A 
ATOM     14  C   UNL     1       2.772   6.129   2.204  0.00  0.00    +0.001 A 
ATOM     15  C   UNL     1       3.906   6.887   2.460  0.00  0.00    +0.001 A 
ATOM     16  C   UNL     1       3.855   8.258   2.308  0.00  0.00    +0.015 A 
ENDBRANCH   5   8
BRANCH   1  21
ATOM     17  C   UNL     1      -2.258   3.018   2.357  0.00  0.00    +0.115 C 
ATOM     18  C   UNL     1      -1.309   2.281   1.408  0.00  0.00    +0.018 C 
ATOM     19  C   UNL     1      -1.542   2.778  -0.022  0.00  0.00    +0.020 C 
ATOM     20  C   UNL     1      -1.326   4.293  -0.071  0.00  0.00    +0.106 C 
ATOM     21  N   UNL     1      -2.258   4.952   0.853  0.00  0.00    -0.315 N 
ATOM     22  C   UNL     1      -2.022   4.525   2.239  0.00  0.00    +0.121 C 
BRANCH  17  23
ATOM     23  C   UNL     1      -1.995   2.577   3.774  0.00  0.00    +0.312 C 
ATOM     24  O   UNL     1      -1.651   3.385   4.604  0.00  0.00    -0.250 OA
BRANCH  23  25
ATOM     25  O   UNL     1      -2.136   1.286   4.112  0.00  0.00    -0.465 OA
BRANCH  25  27
ATOM     26  C   UNL     1      -2.073  -0.570   5.688  0.00  0.00    +0.048 C 
ATOM     27  C   UNL     1      -1.860   0.932   5.493  0.00  0.00    +0.229 C 
ENDBRANCH  25  27
ENDBRANCH  23  25
ENDBRANCH  17  23
ENDBRANCH   1  21
BRANCH   2  28
ATOM     28  C   UNL     1      -4.573   6.374   0.021  0.00  0.00    +0.250 C 
ATOM     29  O   UNL     1      -4.559   5.308  -0.566  0.00  0.00    -0.270 OA
ATOM     30  N   UNL     1      -5.746   6.925   0.390  0.00  0.00    -0.295 N 
ATOM     31  C   UNL     1      -5.769   8.248   1.019  0.00  0.00    +0.132 C 
BRANCH  30  32
ATOM     32  C   UNL     1      -7.000   6.201   0.162  0.00  0.00    +0.168 C 
BRANCH  32  33
ATOM     33  C   UNL     1      -7.331   5.375   1.379  0.00  0.00    +0.124 A 
ATOM     34  C   UNL     1      -7.025   4.010   1.544  0.00  0.00    +0.106 A 
ATOM     35  N   UNL     1      -7.450   3.610   2.705  0.00  0.00    -0.054 NA
ATOM     36  O   UNL     1      -8.056   4.723   3.342  0.00  0.00    -0.242 OA
ATOM     37  N   UNL     1      -7.938   5.813   2.441  0.00  0.00    -0.052 NA
ATOM     38  C   UNL     1      -6.317   3.147   0.531  0.00  0.00    +0.071 C 
ENDBRANCH  32  33
ENDBRANCH  30  32
ENDBRANCH   2  28
TORSDOF 8
