REMARK  Name = ZINC08914845
REMARK  6 active torsions:
REMARK  status: ('A' for Active; 'I' for Inactive)
REMARK    1  A    between atoms: C_8  and  C_11
REMARK    2  A    between atoms: N_13  and  C_14
REMARK    3  A    between atoms: C_14  and  C_15
REMARK    4  A    between atoms: C_18  and  C_21
REMARK    5  A    between atoms: N_23  and  C_24
REMARK    6  A    between atoms: C_24  and  C_25
REMARK                            x       y       z     vdW  Elec       q    Type
REMARK                         _______ _______ _______ _____ _____    ______ ____
ROOT
ATOM      1  C   UNL     1      -6.362  -0.609  -1.220  0.00  0.00    +0.107 C 
ENDROOT
BRANCH   1   2
ATOM      2  C   UNL     1      -5.048   0.174  -1.222  0.00  0.00    +0.006 C 
ATOM      3  C   UNL     1      -4.973   1.048   0.031  0.00  0.00    +0.006 C 
ATOM      4  C   UNL     1      -3.658   1.831   0.029  0.00  0.00    +0.013 C 
ATOM      5  C   UNL     1      -2.482   0.853   0.018  0.00  0.00    +0.075 C 
ATOM      6  C   UNL     1      -2.557  -0.021  -1.235  0.00  0.00    +0.013 C 
ATOM      7  C   UNL     1      -3.872  -0.804  -1.233  0.00  0.00    +0.006 C 
BRANCH   5   8
ATOM      8  C   UNL     1      -1.187   1.624   0.017  0.00  0.00    +0.216 C 
ATOM      9  O   UNL     1      -1.204   2.837   0.023  0.00  0.00    -0.276 OA
ATOM     10  N   UNL     1      -0.011   0.966   0.007  0.00  0.00    -0.308 N 
ATOM     11  H   UNL     1       0.002  -0.004   0.002  0.00  0.00    +0.149 HD
BRANCH  10  12
ATOM     12  C   UNL     1       1.248   1.716  -0.001  0.00  0.00    +0.178 C 
BRANCH  12  13
ATOM     13  C   UNL     1       2.406   0.752  -0.017  0.00  0.00    +0.122 A 
ATOM     14  C   UNL     1       3.001   0.255  -1.116  0.00  0.00    +0.046 A 
ATOM     15  C   UNL     1       4.033  -0.603  -0.672  0.00  0.00    +0.041 A 
ATOM     16  C   UNL     1       4.008  -0.578   0.673  0.00  0.00    +0.195 A 
ATOM     17  O   UNL     1       3.024   0.248   1.064  0.00  0.00    -0.466 OA
ENDBRANCH  12  13
ENDBRANCH  10  12
ENDBRANCH   5   8
ENDBRANCH   1   2
BRANCH   1  20
ATOM     18  C   UNL     1      -7.575  -2.120  -2.698  0.00  0.00    +0.199 C 
ATOM     19  O   UNL     1      -8.448  -2.193  -1.859  0.00  0.00    -0.278 OA
ATOM     20  N   UNL     1      -6.489  -1.353  -2.476  0.00  0.00    -0.316 N 
ATOM     21  H   UNL     1      -5.791  -1.295  -3.147  0.00  0.00    +0.149 HD
BRANCH  18  29
ATOM     22  C   UNL     1      -6.546  -6.911  -6.471  0.00  0.00    +0.000 A 
ATOM     23  C   UNL     1      -7.684  -6.731  -7.235  0.00  0.00    +0.000 A 
ATOM     24  C   UNL     1      -8.564  -5.713  -6.928  0.00  0.00    +0.002 A 
ATOM     25  C   UNL     1      -8.314  -4.869  -5.856  0.00  0.00    -0.061 A 
ATOM     26  C   UNL     1      -7.181  -5.051  -5.092  0.00  0.00    -0.047 A 
ATOM     27  C   UNL     1      -6.297  -6.073  -5.402  0.00  0.00    +0.004 A 
ATOM     28  C   UNL     1      -6.870  -4.163  -3.915  0.00  0.00    +0.028 C 
ATOM     29  C   UNL     1      -7.706  -2.885  -3.989  0.00  0.00    +0.021 C 
ATOM     30  C   UNL     1      -9.302  -3.770  -5.564  0.00  0.00    -0.045 C 
ATOM     31  N   UNL     1      -9.117  -3.259  -4.198  0.00  0.00    +0.389 N 
ATOM     32  H   UNL     1      -9.712  -2.434  -4.060  0.00  0.00    -0.084 HD
ATOM     33  H   UNL     1      -9.380  -3.987  -3.524  0.00  0.00    -0.084 HD
ENDBRANCH  18  29
ENDBRANCH   1  20
TORSDOF 6
