REMARK  Name = ZINC39529487
REMARK  8 active torsions:
REMARK  status: ('A' for Active; 'I' for Inactive)
REMARK    1  A    between atoms: C_1  and  C_2
REMARK    2  A    between atoms: C_2  and  C_3
REMARK    3  A    between atoms: C_2  and  C_4
REMARK    4  A    between atoms: C_4  and  C_5
REMARK    5  A    between atoms: C_10  and  N_11
REMARK    6  A    between atoms: C_15  and  S_18
REMARK    7  A    between atoms: S_18  and  O_21
REMARK    8  A    between atoms: O_21  and  C_22
REMARK                            x       y       z     vdW  Elec       q    Type
REMARK                         _______ _______ _______ _____ _____    ______ ____
ROOT
ATOM      1  N   UNL     1      -1.204  -2.080  -2.364  0.00  0.00    -0.331 N 
ATOM      2  C   UNL     1      -1.796  -3.379  -2.009  0.00  0.00    +0.086 C 
ATOM      3  C   UNL     1      -1.393  -4.403  -3.075  0.00  0.00    -0.061 C 
ATOM      4  N   UNL     1       0.069  -4.419  -3.210  0.00  0.00    +0.398 N 
ATOM      5  C   UNL     1       0.539  -3.122  -3.711  0.00  0.00    +0.133 C 
ATOM      6  C   UNL     1       0.231  -2.035  -2.682  0.00  0.00    +0.115 C 
ATOM      7  H   UNL     1       0.486  -4.602  -2.310  0.00  0.00    -0.083 HD
ATOM      8  H   UNL     1       0.338  -5.146  -3.857  0.00  0.00    -0.083 HD
ENDROOT
BRANCH   1  14
ATOM      9  C   UNL     1      -2.125  -0.137  -1.266  0.00  0.00    -0.025 A 
ATOM     10  C   UNL     1      -2.893   1.010  -1.310  0.00  0.00    +0.019 A 
ATOM     11  C   UNL     1      -3.528   1.374  -2.483  0.00  0.00    +0.014 A 
ATOM     12  C   UNL     1      -3.396   0.591  -3.617  0.00  0.00    +0.016 A 
ATOM     13  C   UNL     1      -2.629  -0.556  -3.579  0.00  0.00    +0.024 A 
ATOM     14  C   UNL     1      -1.986  -0.922  -2.404  0.00  0.00    +0.033 A 
ATOM     15  I   UNL     1      -4.692   3.115  -2.545  0.00  0.00    -0.044 I 
BRANCH   9  16
ATOM     16  C   UNL     1      -1.433  -0.534   0.013  0.00  0.00    +0.040 C 
BRANCH  16  18
ATOM     17  C   UNL     1      -0.019   1.526   0.010  0.00  0.00    +0.007 C 
ATOM     18  C   UNL     1       0.002  -0.004   0.002  0.00  0.00    -0.013 C 
ATOM     19  C   UNL     1       0.742  -0.511   1.242  0.00  0.00    +0.007 C 
ENDBRANCH  16  18
ENDBRANCH   9  16
ENDBRANCH   1  14
BRANCH   5  20
ATOM     20  S   UNL     1       2.329  -3.196  -3.998  0.00  0.00    +0.109 S 
ATOM     21  O   UNL     1       2.770  -2.013  -4.648  0.00  0.00    -0.138 OA
ATOM     22  O   UNL     1       2.991  -3.674  -2.835  0.00  0.00    -0.138 OA
BRANCH  20  23
ATOM     23  O   UNL     1       2.514  -4.299  -5.030  0.00  0.00    -0.347 OA
BRANCH  23  24
ATOM     24  C   UNL     1       2.156  -3.941  -6.292  0.00  0.00    +0.156 A 
ATOM     25  C   UNL     1       0.853  -4.136  -6.726  0.00  0.00    +0.048 A 
ATOM     26  C   UNL     1       0.492  -3.771  -8.008  0.00  0.00    +0.004 A 
ATOM     27  C   UNL     1       1.428  -3.212  -8.859  0.00  0.00    +0.000 A 
ATOM     28  C   UNL     1       2.727  -3.017  -8.428  0.00  0.00    +0.004 A 
ATOM     29  C   UNL     1       3.092  -3.375  -7.145  0.00  0.00    +0.048 A 
ENDBRANCH  23  24
ENDBRANCH  20  23
ENDBRANCH   5  20
TORSDOF 6
