REMARK  Name = ZINC16392971
REMARK  11 active torsions:
REMARK  status: ('A' for Active; 'I' for Inactive)
REMARK    1  A    between atoms: C_1  and  C_2
REMARK    2  A    between atoms: C_5  and  C_7
REMARK    3  A    between atoms: C_12  and  C_17
REMARK    4  A    between atoms: C_20  and  N_23
REMARK    5  A    between atoms: N_23  and  C_24
REMARK    6  A    between atoms: N_23  and  C_25
REMARK    7  A    between atoms: C_27  and  C_39
REMARK    8  A    between atoms: C_28  and  C_29
REMARK    9  A    between atoms: C_29  and  O_31
REMARK   10  A    between atoms: O_31  and  C_32
REMARK   11  A    between atoms: C_32  and  C_33
REMARK                            x       y       z     vdW  Elec       q    Type
REMARK                         _______ _______ _______ _____ _____    ______ ____
ROOT
ATOM      1  C   UNL     1      -0.068   4.243  -0.133  0.00  0.00    +0.128 C 
ATOM      2  C   UNL     1       0.153   5.661   0.337  0.00  0.00    +0.027 C 
ATOM      3  C   UNL     1       1.399   6.175   0.414  0.00  0.00    +0.016 C 
ATOM      4  C   UNL     1       1.625   7.600   0.854  0.00  0.00    +0.059 C 
ATOM      5  C   UNL     1       0.533   8.011   1.844  0.00  0.00    +0.032 C 
ATOM      6  C   UNL     1      -0.829   7.849   1.161  0.00  0.00    +0.088 C 
ATOM      7  C   UNL     1      -0.972   6.430   0.683  0.00  0.00    +0.162 C 
ATOM      8  O   UNL     1      -2.080   5.939   0.595  0.00  0.00    -0.292 OA
ATOM      9  N   UNL     1       2.487   5.410   0.088  0.00  0.00    -0.321 N 
ATOM     10  C   UNL     1       2.397   4.047   0.058  0.00  0.00    +0.016 C 
ATOM     11  C   UNL     1       1.199   3.445  -0.041  0.00  0.00    +0.068 C 
ATOM     12  C   UNL     1       3.650   3.212   0.136  0.00  0.00    +0.061 C 
ATOM     13  H   UNL     1       3.446   5.893  -0.152  0.00  0.00    +0.152 HD
ENDROOT
BRANCH   1  18
ATOM     14  C   UNL     1      -0.159   5.010  -5.117  0.00  0.00    +0.086 C 
ATOM     15  C   UNL     1      -0.579   4.593  -3.731  0.00  0.00    +0.102 A 
ATOM     16  C   UNL     1      -1.745   4.005  -3.406  0.00  0.00    +0.044 A 
ATOM     17  C   UNL     1      -1.717   3.785  -2.010  0.00  0.00    +0.046 A 
ATOM     18  C   UNL     1      -0.539   4.259  -1.564  0.00  0.00    +0.117 A 
ATOM     19  O   UNL     1       0.147   4.744  -2.612  0.00  0.00    -0.464 OA
ENDBRANCH   1  18
BRANCH   5  20
ATOM     20  C   UNL     1       0.730   9.450   2.246  0.00  0.00    -0.043 A 
ATOM     21  C   UNL     1       0.727  10.442   1.283  0.00  0.00    +0.006 A 
ATOM     22  C   UNL     1       0.901  11.762   1.649  0.00  0.00    +0.023 A 
ATOM     23  C   UNL     1       1.092  12.092   2.985  0.00  0.00    +0.029 A 
ATOM     24  C   UNL     1       1.101  11.092   3.949  0.00  0.00    +0.023 A 
ATOM     25  C   UNL     1       0.920   9.774   3.577  0.00  0.00    +0.006 A 
BRANCH  23  26
ATOM     26  N   UNL     1       1.275  13.425   3.357  0.00  0.00    -0.336 N 
ATOM     27  C   UNL     1       1.588  13.761   4.749  0.00  0.00    +0.129 C 
ATOM     28  C   UNL     1       1.155  14.489   2.357  0.00  0.00    +0.129 C 
ENDBRANCH  23  26
ENDBRANCH   5  20
BRANCH  11  29
ATOM     29  C   UNL     1       1.133   2.032  -0.064  0.00  0.00    +0.338 C 
ATOM     30  O   UNL     1       2.156   1.375  -0.102  0.00  0.00    -0.245 OA
BRANCH  29  31
ATOM     31  O   UNL     1      -0.066   1.413  -0.044  0.00  0.00    -0.457 OA
BRANCH  31  32
ATOM     32  C   UNL     1      -0.059  -0.016  -0.069  0.00  0.00    +0.268 C 
BRANCH  32  33
ATOM     33  C   UNL     1      -1.476  -0.526  -0.041  0.00  0.00    -0.010 A 
ATOM     34  C   UNL     1      -2.094  -0.787   1.168  0.00  0.00    +0.007 A 
ATOM     35  C   UNL     1      -3.396  -1.250   1.194  0.00  0.00    +0.000 A 
ATOM     36  C   UNL     1      -4.077  -1.462   0.010  0.00  0.00    +0.000 A 
ATOM     37  C   UNL     1      -3.458  -1.207  -1.199  0.00  0.00    +0.000 A 
ATOM     38  C   UNL     1      -2.158  -0.739  -1.225  0.00  0.00    +0.007 A 
ENDBRANCH  32  33
ENDBRANCH  31  32
ENDBRANCH  29  31
ENDBRANCH  11  29
TORSDOF 7
