REMARK  Name = ZINC09403149
REMARK  8 active torsions:
REMARK  status: ('A' for Active; 'I' for Inactive)
REMARK    1  A    between atoms: C_1  and  C_2
REMARK    2  A    between atoms: C_2  and  C_4
REMARK    3  A    between atoms: C_2  and  S_17
REMARK    4  A    between atoms: N_6  and  C_7
REMARK    5  A    between atoms: C_10  and  N_14
REMARK    6  A    between atoms: S_17  and  C_18
REMARK    7  A    between atoms: N_30  and  C_31
REMARK    8  A    between atoms: C_31  and  C_32
REMARK                            x       y       z     vdW  Elec       q    Type
REMARK                         _______ _______ _______ _____ _____    ______ ____
ROOT
ATOM      1  S   UNL     1       2.588   0.964  -0.714  0.00  0.00    -0.075 S 
ENDROOT
BRANCH   1   2
ATOM      2  C   UNL     1       3.910   2.129  -0.723  0.00  0.00    +0.174 A 
ATOM      3  N   UNL     1       3.708   3.345  -0.255  0.00  0.00    -0.216 NA
ATOM      4  C   UNL     1       4.688   4.241  -0.250  0.00  0.00    +0.117 A 
ATOM      5  C   UNL     1       5.971   3.946  -0.734  0.00  0.00    +0.076 A 
ATOM      6  C   UNL     1       6.954   5.040  -0.663  0.00  0.00    -0.023 A 
ATOM      7  C   UNL     1       6.531   6.206  -0.150  0.00  0.00    -0.004 A 
ATOM      8  S   UNL     1       4.825   5.931   0.271  0.00  0.00    -0.073 S 
ATOM      9  C   UNL     1       7.617   7.247  -0.132  0.00  0.00    +0.043 C 
ATOM     10  C   UNL     1       8.686   6.709  -1.108  0.00  0.00    +0.010 C 
ATOM     11  C   UNL     1       8.429   5.191  -1.048  0.00  0.00    +0.037 C 
ATOM     12  C   UNL     1       6.163   2.621  -1.235  0.00  0.00    +0.263 A 
ATOM     13  O   UNL     1       7.247   2.277  -1.675  0.00  0.00    -0.267 OA
ATOM     14  N   UNL     1       5.131   1.758  -1.208  0.00  0.00    -0.283 N 
BRANCH  14  15
ATOM     15  C   UNL     1       5.319   0.396  -1.714  0.00  0.00    +0.154 C 
BRANCH  15  16
ATOM     16  C   UNL     1       4.997   0.358  -3.186  0.00  0.00    -0.013 C 
ATOM     17  C   UNL     1       5.882  -0.098  -4.038  0.00  0.00    +0.005 C 
ENDBRANCH  15  16
ENDBRANCH  14  15
ENDBRANCH   1   2
BRANCH   1  19
ATOM     18  C   UNL     1       1.658   2.335   1.458  0.00  0.00    +0.029 C 
ATOM     19  C   UNL     1       1.280   1.979   0.019  0.00  0.00    +0.137 C 
BRANCH  19  20
ATOM     20  C   UNL     1      -0.015   1.208   0.015  0.00  0.00    +0.230 C 
ATOM     21  O   UNL     1       0.001  -0.005   0.005  0.00  0.00    -0.274 OA
ATOM     22  N   UNL     1      -1.191   1.867   0.018  0.00  0.00    -0.283 N 
ATOM     23  H   UNL     1      -1.205   2.834   0.092  0.00  0.00    +0.155 HD
BRANCH  22  24
ATOM     24  C   UNL     1      -2.392   1.155  -0.086  0.00  0.00    +0.052 A 
ATOM     25  C   UNL     1      -2.510  -0.099   0.499  0.00  0.00    +0.027 A 
ATOM     26  C   UNL     1      -3.696  -0.798   0.395  0.00  0.00    +0.034 A 
ATOM     27  C   UNL     1      -4.766  -0.252  -0.290  0.00  0.00    +0.128 A 
ATOM     28  C   UNL     1      -4.652   0.996  -0.874  0.00  0.00    +0.054 A 
ATOM     29  C   UNL     1      -3.469   1.704  -0.770  0.00  0.00    +0.064 A 
ATOM     30 CL   UNL     1      -3.329   3.274  -1.497  0.00  0.00    -0.082 Cl
BRANCH  27  31
ATOM     31  N   UNL     1      -6.036  -1.005  -0.399  0.00  0.00    +0.056 N 
ATOM     32  O   UNL     1      -6.138  -2.104   0.115  0.00  0.00    -0.126 OA
ATOM     33  O   UNL     1      -6.979  -0.525  -1.002  0.00  0.00    -0.126 OA
ENDBRANCH  27  31
ENDBRANCH  22  24
ENDBRANCH  19  20
ENDBRANCH   1  19
TORSDOF 7
