REMARK  Name = ZINC02123850
REMARK  7 active torsions:
REMARK  status: ('A' for Active; 'I' for Inactive)
REMARK    1  A    between atoms: C_1  and  C_2
REMARK    2  A    between atoms: C_7  and  C_20
REMARK    3  A    between atoms: C_12  and  C_13
REMARK    4  A    between atoms: C_13  and  C_14
REMARK    5  A    between atoms: C_24  and  C_26
REMARK    6  A    between atoms: C_24  and  C_27
REMARK    7  A    between atoms: C_24  and  N_59
REMARK                            x       y       z     vdW  Elec       q    Type
REMARK                         _______ _______ _______ _____ _____    ______ ____
ROOT
ATOM      1  C   UNL     1      -9.501   4.733   3.006  0.00  0.00    +0.045 C 
ATOM      2  C   UNL     1      -9.213   3.260   3.148  0.00  0.00    -0.030 A 
ATOM      3  C   UNL     1      -7.965   2.681   2.646  0.00  0.00    +0.021 A 
ATOM      4  C   UNL     1      -7.003   3.480   2.018  0.00  0.00    +0.017 A 
ATOM      5  C   UNL     1      -5.846   2.921   1.555  0.00  0.00    -0.021 A 
ATOM      6  C   UNL     1      -5.616   1.556   1.707  0.00  0.00    +0.125 A 
ATOM      7  C   UNL     1      -6.560   0.750   2.327  0.00  0.00    +0.034 A 
ATOM      8  C   UNL     1      -7.742   1.301   2.802  0.00  0.00    +0.146 A 
ATOM      9  O   UNL     1      -8.662   0.522   3.404  0.00  0.00    -0.422 OA
ATOM     10  C   UNL     1      -9.800   1.054   3.862  0.00  0.00    +0.341 A 
ATOM     11  O   UNL     1     -10.609   0.322   4.402  0.00  0.00    -0.245 OA
ATOM     12  C   UNL     1     -10.102   2.425   3.747  0.00  0.00    +0.045 A 
ATOM     13  C   UNL     1      -6.302  -0.727   2.483  0.00  0.00    +0.051 C 
ATOM     14  O   UNL     1      -4.465   0.991   1.255  0.00  0.00    -0.509 OA
ATOM     15  C   UNL     1      -3.693   1.747   0.320  0.00  0.00    +0.158 C 
ATOM     16  C   UNL     1      -4.825   3.802   0.880  0.00  0.00    -0.034 C 
ATOM     17  N   UNL     1      -3.523   3.109   0.866  0.00  0.00    +0.409 N 
ATOM     18  H   UNL     1      -3.167   3.043   1.827  0.00  0.00    -0.075 HD
ENDROOT
BRANCH  17  19
ATOM     19  C   UNL     1      -2.553   3.869   0.044  0.00  0.00    -0.036 C 
ATOM     20  C   UNL     1      -2.939   3.795  -1.435  0.00  0.00    -0.008 C 
BRANCH  19  21
ATOM     21  C   UNL     1      -1.180   3.276   0.234  0.00  0.00    -0.061 A 
ATOM     22  C   UNL     1      -0.273   3.285  -0.808  0.00  0.00    +0.002 A 
ATOM     23  C   UNL     1       0.985   2.738  -0.635  0.00  0.00    +0.000 A 
ATOM     24  C   UNL     1       1.338   2.190   0.584  0.00  0.00    +0.000 A 
ATOM     25  C   UNL     1       0.432   2.185   1.628  0.00  0.00    +0.000 A 
ATOM     26  C   UNL     1      -0.827   2.728   1.453  0.00  0.00    +0.002 A 
ENDBRANCH  19  21
ENDBRANCH  17  19
BRANCH  12  27
ATOM     27  C   UNL     1     -11.404   2.961   4.284  0.00  0.00    +0.077 C 
BRANCH  27  28
ATOM     28  C   UNL     1     -12.456   2.898   3.207  0.00  0.00    -0.043 A 
ATOM     29  C   UNL     1     -12.638   3.970   2.354  0.00  0.00    +0.004 A 
ATOM     30  C   UNL     1     -13.599   3.910   1.363  0.00  0.00    +0.000 A 
ATOM     31  C   UNL     1     -14.386   2.781   1.230  0.00  0.00    +0.000 A 
ATOM     32  C   UNL     1     -14.207   1.710   2.087  0.00  0.00    +0.000 A 
ATOM     33  C   UNL     1     -13.242   1.769   3.075  0.00  0.00    +0.004 A 
ENDBRANCH  27  28
ENDBRANCH  12  27
TORSDOF 4
