REMARK  Name = ZINC35245130
REMARK  10 active torsions:
REMARK  status: ('A' for Active; 'I' for Inactive)
REMARK    1  A    between atoms: C_1  and  C_2
REMARK    2  A    between atoms: C_2  and  C_4
REMARK    3  A    between atoms: C_2  and  N_10
REMARK    4  A    between atoms: C_11  and  C_13
REMARK    5  A    between atoms: C_16  and  C_18
REMARK    6  A    between atoms: C_18  and  N_19
REMARK    7  A    between atoms: N_19  and  C_20
REMARK    8  A    between atoms: N_19  and  C_27
REMARK    9  A    between atoms: C_20  and  C_21
REMARK   10  A    between atoms: C_27  and  C_28
REMARK                            x       y       z     vdW  Elec       q    Type
REMARK                         _______ _______ _______ _____ _____    ______ ____
ROOT
ATOM      1  C   UNL     1       3.628  -1.947  -5.558  0.00  0.00    -0.002 C 
ENDROOT
BRANCH   1   5
ATOM      2  C   UNL     1       0.683  -0.445  -4.005  0.00  0.00    +0.189 A 
ATOM      3  C   UNL     1       0.169  -0.723  -5.238  0.00  0.00    +0.055 A 
ATOM      4  C   UNL     1       1.199  -1.320  -5.981  0.00  0.00    +0.043 A 
ATOM      5  C   UNL     1       2.285  -1.379  -5.178  0.00  0.00    +0.090 A 
ATOM      6  O   UNL     1       1.971  -0.847  -3.990  0.00  0.00    -0.457 OA
BRANCH   2   8
ATOM      7  N   UNL     1       0.595   0.410  -1.723  0.00  0.00    -0.302 N 
ATOM      8  C   UNL     1      -0.036   0.185  -2.893  0.00  0.00    +0.280 C 
ATOM      9  O   UNL     1      -1.202   0.506  -3.026  0.00  0.00    -0.267 OA
ATOM     10  H   UNL     1       1.525   0.154  -1.617  0.00  0.00    +0.150 HD
BRANCH   7  12
ATOM     11  C   UNL     1      -0.067   2.561  -0.766  0.00  0.00    +0.033 C 
ATOM     12  C   UNL     1      -0.123   1.040  -0.612  0.00  0.00    +0.100 C 
BRANCH  12  13
ATOM     13  C   UNL     1       0.520   0.642   0.691  0.00  0.00    -0.027 A 
ATOM     14  C   UNL     1       1.897   0.572   0.790  0.00  0.00    +0.005 A 
ATOM     15  C   UNL     1       2.487   0.208   1.986  0.00  0.00    +0.000 A 
ATOM     16  C   UNL     1       1.700  -0.086   3.083  0.00  0.00    +0.000 A 
ATOM     17  C   UNL     1       0.323  -0.015   2.985  0.00  0.00    +0.000 A 
ATOM     18  C   UNL     1      -0.267   0.353   1.790  0.00  0.00    +0.005 A 
ENDBRANCH  12  13
ENDBRANCH   7  12
ENDBRANCH   2   8
ENDBRANCH   1   5
BRANCH   1  19
ATOM     19  N   UNL     1       4.465  -0.884  -6.131  0.00  0.00    +0.390 N 
ATOM     20  H   UNL     1       3.978  -0.451  -6.901  0.00  0.00    -0.080 HD
BRANCH  19  21
ATOM     21  C   UNL     1       5.728  -1.460  -6.611  0.00  0.00    -0.042 C 
BRANCH  21  22
ATOM     22  C   UNL     1       5.449  -2.392  -7.762  0.00  0.00    -0.064 A 
ATOM     23  C   UNL     1       5.314  -3.749  -7.536  0.00  0.00    +0.002 A 
ATOM     24  C   UNL     1       5.059  -4.604  -8.592  0.00  0.00    +0.000 A 
ATOM     25  C   UNL     1       4.938  -4.101  -9.874  0.00  0.00    +0.000 A 
ATOM     26  C   UNL     1       5.072  -2.744 -10.100  0.00  0.00    +0.000 A 
ATOM     27  C   UNL     1       5.323  -1.889  -9.044  0.00  0.00    +0.002 A 
ENDBRANCH  21  22
ENDBRANCH  19  21
BRANCH  19  28
ATOM     28  C   UNL     1       4.747   0.125  -5.101  0.00  0.00    -0.039 C 
BRANCH  28  29
ATOM     29  C   UNL     1       5.502   1.274  -5.718  0.00  0.00    -0.029 A 
ATOM     30  C   UNL     1       6.857   1.415  -5.486  0.00  0.00    +0.004 A 
ATOM     31  C   UNL     1       7.550   2.469  -6.051  0.00  0.00    +0.000 A 
ATOM     32  C   UNL     1       6.888   3.384  -6.849  0.00  0.00    +0.003 A 
ATOM     33  C   UNL     1       5.533   3.245  -7.082  0.00  0.00    +0.038 A 
ATOM     34  C   UNL     1       4.839   2.186  -6.521  0.00  0.00    +0.125 A 
ATOM     35  F   UNL     1       3.515   2.047  -6.752  0.00  0.00    -0.205 F 
ENDBRANCH  28  29
ENDBRANCH  19  28
ENDBRANCH   1  19
TORSDOF 9
