REMARK  Name = ZINC20081798
REMARK  10 active torsions:
REMARK  status: ('A' for Active; 'I' for Inactive)
REMARK    1  A    between atoms: C_1  and  C_2
REMARK    2  A    between atoms: C_4  and  C_34
REMARK    3  A    between atoms: C_7  and  C_13
REMARK    4  A    between atoms: C_13  and  N_14
REMARK    5  A    between atoms: N_14  and  C_15
REMARK    6  A    between atoms: N_14  and  C_21
REMARK    7  A    between atoms: C_15  and  C_16
REMARK    8  A    between atoms: C_21  and  C_22
REMARK    9  A    between atoms: N_26  and  C_27
REMARK   10  A    between atoms: C_27  and  C_28
REMARK                            x       y       z     vdW  Elec       q    Type
REMARK                         _______ _______ _______ _____ _____    ______ ____
ROOT
ATOM      1  N   UNL     1       1.526  -6.741   1.376  0.00  0.00    +0.390 N 
ATOM      2  H   UNL     1       1.942  -6.369   2.217  0.00  0.00    -0.080 HD
ENDROOT
BRANCH   1   3
ATOM      3  C   UNL     1       0.130  -6.294   1.280  0.00  0.00    -0.036 C 
BRANCH   3  10
ATOM      4  C   UNL     1      -3.525  -7.342   8.292  0.00  0.00    +0.044 C 
ATOM      5  C   UNL     1      -2.783  -6.930   7.047  0.00  0.00    -0.048 A 
ATOM      6  C   UNL     1      -2.226  -5.661   6.967  0.00  0.00    +0.007 A 
ATOM      7  C   UNL     1      -1.550  -5.268   5.847  0.00  0.00    -0.041 A 
ATOM      8  C   UNL     1      -1.417  -6.152   4.771  0.00  0.00    +0.002 A 
ATOM      9  C   UNL     1      -0.699  -5.763   3.556  0.00  0.00    +0.017 A 
ATOM     10  C   UNL     1      -0.603  -6.662   2.545  0.00  0.00    +0.001 A 
ATOM     11  C   UNL     1      -1.186  -7.941   2.673  0.00  0.00    +0.251 A 
ATOM     12  N   UNL     1      -1.848  -8.306   3.784  0.00  0.00    -0.322 N 
ATOM     13  C   UNL     1      -1.981  -7.439   4.848  0.00  0.00    +0.050 A 
ATOM     14  C   UNL     1      -2.660  -7.819   6.001  0.00  0.00    +0.029 A 
ATOM     15  O   UNL     1      -1.088  -8.733   1.752  0.00  0.00    -0.268 OA
ATOM     16  C   UNL     1      -0.949  -3.888   5.771  0.00  0.00    +0.044 C 
ATOM     17  H   UNL     1      -2.238  -9.193   3.839  0.00  0.00    +0.169 HD
ENDBRANCH   3  10
ENDBRANCH   1   3
BRANCH   1  18
ATOM     18  C   UNL     1       2.275  -6.262   0.206  0.00  0.00    -0.035 C 
BRANCH  18  19
ATOM     19  C   UNL     1       2.349  -4.757   0.239  0.00  0.00    -0.027 A 
ATOM     20  C   UNL     1       3.229  -3.960   0.891  0.00  0.00    +0.009 A 
ATOM     21  C   UNL     1       3.105  -2.588   0.775  0.00  0.00    +0.008 A 
ATOM     22  C   UNL     1       2.105  -2.081   0.013  0.00  0.00    +0.045 A 
ATOM     23  S   UNL     1       1.303  -3.562  -0.578  0.00  0.00    -0.103 S 
ENDBRANCH  18  19
ENDBRANCH   1  18
BRANCH   1  24
ATOM     24  C   UNL     1       1.569  -8.209   1.417  0.00  0.00    +0.001 C 
BRANCH  24  25
ATOM     25  C   UNL     1       2.988  -8.665   1.638  0.00  0.00    +0.135 A 
ATOM     26  N   UNL     1       3.881  -8.920   0.713  0.00  0.00    -0.115 NA
ATOM     27  N   UNL     1       4.970  -9.281   1.300  0.00  0.00    -0.023 NA
ATOM     28  N   UNL     1       4.795  -9.262   2.575  0.00  0.00    -0.044 NA
ATOM     29  N   UNL     1       3.587  -8.882   2.824  0.00  0.00    -0.229 N 
BRANCH  29  30
ATOM     30  C   UNL     1       2.980  -8.721   4.147  0.00  0.00    +0.178 C 
BRANCH  30  31
ATOM     31  C   UNL     1       2.333 -10.040   4.576  0.00  0.00    +0.140 C 
ATOM     32  C   UNL     1       1.588  -9.847   5.914  0.00  0.00    +0.035 C 
ATOM     33  C   UNL     1       1.901 -11.173   6.659  0.00  0.00    +0.031 C 
ATOM     34  C   UNL     1       3.337 -11.463   6.153  0.00  0.00    +0.160 C 
ATOM     35  O   UNL     1       3.345 -11.033   4.781  0.00  0.00    -0.375 OA
ENDBRANCH  30  31
ENDBRANCH  29  30
ENDBRANCH  24  25
ENDBRANCH   1  24
TORSDOF 8
