REMARK  Name = ZINC39664999
REMARK  11 active torsions:
REMARK  status: ('A' for Active; 'I' for Inactive)
REMARK    1  A    between atoms: C_1  and  C_2
REMARK    2  A    between atoms: C_2  and  C_3
REMARK    3  A    between atoms: C_3  and  C_4
REMARK    4  A    between atoms: C_4  and  C_6
REMARK    5  A    between atoms: C_4  and  C_7
REMARK    6  A    between atoms: C_11  and  C_20
REMARK    7  A    between atoms: N_22  and  C_23
REMARK    8  A    between atoms: C_23  and  C_24
REMARK    9  A    between atoms: C_24  and  C_26
REMARK   10  A    between atoms: C_24  and  O_27
REMARK   11  A    between atoms: O_27  and  C_28
REMARK                            x       y       z     vdW  Elec       q    Type
REMARK                         _______ _______ _______ _____ _____    ______ ____
ROOT
ATOM      1  C   UNL     1      -2.788  -2.267  -0.160  0.00  0.00    +0.218 C 
ATOM      2  O   UNL     1      -3.708  -1.506  -0.372  0.00  0.00    -0.275 OA
ATOM      3  N   UNL     1      -3.021  -3.590  -0.045  0.00  0.00    -0.300 N 
ATOM      4  C   UNL     1      -2.055  -4.654   0.317  0.00  0.00    +0.121 C 
ATOM      5  C   UNL     1      -2.852  -5.609   1.232  0.00  0.00    +0.100 C 
ATOM      6  C   UNL     1      -4.324  -5.380   0.853  0.00  0.00    -0.004 C 
ATOM      7  C   UNL     1      -4.302  -4.308  -0.246  0.00  0.00    +0.115 C 
ATOM      8  C   UNL     1      -5.108  -4.873   2.060  0.00  0.00    -0.010 C 
ATOM      9  C   UNL     1      -6.581  -4.706   1.673  0.00  0.00    -0.082 C 
ATOM     10  N   UNL     1      -7.118  -5.995   1.221  0.00  0.00    +0.379 N 
ATOM     11  C   UNL     1      -6.420  -6.431   0.005  0.00  0.00    -0.082 C 
ATOM     12  C   UNL     1      -4.941  -6.670   0.322  0.00  0.00    -0.010 C 
ATOM     13  H   UNL     1      -6.990  -6.685   1.946  0.00  0.00    -0.086 HD
ATOM     14  H   UNL     1      -8.103  -5.897   1.024  0.00  0.00    -0.086 HD
ENDROOT
BRANCH   5  15
ATOM     15  C   UNL     1      -2.457  -7.040   0.969  0.00  0.00    +0.218 C 
ATOM     16  O   UNL     1      -2.161  -7.390  -0.154  0.00  0.00    -0.275 OA
ATOM     17  N   UNL     1      -2.432  -7.929   1.981  0.00  0.00    -0.312 N 
ATOM     18  H   UNL     1      -2.669  -7.649   2.879  0.00  0.00    +0.149 HD
BRANCH  17  19
ATOM     19  C   UNL     1      -2.048  -9.320   1.725  0.00  0.00    +0.148 C 
BRANCH  19  20
ATOM     20  C   UNL     1      -2.103 -10.113   3.032  0.00  0.00    +0.187 C 
ATOM     21  C   UNL     1      -1.701 -11.565   2.765  0.00  0.00    +0.053 C 
BRANCH  20  22
ATOM     22  O   UNL     1      -1.200  -9.536   3.978  0.00  0.00    -0.488 OA
BRANCH  22  23
ATOM     23  C   UNL     1      -1.469  -9.742   5.294  0.00  0.00    +0.121 A 
ATOM     24  C   UNL     1      -0.708  -9.110   6.266  0.00  0.00    +0.045 A 
ATOM     25  C   UNL     1      -0.985  -9.322   7.603  0.00  0.00    +0.004 A 
ATOM     26  C   UNL     1      -2.018 -10.162   7.972  0.00  0.00    +0.000 A 
ATOM     27  C   UNL     1      -2.778 -10.793   7.005  0.00  0.00    +0.004 A 
ATOM     28  C   UNL     1      -2.510 -10.581   5.667  0.00  0.00    +0.045 A 
ENDBRANCH  22  23
ENDBRANCH  20  22
ENDBRANCH  19  20
ENDBRANCH  17  19
ENDBRANCH   5  15
BRANCH   1  29
ATOM     29  C   UNL     1      -1.385  -1.734  -0.023  0.00  0.00    +0.072 C 
ATOM     30  C   UNL     1      -1.071  -1.499   1.456  0.00  0.00    +0.017 C 
BRANCH  29  31
ATOM     31  C   UNL     1      -1.265  -0.413  -0.786  0.00  0.00    +0.012 C 
BRANCH  31  33
ATOM     32  C   UNL     1       0.308   1.385  -1.516  0.00  0.00    +0.004 C 
ATOM     33  C   UNL     1       0.188   0.065  -0.753  0.00  0.00    -0.003 C 
ENDBRANCH  31  33
ENDBRANCH  29  31
ENDBRANCH   1  29
TORSDOF 8
