REMARK  Name = ZINC39899300
REMARK  13 active torsions:
REMARK  status: ('A' for Active; 'I' for Inactive)
REMARK    1  A    between atoms: C_1  and  C_2
REMARK    2  A    between atoms: C_2  and  O_3
REMARK    3  A    between atoms: O_3  and  C_4
REMARK    4  A    between atoms: C_6  and  C_11
REMARK    5  A    between atoms: C_9  and  O_10
REMARK    6  A    between atoms: C_14  and  C_29
REMARK    7  A    between atoms: N_21  and  C_22
REMARK    8  A    between atoms: C_22  and  C_23
REMARK    9  A    between atoms: C_23  and  C_24
REMARK   10  A    between atoms: C_24  and  O_25
REMARK   11  A    between atoms: O_25  and  C_26
REMARK   12  A    between atoms: C_26  and  C_27
REMARK   13  A    between atoms: C_26  and  C_28
REMARK                            x       y       z     vdW  Elec       q    Type
REMARK                         _______ _______ _______ _____ _____    ______ ____
ROOT
ATOM      1  C   UNL     1      -0.217  -4.963  -0.535  0.00  0.00    +0.141 C 
ATOM      2  C   UNL     1       0.869  -5.494  -1.431  0.00  0.00    +0.035 A 
ATOM      3  C   UNL     1       1.856  -5.221  -2.323  0.00  0.00    +0.075 A 
ATOM      4  N   UNL     1       2.403  -6.420  -2.681  0.00  0.00    -0.276 N 
ATOM      5  N   UNL     1       1.806  -7.376  -2.062  0.00  0.00    -0.168 NA
ATOM      6  H   UNL     1       3.133  -6.534  -3.309  0.00  0.00    +0.189 HD
ATOM      7  C   UNL     1       0.858  -6.899  -1.280  0.00  0.00    +0.153 A 
ATOM      8  C   UNL     1      -0.204  -7.242  -0.317  0.00  0.00    +0.268 C 
ATOM      9  O   UNL     1      -0.479  -8.372   0.038  0.00  0.00    -0.268 OA
ATOM     10  N   UNL     1      -0.826  -6.130   0.114  0.00  0.00    -0.285 N 
ENDROOT
BRANCH   3  11
ATOM     11  C   UNL     1       2.261  -3.885  -2.812  0.00  0.00    +0.048 A 
ATOM     12  C   UNL     1       2.087  -3.548  -4.154  0.00  0.00    +0.033 A 
ATOM     13  C   UNL     1       2.466  -2.300  -4.605  0.00  0.00    +0.042 A 
ATOM     14  C   UNL     1       3.018  -1.380  -3.729  0.00  0.00    +0.024 A 
ATOM     15  C   UNL     1       3.194  -1.704  -2.397  0.00  0.00    +0.053 A 
ATOM     16  C   UNL     1       2.813  -2.951  -1.929  0.00  0.00    +0.188 A 
ATOM     17  O   UNL     1       2.981  -3.267  -0.619  0.00  0.00    -0.287 OA
ATOM     18 CL   UNL     1       2.251  -1.881  -6.276  0.00  0.00    -0.084 Cl
ENDBRANCH   3  11
BRANCH   1  21
ATOM     19  C   UNL     1       0.802  -1.825   1.306  0.00  0.00    +0.162 A 
ATOM     20  C   UNL     1       0.261  -2.673   0.353  0.00  0.00    +0.055 A 
ATOM     21  C   UNL     1       0.372  -4.043   0.502  0.00  0.00    -0.019 A 
ATOM     22  C   UNL     1       1.024  -4.570   1.602  0.00  0.00    +0.009 A 
ATOM     23  C   UNL     1       1.566  -3.730   2.557  0.00  0.00    +0.049 A 
ATOM     24  C   UNL     1       1.462  -2.356   2.410  0.00  0.00    +0.158 A 
BRANCH  24  25
ATOM     25  O   UNL     1       2.000  -1.528   3.345  0.00  0.00    -0.503 OA
ATOM     26  H   UNL     1       1.395  -1.301   4.064  0.00  0.00    +0.292 HD
ENDBRANCH  24  25
BRANCH  19  27
ATOM     27  O   UNL     1       0.693  -0.477   1.160  0.00  0.00    -0.489 OA
BRANCH  27  29
ATOM     28  C   UNL     1      -0.019   1.526   0.010  0.00  0.00    +0.048 C 
ATOM     29  C   UNL     1       0.002  -0.004   0.002  0.00  0.00    +0.226 C 
ENDBRANCH  27  29
ENDBRANCH  19  27
ENDBRANCH   1  21
BRANCH  10  30
ATOM     30  C   UNL     1      -1.930  -6.089   1.076  0.00  0.00    +0.111 C 
BRANCH  30  31
ATOM     31  C   UNL     1      -3.261  -6.183   0.328  0.00  0.00    +0.047 C 
BRANCH  31  32
ATOM     32  C   UNL     1      -4.415  -6.140   1.332  0.00  0.00    +0.161 C 
BRANCH  32  33
ATOM     33  O   UNL     1      -5.658  -6.228   0.634  0.00  0.00    -0.377 OA
BRANCH  33  34
ATOM     34  C   UNL     1      -6.806  -6.197   1.484  0.00  0.00    +0.112 C 
ATOM     35  C   UNL     1      -7.257  -4.748   1.680  0.00  0.00    +0.037 C 
ATOM     36  C   UNL     1      -7.939  -7.001   0.843  0.00  0.00    +0.037 C 
ENDBRANCH  33  34
ENDBRANCH  32  33
ENDBRANCH  31  32
ENDBRANCH  30  31
ENDBRANCH  10  30
TORSDOF 10
