REMARK  Name = ZINC39443723
REMARK  9 active torsions:
REMARK  status: ('A' for Active; 'I' for Inactive)
REMARK    1  A    between atoms: C_1  and  C_2
REMARK    2  A    between atoms: C_5  and  N_8
REMARK    3  A    between atoms: C_11  and  C_16
REMARK    4  A    between atoms: C_12  and  C_15
REMARK    5  A    between atoms: C_16  and  C_27
REMARK    6  A    between atoms: C_28  and  C_41
REMARK    7  A    between atoms: N_30  and  C_34
REMARK    8  A    between atoms: C_31  and  O_33
REMARK    9  A    between atoms: C_37  and  C_40
REMARK                            x       y       z     vdW  Elec       q    Type
REMARK                         _______ _______ _______ _____ _____    ______ ____
ROOT
ATOM      1  C   UNL     1       0.200  -7.402   1.578  0.00  0.00    +0.154 C 
ATOM      2  C   UNL     1       1.500  -7.144   2.302  0.00  0.00    +0.186 C 
ATOM      3  O   UNL     1       1.793  -6.141   2.916  0.00  0.00    -0.290 OA
ATOM      4  C   UNL     1       2.345  -8.338   2.124  0.00  0.00    +0.030 A 
ATOM      5  C   UNL     1       3.634  -8.619   2.586  0.00  0.00    +0.012 A 
ATOM      6  C   UNL     1       4.229  -9.829   2.285  0.00  0.00    +0.001 A 
ATOM      7  C   UNL     1       3.558 -10.771   1.525  0.00  0.00    +0.001 A 
ATOM      8  C   UNL     1       2.284 -10.513   1.058  0.00  0.00    +0.012 A 
ATOM      9  C   UNL     1       1.662  -9.297   1.351  0.00  0.00    +0.030 A 
ATOM     10  C   UNL     1       0.331  -8.783   0.981  0.00  0.00    +0.186 C 
ATOM     11  O   UNL     1      -0.503  -9.362   0.319  0.00  0.00    -0.290 OA
ENDROOT
BRANCH   1  15
ATOM     12  N   UNL     1      -0.173  -5.460  -1.536  0.00  0.00    -0.219 N 
ATOM     13  C   UNL     1       0.060  -6.628  -0.903  0.00  0.00    +0.277 A 
ATOM     14  O   UNL     1       0.283  -7.701  -1.434  0.00  0.00    -0.265 OA
ATOM     15  C   UNL     1      -0.000  -6.381   0.488  0.00  0.00    +0.064 A 
ATOM     16  C   UNL     1      -0.268  -5.072   0.670  0.00  0.00    +0.040 A 
ATOM     17  N   UNL     1      -0.374  -4.479  -0.556  0.00  0.00    -0.294 N 
ATOM     18  H   UNL     1      -0.559  -3.541  -0.720  0.00  0.00    +0.187 HD
ATOM     19  C   UNL     1      -0.419  -4.379   2.000  0.00  0.00    +0.065 C 
BRANCH  12  24
ATOM     20  C   UNL     1      -0.291  -4.660  -7.150  0.00  0.00    +0.044 C 
ATOM     21  C   UNL     1      -0.260  -4.873  -5.659  0.00  0.00    -0.050 A 
ATOM     22  C   UNL     1      -0.478  -3.807  -4.805  0.00  0.00    +0.005 A 
ATOM     23  C   UNL     1      -0.450  -3.998  -3.438  0.00  0.00    +0.028 A 
ATOM     24  C   UNL     1      -0.203  -5.263  -2.920  0.00  0.00    +0.067 A 
ATOM     25  C   UNL     1       0.016  -6.332  -3.780  0.00  0.00    +0.028 A 
ATOM     26  C   UNL     1      -0.018  -6.134  -5.146  0.00  0.00    +0.005 A 
ENDBRANCH  12  24
ENDBRANCH   1  15
BRANCH   1  27
ATOM     27  C   UNL     1      -0.954  -7.362   2.546  0.00  0.00    +0.022 C 
ATOM     28  C   UNL     1      -2.230  -7.473   2.242  0.00  0.00    +0.024 C 
ATOM     29  N   UNL     1      -3.035  -7.395   3.361  0.00  0.00    -0.266 N 
ATOM     30  N   UNL     1      -2.254  -7.218   4.512  0.00  0.00    -0.221 N 
ATOM     31  C   UNL     1      -0.857  -7.194   4.046  0.00  0.00    +0.251 C 
ATOM     32  C   UNL     1      -2.749  -7.662   0.840  0.00  0.00    +0.062 C 
ATOM     33  H   UNL     1      -4.004  -7.453   3.352  0.00  0.00    +0.170 HD
BRANCH  30  34
ATOM     34  C   UNL     1      -2.707  -7.096   5.828  0.00  0.00    +0.051 A 
ATOM     35  C   UNL     1      -1.798  -6.918   6.863  0.00  0.00    +0.025 A 
ATOM     36  C   UNL     1      -2.249  -6.797   8.162  0.00  0.00    +0.005 A 
ATOM     37  C   UNL     1      -3.603  -6.853   8.434  0.00  0.00    -0.050 A 
ATOM     38  C   UNL     1      -4.511  -7.031   7.406  0.00  0.00    +0.005 A 
ATOM     39  C   UNL     1      -4.067  -7.146   6.103  0.00  0.00    +0.025 A 
ATOM     40  C   UNL     1      -4.092  -6.722   9.854  0.00  0.00    +0.044 C 
ENDBRANCH  30  34
BRANCH  31  41
ATOM     41  O   UNL     1      -0.118  -8.272   4.622  0.00  0.00    -0.369 OA
ATOM     42  H   UNL     1      -0.024  -8.216   5.583  0.00  0.00    +0.212 HD
ENDBRANCH  31  41
ENDBRANCH   1  27
TORSDOF 5
