REMARK  Name = ZINC09318100
REMARK  4 active torsions:
REMARK  status: ('A' for Active; 'I' for Inactive)
REMARK    1  A    between atoms: C_4  and  C_7
REMARK    2  A    between atoms: C_7  and  N_8
REMARK    3  A    between atoms: C_23  and  C_29
REMARK    4  A    between atoms: C_29  and  C_31
REMARK                            x       y       z     vdW  Elec       q    Type
REMARK                         _______ _______ _______ _____ _____    ______ ____
ROOT
ATOM      1  N   UNL     1      -0.056  -2.177   0.508  0.00  0.00    -0.237 N 
ATOM      2  C   UNL     1      -0.887  -1.123   0.221  0.00  0.00    +0.228 C 
ATOM      3  O   UNL     1      -2.098  -1.129   0.165  0.00  0.00    -0.275 OA
ATOM      4  C   UNL     1       0.002  -0.004   0.002  0.00  0.00    +0.113 C 
ATOM      5  C   UNL     1      -0.018   1.466   0.010  0.00  0.00    +0.100 C 
ATOM      6  C   UNL     1      -0.658   2.092  -1.196  0.00  0.00    -0.021 A 
ATOM      7  C   UNL     1      -1.857   1.604  -1.676  0.00  0.00    +0.006 A 
ATOM      8  C   UNL     1      -2.462   2.192  -2.771  0.00  0.00    +0.000 A 
ATOM      9  C   UNL     1      -1.873   3.280  -3.393  0.00  0.00    +0.001 A 
ATOM     10  C   UNL     1      -0.673   3.776  -2.929  0.00  0.00    +0.008 A 
ATOM     11  C   UNL     1      -0.046   3.175  -1.835  0.00  0.00    -0.019 A 
ATOM     12  C   UNL     1       1.245   3.700  -1.351  0.00  0.00    +0.022 C 
ATOM     13  C   UNL     1       1.948   3.005  -0.444  0.00  0.00    +0.054 C 
ATOM     14  C   UNL     1       2.189   0.655   0.528  0.00  0.00    +0.144 C 
ATOM     15  C   UNL     1       1.131  -0.307   1.071  0.00  0.00    +0.116 C 
ATOM     16  C   UNL     1       1.222  -1.780   0.785  0.00  0.00    +0.228 C 
ATOM     17  O   UNL     1       2.219  -2.471   0.798  0.00  0.00    -0.275 OA
ATOM     18  N   UNL     1       1.391   1.591  -0.311  0.00  0.00    -0.384 NA
ATOM     19  H   UNL     1       1.463   1.213  -1.263  0.00  0.00    +0.127 HD
ENDROOT
BRANCH  14  20
ATOM     20  C   UNL     1       2.966   0.004  -0.587  0.00  0.00    +0.217 C 
ATOM     21  O   UNL     1       2.757   0.325  -1.740  0.00  0.00    -0.287 OA
BRANCH  20  22
ATOM     22  C   UNL     1       3.937  -0.979  -0.292  0.00  0.00    +0.172 A 
ATOM     23  C   UNL     1       4.717  -1.653  -1.210  0.00  0.00    +0.053 A 
ATOM     24  C   UNL     1       5.531  -2.526  -0.477  0.00  0.00    +0.042 A 
ATOM     25  C   UNL     1       5.225  -2.357   0.830  0.00  0.00    +0.196 A 
ATOM     26  O   UNL     1       4.272  -1.423   0.938  0.00  0.00    -0.460 OA
ENDBRANCH  20  22
ENDBRANCH  14  20
BRANCH   1  27
ATOM     27  C   UNL     1      -0.491  -3.576   0.515  0.00  0.00    +0.151 C 
BRANCH  27  31
ATOM     28  C   UNL     1      -1.859  -4.623   4.424  0.00  0.00    +0.000 A 
ATOM     29  C   UNL     1      -2.745  -4.109   3.496  0.00  0.00    +0.000 A 
ATOM     30  C   UNL     1      -2.303  -3.771   2.231  0.00  0.00    +0.005 A 
ATOM     31  C   UNL     1      -0.974  -3.945   1.894  0.00  0.00    -0.030 A 
ATOM     32  C   UNL     1      -0.088  -4.463   2.820  0.00  0.00    +0.005 A 
ATOM     33  C   UNL     1      -0.530  -4.797   4.087  0.00  0.00    +0.000 A 
ENDBRANCH  27  31
ENDBRANCH   1  27
TORSDOF 4
