REMARK  Name = ZINC41124928
REMARK  5 active torsions:
REMARK  status: ('A' for Active; 'I' for Inactive)
REMARK    1  A    between atoms: C_1  and  C_2
REMARK    2  A    between atoms: C_2  and  N_3
REMARK    3  A    between atoms: N_3  and  S_4
REMARK    4  A    between atoms: S_4  and  C_7
REMARK    5  A    between atoms: N_19  and  C_22
REMARK                            x       y       z     vdW  Elec       q    Type
REMARK                         _______ _______ _______ _____ _____    ______ ____
ROOT
ATOM      1  C   UNL     1      -0.921  -3.081   0.888  0.00  0.00    +0.107 A 
ATOM      2  C   UNL     1       0.372  -3.489   0.728  0.00  0.00    +0.037 A 
ATOM      3  C   UNL     1       0.990  -4.275   1.716  0.00  0.00    -0.015 A 
ATOM      4  C   UNL     1       2.318  -4.720   1.597  0.00  0.00    +0.008 A 
ATOM      5  C   UNL     1       2.874  -5.482   2.584  0.00  0.00    +0.001 A 
ATOM      6  C   UNL     1       2.157  -5.839   3.720  0.00  0.00    +0.014 A 
ATOM      7  C   UNL     1       0.844  -5.420   3.876  0.00  0.00    +0.046 A 
ATOM      8  C   UNL     1       0.252  -4.629   2.865  0.00  0.00    +0.006 A 
ATOM      9  C   UNL     1      -1.086  -4.198   3.013  0.00  0.00    +0.048 A 
ATOM     10  C   UNL     1      -1.657  -3.419   2.017  0.00  0.00    +0.042 A 
ATOM     11  C   UNL     1      -1.823  -4.588   4.224  0.00  0.00    +0.254 C 
ATOM     12  O   UNL     1      -2.975  -4.229   4.373  0.00  0.00    -0.270 OA
ATOM     13  N   UNL     1      -1.229  -5.342   5.169  0.00  0.00    -0.237 N 
ATOM     14  C   UNL     1       0.043  -5.771   5.057  0.00  0.00    +0.253 C 
ATOM     15  O   UNL     1       0.531  -6.450   5.940  0.00  0.00    -0.270 OA
ATOM     16  C   UNL     1      -1.996  -5.711   6.361  0.00  0.00    +0.142 C 
ENDROOT
BRANCH   1  17
ATOM     17  S   UNL     1      -1.673  -2.095  -0.364  0.00  0.00    +0.058 S 
ATOM     18  O   UNL     1      -3.076  -2.283  -0.241  0.00  0.00    -0.153 OA
ATOM     19  O   UNL     1      -0.972  -2.366  -1.570  0.00  0.00    -0.153 OA
BRANCH  17  20
ATOM     20  N   UNL     1      -1.372  -0.511   0.012  0.00  0.00    -0.190 NA
ATOM     21  H   UNL     1      -2.106   0.081   0.240  0.00  0.00    +0.148 HD
BRANCH  20  23
ATOM     22  C   UNL     1      -0.019   1.526   0.010  0.00  0.00    +0.022 C 
ATOM     23  C   UNL     1       0.002  -0.004   0.002  0.00  0.00    +0.102 C 
ENDBRANCH  20  23
ENDBRANCH  17  20
ENDBRANCH   1  17
TORSDOF 3
