REMARK  Name = ZINC02254169
REMARK  5 active torsions:
REMARK  status: ('A' for Active; 'I' for Inactive)
REMARK    1  A    between atoms: C_1  and  C_2
REMARK    2  A    between atoms: C_5  and  C_8
REMARK    3  A    between atoms: C_19  and  C_21
REMARK    4  A    between atoms: C_33  and  S_35
REMARK    5  A    between atoms: S_35  and  C_36
REMARK                            x       y       z     vdW  Elec       q    Type
REMARK                         _______ _______ _______ _____ _____    ______ ____
ROOT
ATOM      1  C   UNL     1       0.056  -4.270  -0.031  0.00  0.00    +0.159 C 
ATOM      2  C   UNL     1       1.498  -4.725   0.012  0.00  0.00    +0.025 C 
ATOM      3  C   UNL     1       1.882  -5.519   1.033  0.00  0.00    +0.058 C 
ATOM      4  C   UNL     1       3.299  -5.966   1.056  0.00  0.00    +0.042 A 
ATOM      5  C   UNL     1       3.870  -6.504   2.201  0.00  0.00    +0.033 A 
ATOM      6  C   UNL     1       5.193  -6.905   2.180  0.00  0.00    +0.042 A 
ATOM      7  C   UNL     1       5.943  -6.770   1.024  0.00  0.00    +0.023 A 
ATOM      8  C   UNL     1       5.380  -6.236  -0.120  0.00  0.00    +0.048 A 
ATOM      9  C   UNL     1       4.057  -5.832  -0.113  0.00  0.00    +0.131 A 
ATOM     10  O   UNL     1       3.477  -5.310  -1.224  0.00  0.00    -0.479 OA
ATOM     11  C   UNL     1       2.480  -4.303  -1.040  0.00  0.00    +0.235 C 
ATOM     12 CL   UNL     1       5.916  -7.579   3.607  0.00  0.00    -0.084 Cl
ATOM     13  N   UNL     1       1.014  -5.899   2.002  0.00  0.00    -0.326 N 
ATOM     14  C   UNL     1      -0.254  -5.550   2.041  0.00  0.00    +0.216 C 
ATOM     15  N   UNL     1      -0.798  -4.742   1.067  0.00  0.00    -0.209 N 
ATOM     16  N   UNL     1      -2.143  -4.562   1.397  0.00  0.00    -0.239 N 
ATOM     17  C   UNL     1      -2.352  -5.262   2.556  0.00  0.00    +0.174 C 
ATOM     18  N   UNL     1      -1.234  -5.838   2.917  0.00  0.00    -0.192 NA
ATOM     19  H   UNL     1       1.350  -6.467   2.713  0.00  0.00    +0.169 HD
ATOM     20  H   UNL     1      -2.799  -4.044   0.904  0.00  0.00    +0.172 HD
ENDROOT
BRANCH   1  25
ATOM     21  C   UNL     1      -0.015   1.508  -0.011  0.00  0.00    +0.044 C 
ATOM     22  C   UNL     1       0.004   0.001  -0.016  0.00  0.00    -0.050 A 
ATOM     23  C   UNL     1      -0.142  -0.688  -1.206  0.00  0.00    +0.004 A 
ATOM     24  C   UNL     1      -0.125  -2.070  -1.210  0.00  0.00    +0.006 A 
ATOM     25  C   UNL     1       0.038  -2.763  -0.026  0.00  0.00    -0.021 A 
ATOM     26  C   UNL     1       0.184  -2.075   1.164  0.00  0.00    +0.006 A 
ATOM     27  C   UNL     1       0.172  -0.692   1.168  0.00  0.00    +0.004 A 
ENDBRANCH   1  25
BRANCH  11  28
ATOM     28  C   UNL     1       3.143  -3.017  -0.616  0.00  0.00    +0.015 A 
ATOM     29  C   UNL     1       3.321  -2.742   0.726  0.00  0.00    +0.009 A 
ATOM     30  C   UNL     1       3.929  -1.563   1.115  0.00  0.00    +0.000 A 
ATOM     31  C   UNL     1       4.358  -0.658   0.162  0.00  0.00    +0.001 A 
ATOM     32  C   UNL     1       4.180  -0.933  -1.181  0.00  0.00    +0.020 A 
ATOM     33  C   UNL     1       3.577  -2.115  -1.571  0.00  0.00    +0.048 A 
ATOM     34 CL   UNL     1       3.359  -2.464  -3.258  0.00  0.00    -0.083 Cl
ENDBRANCH  11  28
BRANCH  17  35
ATOM     35  S   UNL     1      -3.884  -5.375   3.421  0.00  0.00    -0.092 S 
ATOM     36  C   UNL     1      -3.505  -6.427   4.849  0.00  0.00    +0.093 C 
ENDBRANCH  17  35
TORSDOF 3
