REMARK  Name = ZINC43607651
REMARK  6 active torsions:
REMARK  status: ('A' for Active; 'I' for Inactive)
REMARK    1  A    between atoms: C_5  and  C_7
REMARK    2  A    between atoms: C_7  and  C_8
REMARK    3  A    between atoms: C_8  and  N_9
REMARK    4  A    between atoms: N_14  and  C_22
REMARK    5  A    between atoms: C_22  and  C_23
REMARK    6  A    between atoms: C_28  and  C_29
REMARK                            x       y       z     vdW  Elec       q    Type
REMARK                         _______ _______ _______ _____ _____    ______ ____
ROOT
ATOM      1  N   UNL     1       1.356  -4.159   1.446  0.00  0.00    -0.298 N 
ATOM      2  C   UNL     1       0.159  -4.957   1.660  0.00  0.00    +0.076 C 
ATOM      3  C   UNL     1      -0.744  -4.303   2.705  0.00  0.00    +0.004 C 
ATOM      4  C   UNL     1      -0.060  -4.345   4.073  0.00  0.00    -0.077 C 
ATOM      5  N   UNL     1       0.196  -5.742   4.445  0.00  0.00    +0.383 N 
ATOM      6  C   UNL     1       1.142  -6.340   3.496  0.00  0.00    -0.073 C 
ATOM      7  C   UNL     1       0.522  -6.368   2.120  0.00  0.00    -0.007 C 
ATOM      8  C   UNL     1       1.566  -6.941   1.152  0.00  0.00    +0.013 C 
ATOM      9  C   UNL     1       2.864  -6.147   1.316  0.00  0.00    +0.096 C 
ATOM     10  C   UNL     1       2.570  -4.674   1.244  0.00  0.00    +0.216 C 
ATOM     11  O   UNL     1       3.490  -3.913   1.030  0.00  0.00    -0.276 OA
ATOM     12  H   UNL     1      -0.670  -6.259   4.427  0.00  0.00    -0.081 HD
ENDROOT
BRANCH   1  13
ATOM     13  C   UNL     1       1.219  -2.700   1.445  0.00  0.00    +0.113 C 
BRANCH  13  14
ATOM     14  C   UNL     1       0.785  -2.229   0.055  0.00  0.00    +0.057 C 
BRANCH  14  19
ATOM     15  C   UNL     1      -0.721   1.226   0.272  0.00  0.00    +0.000 A 
ATOM     16  C   UNL     1       0.386   2.025   0.052  0.00  0.00    +0.003 A 
ATOM     17  C   UNL     1       1.622   1.449  -0.167  0.00  0.00    +0.038 A 
ATOM     18  C   UNL     1       1.753   0.071  -0.166  0.00  0.00    +0.127 A 
ATOM     19  C   UNL     1       0.645  -0.729   0.054  0.00  0.00    -0.011 A 
ATOM     20  C   UNL     1      -0.591  -0.150   0.273  0.00  0.00    +0.006 A 
ATOM     21  F   UNL     1       2.962  -0.494  -0.381  0.00  0.00    -0.205 F 
ENDBRANCH  14  19
ENDBRANCH  13  14
ENDBRANCH   1  13
BRANCH   5  22
ATOM     22  C   UNL     1       0.765  -5.790   5.799  0.00  0.00    -0.042 C 
BRANCH  22  23
ATOM     23  C   UNL     1      -0.266  -5.325   6.794  0.00  0.00    -0.052 A 
ATOM     24  C   UNL     1      -0.250  -4.019   7.246  0.00  0.00    +0.002 A 
ATOM     25  C   UNL     1      -1.196  -3.592   8.159  0.00  0.00    +0.000 A 
ATOM     26  C   UNL     1      -2.158  -4.471   8.621  0.00  0.00    +0.001 A 
ATOM     27  C   UNL     1      -2.174  -5.777   8.168  0.00  0.00    +0.012 A 
ATOM     28  C   UNL     1      -1.230  -6.203   7.252  0.00  0.00    +0.056 A 
BRANCH  28  29
ATOM     29  C   UNL     1      -1.251  -7.626   6.755  0.00  0.00    +0.418 C 
ATOM     30  F   UNL     1      -2.215  -8.353   7.462  0.00  0.00    -0.166 F 
ATOM     31  F   UNL     1      -1.564  -7.639   5.391  0.00  0.00    -0.166 F 
ATOM     32  F   UNL     1       0.007  -8.206   6.950  0.00  0.00    -0.166 F 
ENDBRANCH  28  29
ENDBRANCH  22  23
ENDBRANCH   5  22
TORSDOF 6
