REMARK  Name = ZINC55092799
REMARK  6 active torsions:
REMARK  status: ('A' for Active; 'I' for Inactive)
REMARK    1  A    between atoms: C_3  and  C_6
REMARK    2  A    between atoms: C_6  and  N_7
REMARK    3  A    between atoms: C_8  and  C_10
REMARK    4  A    between atoms: N_14  and  S_16
REMARK    5  A    between atoms: S_16  and  C_19
REMARK    6  A    between atoms: C_22  and  N_25
REMARK                            x       y       z     vdW  Elec       q    Type
REMARK                         _______ _______ _______ _____ _____    ______ ____
ROOT
ATOM      1  C   UNL     1       5.944   0.555   2.996  0.00  0.00    +0.091 C 
ATOM      2  C   UNL     1       5.416  -0.688   3.715  0.00  0.00    +0.015 C 
ATOM      3  C   UNL     1       5.912  -0.691   5.163  0.00  0.00    +0.018 C 
ATOM      4  C   UNL     1       7.444  -0.740   5.173  0.00  0.00    +0.109 C 
ATOM      5  N   UNL     1       7.958   0.371   4.361  0.00  0.00    -0.176 NA
ATOM      6  C   UNL     1       7.475   0.520   2.981  0.00  0.00    +0.122 C 
ENDROOT
BRANCH   1   8
ATOM      7  N   UNL     1       4.101   0.607   1.347  0.00  0.00    -0.308 N 
ATOM      8  C   UNL     1       5.428   0.575   1.580  0.00  0.00    +0.218 C 
ATOM      9  O   UNL     1       6.207   0.561   0.650  0.00  0.00    -0.275 OA
ATOM     10  H   UNL     1       3.478   0.617   2.090  0.00  0.00    +0.149 HD
BRANCH   7  11
ATOM     11  C   UNL     1       3.599   0.625  -0.029  0.00  0.00    +0.178 C 
BRANCH  11  14
ATOM     12  C   UNL     1      -0.016   1.341   0.009  0.00  0.00    +0.041 A 
ATOM     13  C   UNL     1       1.331   1.769  -0.001  0.00  0.00    +0.046 A 
ATOM     14  C   UNL     1       2.092   0.660  -0.014  0.00  0.00    +0.122 A 
ATOM     15  O   UNL     1       1.282  -0.411  -0.012  0.00  0.00    -0.466 OA
ATOM     16  C   UNL     1       0.002  -0.004   0.002  0.00  0.00    +0.195 A 
ENDBRANCH  11  14
ENDBRANCH   7  11
ENDBRANCH   1   8
BRANCH   5  17
ATOM     17  S   UNL     1       9.061   1.435   4.989  0.00  0.00    +0.061 S 
ATOM     18  O   UNL     1       8.936   2.637   4.241  0.00  0.00    -0.153 OA
ATOM     19  O   UNL     1       8.904   1.396   6.401  0.00  0.00    -0.153 OA
BRANCH  17  20
ATOM     20  C   UNL     1      10.663   0.790   4.641  0.00  0.00    +0.106 A 
ATOM     21  C   UNL     1      11.274  -0.064   5.540  0.00  0.00    +0.031 A 
ATOM     22  C   UNL     1      12.531  -0.570   5.268  0.00  0.00    +0.034 A 
ATOM     23  C   UNL     1      13.178  -0.222   4.096  0.00  0.00    +0.126 A 
ATOM     24  C   UNL     1      12.566   0.631   3.197  0.00  0.00    +0.034 A 
ATOM     25  C   UNL     1      11.307   1.134   3.467  0.00  0.00    +0.031 A 
BRANCH  23  26
ATOM     26  N   UNL     1      14.524  -0.763   3.805  0.00  0.00    +0.056 N 
ATOM     27  O   UNL     1      15.059  -1.509   4.592  0.00  0.00    -0.126 OA
ATOM     28  O   UNL     1      15.089  -0.459   2.781  0.00  0.00    -0.126 OA
ENDBRANCH  23  26
ENDBRANCH  17  20
ENDBRANCH   5  17
TORSDOF 6
