REMARK  Name = ZINC35415597
REMARK  10 active torsions:
REMARK  status: ('A' for Active; 'I' for Inactive)
REMARK    1  A    between atoms: C_1  and  C_2
REMARK    2  A    between atoms: C_2  and  O_3
REMARK    3  A    between atoms: O_3  and  C_4
REMARK    4  A    between atoms: C_6  and  C_14
REMARK    5  A    between atoms: C_8  and  N_11
REMARK    6  A    between atoms: C_9  and  O_10
REMARK    7  A    between atoms: C_23  and  C_27
REMARK    8  A    between atoms: C_27  and  C_28
REMARK    9  A    between atoms: C_27  and  C_29
REMARK   10  A    between atoms: C_27  and  C_30
REMARK                            x       y       z     vdW  Elec       q    Type
REMARK                         _______ _______ _______ _____ _____    ______ ____
ROOT
ATOM      1  C   UNL     1      -0.217  -4.963  -0.535  0.00  0.00    +0.190 C 
ATOM      2  N   UNL     1      -0.603  -6.231   0.109  0.00  0.00    -0.316 N 
ATOM      3  C   UNL     1      -1.815  -6.251   0.755  0.00  0.00    +0.080 A 
ATOM      4  C   UNL     1      -2.858  -5.374   0.422  0.00  0.00    +0.068 A 
ATOM      5  C   UNL     1      -4.071  -5.514   1.210  0.00  0.00    -0.023 A 
ATOM      6  C   UNL     1      -4.021  -6.482   2.151  0.00  0.00    -0.004 A 
ATOM      7  S   UNL     1      -2.402  -7.186   1.993  0.00  0.00    -0.078 S 
ATOM      8  C   UNL     1      -5.106  -6.864   3.110  0.00  0.00    +0.046 C 
ATOM      9  C   UNL     1      -6.423  -6.245   2.621  0.00  0.00    -0.000 C 
ATOM     10  C   UNL     1      -6.181  -4.771   2.282  0.00  0.00    +0.009 C 
ATOM     11  C   UNL     1      -5.318  -4.661   1.023  0.00  0.00    +0.037 C 
ATOM     12  C   UNL     1      -2.626  -4.416  -0.683  0.00  0.00    +0.248 C 
ATOM     13  O   UNL     1      -3.534  -3.751  -1.146  0.00  0.00    -0.270 OA
ATOM     14  N   UNL     1      -1.366  -4.311  -1.154  0.00  0.00    -0.289 N 
ATOM     15  H   UNL     1      -0.030  -7.013   0.077  0.00  0.00    +0.149 HD
ATOM     16  H   UNL     1      -1.217  -3.773  -1.947  0.00  0.00    +0.151 HD
ENDROOT
BRANCH   1  19
ATOM     17  C   UNL     1       0.802  -1.825   1.306  0.00  0.00    +0.164 A 
ATOM     18  C   UNL     1       0.261  -2.673   0.353  0.00  0.00    +0.056 A 
ATOM     19  C   UNL     1       0.372  -4.043   0.502  0.00  0.00    -0.004 A 
ATOM     20  C   UNL     1       1.024  -4.570   1.602  0.00  0.00    +0.043 A 
ATOM     21  C   UNL     1       1.566  -3.730   2.557  0.00  0.00    +0.171 A 
ATOM     22  C   UNL     1       1.462  -2.356   2.410  0.00  0.00    +0.189 A 
BRANCH  21  23
ATOM     23  N   UNL     1       2.263  -4.298   3.733  0.00  0.00    +0.060 N 
ATOM     24  O   UNL     1       2.357  -5.497   3.859  0.00  0.00    -0.126 OA
ATOM     25  O   UNL     1       2.737  -3.563   4.567  0.00  0.00    -0.126 OA
ENDBRANCH  21  23
BRANCH  22  26
ATOM     26  O   UNL     1       2.000  -1.528   3.345  0.00  0.00    -0.502 OA
ATOM     27  H   UNL     1       1.395  -1.301   4.064  0.00  0.00    +0.292 HD
ENDBRANCH  22  26
BRANCH  17  28
ATOM     28  O   UNL     1       0.693  -0.477   1.160  0.00  0.00    -0.488 OA
BRANCH  28  30
ATOM     29  C   UNL     1      -0.019   1.526   0.010  0.00  0.00    +0.048 C 
ATOM     30  C   UNL     1       0.002  -0.004   0.002  0.00  0.00    +0.226 C 
ENDBRANCH  28  30
ENDBRANCH  17  28
ENDBRANCH   1  19
BRANCH   9  31
ATOM     31  C   UNL     1      -7.480  -6.353   3.721  0.00  0.00    -0.035 C 
ATOM     32  C   UNL     1      -6.998  -5.607   4.967  0.00  0.00    +0.011 C 
ATOM     33  C   UNL     1      -8.791  -5.736   3.232  0.00  0.00    +0.011 C 
ATOM     34  C   UNL     1      -7.708  -7.827   4.066  0.00  0.00    +0.011 C 
ENDBRANCH   9  31
TORSDOF 6
