REMARK  Name = ZINC33124345
REMARK  9 active torsions:
REMARK  status: ('A' for Active; 'I' for Inactive)
REMARK    1  A    between atoms: C_1  and  C_2
REMARK    2  A    between atoms: N_7  and  C_9
REMARK    3  A    between atoms: C_9  and  C_10
REMARK    4  A    between atoms: C_10  and  C_11
REMARK    5  A    between atoms: C_11  and  N_12
REMARK    6  A    between atoms: C_13  and  C_15
REMARK    7  A    between atoms: N_18  and  C_21
REMARK    8  A    between atoms: N_25  and  C_30
REMARK    9  A    between atoms: N_28  and  C_29
REMARK                            x       y       z     vdW  Elec       q    Type
REMARK                         _______ _______ _______ _____ _____    ______ ____
ROOT
ATOM      1  C   UNL     1       1.816   5.173  -0.888  0.00  0.00    +0.078 C 
ATOM      2  C   UNL     1       0.712   5.846  -0.068  0.00  0.00    +0.031 C 
ATOM      3  C   UNL     1       0.249   4.893   1.035  0.00  0.00    +0.107 C 
ATOM      4  N   UNL     1      -0.253   3.651   0.432  0.00  0.00    -0.316 N 
ATOM      5  C   UNL     1       0.803   2.962  -0.321  0.00  0.00    +0.107 C 
ATOM      6  C   UNL     1       1.283   3.858  -1.465  0.00  0.00    +0.031 C 
ENDROOT
BRANCH   4   7
ATOM      7  C   UNL     1      -0.795   2.826   1.385  0.00  0.00    +0.110 A 
ATOM      8  C   UNL     1      -0.018   2.340   2.399  0.00  0.00    +0.112 A 
ATOM      9  C   UNL     1      -0.599   1.494   3.357  0.00  0.00    +0.258 A 
ATOM     10  O   UNL     1       0.076   1.044   4.267  0.00  0.00    -0.267 OA
ATOM     11  N   UNL     1      -1.906   1.181   3.264  0.00  0.00    -0.264 N 
ATOM     12  C   UNL     1      -2.657   1.673   2.261  0.00  0.00    +0.333 A 
ATOM     13  O   UNL     1      -3.835   1.378   2.196  0.00  0.00    -0.246 OA
ATOM     14  N   UNL     1      -2.125   2.486   1.331  0.00  0.00    -0.285 N 
ATOM     15  C   UNL     1      -2.967   3.007   0.251  0.00  0.00    +0.155 C 
ATOM     16  C   UNL     1      -2.515   0.298   4.261  0.00  0.00    +0.157 C 
ENDBRANCH   4   7
BRANCH   1  18
ATOM     17  N   UNL     1       3.200   5.696  -2.870  0.00  0.00    -0.315 N 
ATOM     18  C   UNL     1       2.234   6.084  -2.013  0.00  0.00    +0.216 C 
ATOM     19  O   UNL     1       1.703   7.165  -2.148  0.00  0.00    -0.276 OA
ATOM     20  H   UNL     1       3.682   4.715  -2.749  0.00  0.00    +0.149 HD
BRANCH  17  21
ATOM     21  C   UNL     1       3.606   6.582  -3.965  0.00  0.00    +0.102 C 
BRANCH  21  22
ATOM     22  C   UNL     1       4.710   5.907  -4.783  0.00  0.00    +0.000 C 
BRANCH  22  23
ATOM     23  C   UNL     1       5.134   6.832  -5.925  0.00  0.00    -0.077 C 
BRANCH  23  29
ATOM     24  C   UNL     1       8.600   7.441  -9.362  0.00  0.00    +0.005 C 
ATOM     25  C   UNL     1       7.986   6.465  -8.357  0.00  0.00    -0.031 C 
ATOM     26  C   UNL     1       7.508   5.209  -9.090  0.00  0.00    -0.001 C 
ATOM     27  C   UNL     1       6.842   4.264  -8.086  0.00  0.00    -0.018 C 
ATOM     28  C   UNL     1       5.684   4.992  -7.398  0.00  0.00    -0.079 C 
ATOM     29  N   UNL     1       6.194   6.185  -6.711  0.00  0.00    +0.380 N 
ATOM     30  C   UNL     1       6.795   7.129  -7.661  0.00  0.00    -0.076 C 
ATOM     31  H   UNL     1       6.982   5.861  -6.016  0.00  0.00    -0.082 HD
ENDBRANCH  23  29
ENDBRANCH  22  23
ENDBRANCH  21  22
ENDBRANCH  17  21
ENDBRANCH   1  18
TORSDOF 6
