REMARK  Name = ZINC13424954
REMARK  8 active torsions:
REMARK  status: ('A' for Active; 'I' for Inactive)
REMARK    1  A    between atoms: C_1  and  C_2
REMARK    2  A    between atoms: C_4  and  O_37
REMARK    3  A    between atoms: C_14  and  C_20
REMARK    4  A    between atoms: C_16  and  C_18
REMARK    5  A    between atoms: C_16  and  C_19
REMARK    6  A    between atoms: C_20  and  C_22
REMARK    7  A    between atoms: C_22  and  O_23
REMARK    8  A    between atoms: C_33  and  C_34
REMARK                            x       y       z     vdW  Elec       q    Type
REMARK                         _______ _______ _______ _____ _____    ______ ____
ROOT
ATOM      1  C   UNL     1      -0.173   1.548  -0.241  0.00  0.00    +0.015 C 
ATOM      2  C   UNL     1      -0.090   0.021  -0.186  0.00  0.00    +0.012 C 
ATOM      3  C   UNL     1       0.243  -0.374  -1.583  0.00  0.00    +0.044 C 
ATOM      4  C   UNL     1       1.160  -1.589  -1.675  0.00  0.00    +0.154 C 
ATOM      5  C   UNL     1       2.402  -1.294  -0.823  0.00  0.00    +0.153 C 
ATOM      6  C   UNL     1       1.979  -1.262   0.634  0.00  0.00    +0.037 C 
ATOM      7  C   UNL     1       0.913  -0.237   0.934  0.00  0.00    +0.007 C 
ATOM      8  C   UNL     1       0.056  -0.800   2.126  0.00  0.00    +0.039 C 
ATOM      9  C   UNL     1      -1.083  -1.489   1.387  0.00  0.00    +0.162 C 
ATOM     10  C   UNL     1      -1.424  -0.371   0.330  0.00  0.00    +0.164 C 
ATOM     11  O   UNL     1      -2.542  -0.904  -0.291  0.00  0.00    -0.332 OA
ATOM     12  C   UNL     1      -3.231  -1.633   0.766  0.00  0.00    +0.166 C 
ATOM     13  O   UNL     1      -2.371  -1.641   1.956  0.00  0.00    -0.343 OA
ATOM     14  C   UNL     1      -4.562  -0.947   1.084  0.00  0.00    +0.074 C 
ATOM     15  C   UNL     1      -3.485  -3.074   0.321  0.00  0.00    +0.074 C 
ATOM     16  C   UNL     1       3.224  -1.018   1.498  0.00  0.00    +0.048 C 
ATOM     17  C   UNL     1       4.051  -2.304   1.493  0.00  0.00    +0.194 C 
ATOM     18  C   UNL     1       4.249  -2.795   0.089  0.00  0.00    -0.020 C 
ATOM     19  C   UNL     1       5.172  -3.760  -0.130  0.00  0.00    +0.054 C 
ATOM     20  C   UNL     1       5.264  -4.226  -1.540  0.00  0.00    +0.179 C 
ATOM     21  O   UNL     1       6.327  -4.450  -2.088  0.00  0.00    -0.288 OA
ATOM     22  C   UNL     1       3.955  -4.397  -2.230  0.00  0.00    +0.047 C 
ATOM     23  C   UNL     1       3.051  -3.423  -1.988  0.00  0.00    -0.009 C 
ATOM     24  C   UNL     1       3.487  -2.297  -1.092  0.00  0.00    +0.047 C 
ATOM     25  C   UNL     1       4.520  -1.539  -1.928  0.00  0.00    +0.023 C 
ATOM     26  F   UNL     1       5.300  -2.053   2.072  0.00  0.00    -0.241 F 
ATOM     27  F   UNL     1       2.879  -0.024  -1.162  0.00  0.00    -0.238 F 
ENDROOT
BRANCH  10  28
ATOM     28  C   UNL     1      -1.922   0.783   1.161  0.00  0.00    +0.193 C 
ATOM     29  O   UNL     1      -1.675   0.828   2.343  0.00  0.00    -0.292 OA
BRANCH  28  30
ATOM     30  C   UNL     1      -2.728   1.883   0.518  0.00  0.00    +0.233 C 
BRANCH  30  31
ATOM     31  O   UNL     1      -3.205   2.775   1.527  0.00  0.00    -0.387 OA
ATOM     32  H   UNL     1      -3.733   3.510   1.184  0.00  0.00    +0.210 HD
ENDBRANCH  30  31
ENDBRANCH  28  30
ENDBRANCH  10  28
BRANCH   4  33
ATOM     33  O   UNL     1       0.487  -2.745  -1.172  0.00  0.00    -0.389 OA
ATOM     34  H   UNL     1      -0.323  -2.967  -1.649  0.00  0.00    +0.210 HD
ENDBRANCH   4  33
TORSDOF 4
