REMARK  Name = ZINC51993073
REMARK  4 active torsions:
REMARK  status: ('A' for Active; 'I' for Inactive)
REMARK    1  A    between atoms: C_5  and  O_19
REMARK    2  A    between atoms: C_6  and  C_7
REMARK    3  A    between atoms: N_9  and  C_10
REMARK    4  A    between atoms: C_16  and  O_18
REMARK                            x       y       z     vdW  Elec       q    Type
REMARK                         _______ _______ _______ _____ _____    ______ ____
ROOT
ATOM      1  C   UNL     1      -1.263  -0.763   0.010  0.00  0.00    +0.248 C 
ATOM      2  O   UNL     1      -1.243  -1.979   0.003  0.00  0.00    -0.270 OA
ATOM      3  N   UNL     1      -2.441  -0.109   0.025  0.00  0.00    -0.306 N 
ATOM      4  H   UNL     1      -2.458   0.861   0.030  0.00  0.00    +0.149 HD
ENDROOT
BRANCH   1  10
ATOM      5  C   UNL     1      -0.017   1.393   0.010  0.00  0.00    +0.031 A 
ATOM      6  C   UNL     1       1.169   2.096   0.002  0.00  0.00    +0.015 A 
ATOM      7  C   UNL     1       2.380   1.424  -0.013  0.00  0.00    +0.032 A 
ATOM      8  C   UNL     1       2.413   0.043  -0.022  0.00  0.00    +0.056 A 
ATOM      9  C   UNL     1       1.230  -0.680  -0.014  0.00  0.00    +0.142 A 
ATOM     10  C   UNL     1       0.002  -0.004   0.002  0.00  0.00    +0.080 A 
ATOM     11  I   UNL     1       4.252  -0.960  -0.046  0.00  0.00    -0.040 I 
ATOM     12  I   UNL     1       1.138   4.191   0.014  0.00  0.00    -0.044 I 
BRANCH   9  13
ATOM     13  O   UNL     1       1.260  -2.037  -0.023  0.00  0.00    -0.505 OA
ATOM     14  H   UNL     1       1.278  -2.436   0.858  0.00  0.00    +0.292 HD
ENDBRANCH   9  13
ENDBRANCH   1  10
BRANCH   3  15
ATOM     15  C   UNL     1      -3.697  -0.863   0.033  0.00  0.00    +0.102 C 
ATOM     16  C   UNL     1      -4.056  -1.241   1.471  0.00  0.00    +0.025 C 
ATOM     17  C   UNL     1      -5.368  -2.028   1.480  0.00  0.00    +0.002 C 
ATOM     18  C   UNL     1      -6.484  -1.166   0.885  0.00  0.00    +0.003 C 
ATOM     19  C   UNL     1      -6.125  -0.788  -0.553  0.00  0.00    +0.033 C 
ATOM     20  C   UNL     1      -4.813  -0.001  -0.562  0.00  0.00    +0.135 C 
BRANCH  20  21
ATOM     21  O   UNL     1      -4.478   0.352  -1.905  0.00  0.00    -0.390 OA
ATOM     22  H   UNL     1      -5.142   0.900  -2.345  0.00  0.00    +0.210 HD
ENDBRANCH  20  21
ENDBRANCH   3  15
TORSDOF 4
