REMARK  Name = ZINC64170326
REMARK  7 active torsions:
REMARK  status: ('A' for Active; 'I' for Inactive)
REMARK    1  A    between atoms: C_1  and  C_2
REMARK    2  A    between atoms: C_2  and  C_4
REMARK    3  A    between atoms: C_2  and  O_15
REMARK    4  A    between atoms: C_4  and  C_6
REMARK    5  A    between atoms: O_15  and  C_16
REMARK    6  A    between atoms: C_16  and  C_18
REMARK    7  A    between atoms: C_25  and  C_27
REMARK                            x       y       z     vdW  Elec       q    Type
REMARK                         _______ _______ _______ _____ _____    ______ ____
ROOT
ATOM      1  C   UNL     1       0.468  -0.283   2.159  0.00  0.00    +0.312 C 
ATOM      2  O   UNL     1      -0.639   0.200   2.201  0.00  0.00    -0.250 OA
ENDROOT
BRANCH   1   3
ATOM      3  C   UNL     1       1.116  -0.791   3.422  0.00  0.00    +0.115 C 
ATOM      4  C   UNL     1       0.168  -0.579   4.604  0.00  0.00    +0.018 C 
ATOM      5  C   UNL     1       0.838  -1.064   5.891  0.00  0.00    +0.020 C 
ATOM      6  C   UNL     1       1.136  -2.562   5.774  0.00  0.00    +0.108 C 
ATOM      7  N   UNL     1       1.927  -2.793   4.558  0.00  0.00    -0.297 N 
ATOM      8  C   UNL     1       1.417  -2.286   3.276  0.00  0.00    +0.122 C 
ATOM      9  C   UNL     1       3.098  -3.457   4.616  0.00  0.00    +0.247 C 
ATOM     10  O   UNL     1       3.710  -3.702   3.594  0.00  0.00    -0.270 OA
BRANCH   9  11
ATOM     11  C   UNL     1       3.639  -3.886   5.922  0.00  0.00    +0.037 A 
ATOM     12  C   UNL     1       2.835  -4.598   6.814  0.00  0.00    +0.016 A 
ATOM     13  C   UNL     1       3.345  -4.997   8.031  0.00  0.00    +0.039 A 
ATOM     14  C   UNL     1       4.654  -4.692   8.370  0.00  0.00    +0.123 A 
ATOM     15  C   UNL     1       5.457  -3.985   7.488  0.00  0.00    +0.039 A 
ATOM     16  C   UNL     1       4.960  -3.587   6.266  0.00  0.00    +0.016 A 
ATOM     17  F   UNL     1       5.149  -5.084   9.565  0.00  0.00    -0.205 F 
ENDBRANCH   9  11
ENDBRANCH   1   3
BRANCH   1  18
ATOM     18  O   UNL     1       1.119  -0.369   0.989  0.00  0.00    -0.453 OA
BRANCH  18  20
ATOM     19  C   UNL     1       0.782   1.613  -0.352  0.00  0.00    +0.061 C 
ATOM     20  C   UNL     1       0.445   0.132  -0.167  0.00  0.00    +0.244 C 
BRANCH  20  21
ATOM     21  C   UNL     1       0.890  -0.640  -1.382  0.00  0.00    +0.201 C 
ATOM     22  O   UNL     1       1.885  -1.335  -1.329  0.00  0.00    -0.288 OA
BRANCH  21  23
ATOM     23  C   UNL     1       0.150  -0.557  -2.581  0.00  0.00    +0.027 C 
ATOM     24  C   UNL     1       0.417  -1.202  -3.775  0.00  0.00    +0.006 A 
ATOM     25  C   UNL     1       1.438  -2.094  -4.180  0.00  0.00    +0.010 A 
ATOM     26  C   UNL     1       1.456  -2.582  -5.440  0.00  0.00    +0.001 A 
ATOM     27  C   UNL     1       0.485  -2.240  -6.395  0.00  0.00    +0.002 A 
ATOM     28  C   UNL     1      -0.531  -1.397  -6.111  0.00  0.00    +0.026 A 
ATOM     29  C   UNL     1      -0.625  -0.819  -4.760  0.00  0.00    +0.043 A 
ATOM     30  N   UNL     1      -1.480   0.003  -4.223  0.00  0.00    -0.380 N 
ATOM     31  C   UNL     1      -1.105   0.251  -2.827  0.00  0.00    +0.152 C 
ATOM     32  H   UNL     1      -2.248   0.388  -4.674  0.00  0.00    +0.160 HD
ENDBRANCH  21  23
ENDBRANCH  20  21
ENDBRANCH  18  20
ENDBRANCH   1  18
TORSDOF 6
