REMARK  Name = ZINC32125409
REMARK  5 active torsions:
REMARK  status: ('A' for Active; 'I' for Inactive)
REMARK    1  A    between atoms: C_1  and  C_2
REMARK    2  A    between atoms: C_7  and  N_8
REMARK    3  A    between atoms: C_9  and  C_11
REMARK    4  A    between atoms: C_12  and  C_13
REMARK    5  A    between atoms: C_17  and  N_19
REMARK                            x       y       z     vdW  Elec       q    Type
REMARK                         _______ _______ _______ _____ _____    ______ ____
ROOT
ATOM      1  N   UNL     1       1.110  -2.076  -0.020  0.00  0.00    -0.267 N 
ATOM      2  C   UNL     1      -0.071  -2.726  -0.013  0.00  0.00    +0.242 C 
ATOM      3  O   UNL     1      -1.112  -2.096   0.001  0.00  0.00    -0.270 OA
ATOM      4  H   UNL     1       2.051  -2.645  -0.032  0.00  0.00    +0.157 HD
ENDROOT
BRANCH   1  11
ATOM      5  C   UNL     1       3.651  -0.796  -0.037  0.00  0.00    +0.047 C 
ATOM      6  C   UNL     1       2.360  -0.019  -0.021  0.00  0.00    -0.009 A 
ATOM      7  C   UNL     1       2.374   1.365  -0.013  0.00  0.00    +0.022 A 
ATOM      8  C   UNL     1       1.161   2.039   0.002  0.00  0.00    +0.032 A 
ATOM      9  C   UNL     1      -0.016   1.315   0.009  0.00  0.00    +0.127 A 
ATOM     10  N   UNL     1       0.002  -0.004   0.002  0.00  0.00    -0.239 NA
ATOM     11  C   UNL     1       1.139  -0.683  -0.013  0.00  0.00    +0.128 A 
ATOM     12  I   UNL     1       1.114   4.134   0.013  0.00  0.00    -0.042 I 
ENDBRANCH   1  11
BRANCH   2  13
ATOM     13  C   UNL     1      -0.101  -4.189  -0.021  0.00  0.00    +0.068 C 
ATOM     14  C   UNL     1      -1.282  -4.839  -0.014  0.00  0.00    +0.013 C 
BRANCH  14  15
ATOM     15  C   UNL     1      -1.312  -6.310  -0.022  0.00  0.00    -0.023 A 
ATOM     16  C   UNL     1      -0.117  -7.038  -0.037  0.00  0.00    +0.009 A 
ATOM     17  C   UNL     1      -0.153  -8.415  -0.044  0.00  0.00    +0.023 A 
ATOM     18  C   UNL     1      -1.369  -9.080  -0.036  0.00  0.00    +0.071 A 
ATOM     19  C   UNL     1      -2.556  -8.367  -0.021  0.00  0.00    +0.145 A 
ATOM     20  C   UNL     1      -2.535  -6.988  -0.008  0.00  0.00    +0.042 A 
ATOM     21 CL   UNL     1      -1.404 -10.816  -0.045  0.00  0.00    -0.081 Cl
BRANCH  19  22
ATOM     22  N   UNL     1      -3.850  -9.086  -0.014  0.00  0.00    +0.058 N 
ATOM     23  O   UNL     1      -4.894  -8.460  -0.001  0.00  0.00    -0.126 OA
ATOM     24  O   UNL     1      -3.869 -10.303  -0.021  0.00  0.00    -0.126 OA
ENDBRANCH  19  22
ENDBRANCH  14  15
ENDBRANCH   2  13
TORSDOF 4
