REMARK  Name = ZINC39666684
REMARK  8 active torsions:
REMARK  status: ('A' for Active; 'I' for Inactive)
REMARK    1  A    between atoms: C_1  and  C_2
REMARK    2  A    between atoms: C_2  and  C_3
REMARK    3  A    between atoms: C_3  and  C_4
REMARK    4  A    between atoms: C_3  and  C_6
REMARK    5  A    between atoms: C_4  and  C_5
REMARK    6  A    between atoms: C_6  and  N_7
REMARK    7  A    between atoms: C_8  and  C_10
REMARK    8  A    between atoms: C_21  and  C_23
REMARK                            x       y       z     vdW  Elec       q    Type
REMARK                         _______ _______ _______ _____ _____    ______ ____
ROOT
ATOM      1  C   UNL     1       3.188  -4.220   7.865  0.00  0.00    +0.100 C 
ATOM      2  C   UNL     1       1.956  -4.823   8.576  0.00  0.00    +0.121 C 
ATOM      3  N   UNL     1       1.486  -5.895   7.667  0.00  0.00    -0.296 N 
ATOM      4  C   UNL     1       2.731  -6.519   7.159  0.00  0.00    +0.115 C 
ATOM      5  C   UNL     1       3.695  -5.337   6.939  0.00  0.00    -0.004 C 
ATOM      6  C   UNL     1       3.645  -4.881   5.484  0.00  0.00    -0.010 C 
ATOM      7  C   UNL     1       4.208  -5.987   4.587  0.00  0.00    -0.082 C 
ATOM      8  N   UNL     1       5.591  -6.283   4.981  0.00  0.00    +0.379 N 
ATOM      9  C   UNL     1       5.620  -6.809   6.351  0.00  0.00    -0.082 C 
ATOM     10  C   UNL     1       5.117  -5.737   7.322  0.00  0.00    -0.010 C 
ATOM     11  C   UNL     1       0.214  -6.226   7.369  0.00  0.00    +0.249 C 
ATOM     12  O   UNL     1      -0.012  -7.167   6.632  0.00  0.00    -0.270 OA
ATOM     13  H   UNL     1       5.979  -6.968   4.350  0.00  0.00    -0.086 HD
ATOM     14  H   UNL     1       6.140  -5.438   4.934  0.00  0.00    -0.086 HD
ENDROOT
BRANCH  11  15
ATOM     15  C   UNL     1      -0.905  -5.448   7.937  0.00  0.00    +0.072 A 
ATOM     16  C   UNL     1      -1.162  -4.153   7.481  0.00  0.00    +0.016 A 
ATOM     17  C   UNL     1      -2.208  -3.432   8.016  0.00  0.00    +0.001 A 
ATOM     18  C   UNL     1      -3.005  -3.987   9.003  0.00  0.00    +0.003 A 
ATOM     19  C   UNL     1      -2.758  -5.267   9.461  0.00  0.00    +0.039 A 
ATOM     20  C   UNL     1      -1.716  -6.006   8.930  0.00  0.00    +0.135 A 
ATOM     21  F   UNL     1      -1.479  -7.260   9.374  0.00  0.00    -0.205 F 
ENDBRANCH  11  15
BRANCH   1  23
ATOM     22  N   UNL     1       3.699  -2.058   6.778  0.00  0.00    -0.315 N 
ATOM     23  C   UNL     1       2.788  -3.011   7.059  0.00  0.00    +0.218 C 
ATOM     24  O   UNL     1       1.648  -2.896   6.663  0.00  0.00    -0.275 OA
ATOM     25  H   UNL     1       4.628  -2.186   7.025  0.00  0.00    +0.149 HD
BRANCH  22  26
ATOM     26  C   UNL     1       3.285  -0.827   6.099  0.00  0.00    +0.107 C 
BRANCH  26  27
ATOM     27  C   UNL     1       4.488   0.109   5.963  0.00  0.00    +0.006 C 
BRANCH  27  29
ATOM     28  C   UNL     1       6.983   0.227   5.953  0.00  0.00    +0.004 C 
ATOM     29  C   UNL     1       5.777  -0.714   5.964  0.00  0.00    +0.002 C 
ENDBRANCH  27  29
BRANCH  27  30
ATOM     30  C   UNL     1       4.381   0.888   4.650  0.00  0.00    +0.002 C 
ATOM     31  C   UNL     1       3.195   1.851   4.724  0.00  0.00    +0.004 C 
ENDBRANCH  27  30
ENDBRANCH  26  27
ENDBRANCH  22  26
ENDBRANCH   1  23
TORSDOF 6
