REMARK  Name = ZINC08623152
REMARK  9 active torsions:
REMARK  status: ('A' for Active; 'I' for Inactive)
REMARK    1  A    between atoms: C_1  and  C_2
REMARK    2  A    between atoms: C_2  and  C_3
REMARK    3  A    between atoms: C_3  and  S_4
REMARK    4  A    between atoms: S_4  and  N_7
REMARK    5  A    between atoms: N_7  and  C_8
REMARK    6  A    between atoms: C_8  and  C_9
REMARK    7  A    between atoms: C_17  and  C_19
REMARK    8  A    between atoms: C_21  and  C_26
REMARK    9  A    between atoms: C_23  and  C_25
REMARK                            x       y       z     vdW  Elec       q    Type
REMARK                         _______ _______ _______ _____ _____    ______ ____
ROOT
ATOM      1  C   UNL     1      -2.541   0.281  -1.890  0.00  0.00    -0.053 C 
ATOM      2  C   UNL     1      -3.490   0.718  -0.770  0.00  0.00    -0.010 C 
ATOM      3  C   UNL     1      -2.865   1.905  -0.026  0.00  0.00    -0.007 C 
ATOM      4  C   UNL     1      -2.633   3.043  -1.028  0.00  0.00    -0.015 C 
ATOM      5  C   UNL     1      -1.708   2.541  -2.140  0.00  0.00    -0.078 C 
ATOM      6  C   UNL     1      -0.614   1.010  -0.614  0.00  0.00    -0.068 C 
ATOM      7  C   UNL     1      -1.509   1.468   0.542  0.00  0.00    +0.024 C 
ATOM      8  N   UNL     1      -1.331   1.131  -1.902  0.00  0.00    +0.383 N 
ATOM      9  H   UNL     1      -0.712   0.819  -2.659  0.00  0.00    -0.081 HD
ENDROOT
BRANCH   7  10
ATOM     10  C   UNL     1      -1.708   0.329   1.508  0.00  0.00    +0.047 A 
ATOM     11  C   UNL     1      -2.821   0.294   2.329  0.00  0.00    +0.052 A 
ATOM     12  C   UNL     1      -2.965  -0.785   3.204  0.00  0.00    +0.076 A 
ATOM     13  N   UNL     1      -2.025  -1.729   3.222  0.00  0.00    -0.232 NA
ATOM     14  C   UNL     1      -0.980  -1.651   2.425  0.00  0.00    +0.127 A 
ATOM     15  N   UNL     1      -0.818  -0.649   1.585  0.00  0.00    -0.237 NA
ATOM     16  C   UNL     1       0.061  -2.740   2.475  0.00  0.00    +0.088 C 
BRANCH  12  17
ATOM     17  C   UNL     1      -4.141  -0.876   4.103  0.00  0.00    +0.014 A 
ATOM     18  C   UNL     1      -4.535   0.231   4.854  0.00  0.00    +0.011 A 
ATOM     19  C   UNL     1      -5.630   0.141   5.688  0.00  0.00    +0.001 A 
ATOM     20  C   UNL     1      -6.337  -1.045   5.782  0.00  0.00    +0.001 A 
ATOM     21  C   UNL     1      -5.951  -2.146   5.040  0.00  0.00    +0.016 A 
ATOM     22  C   UNL     1      -4.860  -2.067   4.197  0.00  0.00    +0.027 A 
ATOM     23 BR   UNL     1      -4.339  -3.572   3.178  0.00  0.00    -0.050 Br
ENDBRANCH  12  17
ENDBRANCH   7  10
BRANCH   1  24
ATOM     24  C   UNL     1      -2.123  -1.174  -1.667  0.00  0.00    +0.090 C 
BRANCH  24  25
ATOM     25  N   UNL     1      -1.131  -1.557  -2.674  0.00  0.00    -0.196 NA
ATOM     26  H   UNL     1      -0.998  -1.003  -3.459  0.00  0.00    +0.148 HD
BRANCH  25  27
ATOM     27  S   UNL     1      -0.237  -2.937  -2.473  0.00  0.00    +0.029 S 
ATOM     28  O   UNL     1       0.595  -3.000  -3.623  0.00  0.00    -0.158 OA
ATOM     29  O   UNL     1       0.328  -2.816  -1.175  0.00  0.00    -0.158 OA
BRANCH  27  30
ATOM     30  C   UNL     1      -1.449  -4.286  -2.504  0.00  0.00    +0.185 C 
BRANCH  30  32
ATOM     31  C   UNL     1      -1.742  -6.763  -2.357  0.00  0.00    +0.005 C 
ATOM     32  C   UNL     1      -0.743  -5.612  -2.215  0.00  0.00    +0.021 C 
ENDBRANCH  30  32
ENDBRANCH  27  30
ENDBRANCH  25  27
ENDBRANCH  24  25
ENDBRANCH   1  24
TORSDOF 7
