REMARK  Name = ZINC00649356
REMARK  11 active torsions:
REMARK  status: ('A' for Active; 'I' for Inactive)
REMARK    1  A    between atoms: C_1  and  O_2
REMARK    2  A    between atoms: O_2  and  C_3
REMARK    3  A    between atoms: C_6  and  C_21
REMARK    4  A    between atoms: C_8  and  C_9
REMARK    5  A    between atoms: C_9  and  O_10
REMARK    6  A    between atoms: O_10  and  C_11
REMARK    7  A    between atoms: C_15  and  C_17
REMARK    8  A    between atoms: C_30  and  C_38
REMARK    9  A    between atoms: C_31  and  N_37
REMARK   10  A    between atoms: C_32  and  C_33
REMARK   11  A    between atoms: C_32  and  C_35
REMARK                            x       y       z     vdW  Elec       q    Type
REMARK                         _______ _______ _______ _____ _____    ______ ____
ROOT
ATOM      1  C   UNL     1      -0.228   1.237   2.502  0.00  0.00    +0.126 A 
ATOM      2  C   UNL     1      -0.906   1.648   3.640  0.00  0.00    +0.046 A 
ATOM      3  C   UNL     1      -2.040   2.427   3.524  0.00  0.00    +0.007 A 
ATOM      4  C   UNL     1      -2.501   2.798   2.274  0.00  0.00    -0.040 A 
ATOM      5  C   UNL     1      -1.824   2.395   1.138  0.00  0.00    +0.014 A 
ATOM      6  C   UNL     1      -0.692   1.610   1.249  0.00  0.00    +0.032 A 
ENDROOT
BRANCH   4   7
ATOM      7  C   UNL     1      -3.738   3.649   2.150  0.00  0.00    +0.066 C 
ATOM      8  C   UNL     1      -4.964   2.748   1.985  0.00  0.00    +0.030 C 
ATOM      9  C   UNL     1      -5.280   1.988   3.251  0.00  0.00    +0.009 C 
ATOM     10  C   UNL     1      -4.746   0.558   3.206  0.00  0.00    +0.005 C 
ATOM     11  C   UNL     1      -5.378  -0.156   2.003  0.00  0.00    +0.027 C 
ATOM     12  C   UNL     1      -4.961   0.583   0.758  0.00  0.00    -0.022 C 
ATOM     13  C   UNL     1      -4.745   1.869   0.790  0.00  0.00    -0.029 C 
ATOM     14  C   UNL     1      -4.216   2.520  -0.437  0.00  0.00    +0.074 C 
ATOM     15  C   UNL     1      -3.685   3.766  -0.352  0.00  0.00    +0.054 C 
ATOM     16  C   UNL     1      -3.618   4.552   0.922  0.00  0.00    +0.188 C 
BRANCH  15  17
ATOM     17  N   UNL     1      -3.184   4.334  -1.490  0.00  0.00    -0.358 N 
ATOM     18  H   UNL     1      -2.746   5.343  -1.454  0.00  0.00    +0.142 HD
ATOM     19  H   UNL     1      -3.218   3.783  -2.441  0.00  0.00    +0.142 HD
ENDBRANCH  15  17
BRANCH  16  20
ATOM     20  C   UNL     1      -4.714   5.534   0.939  0.00  0.00    +0.091 C 
ATOM     21  N   UNL     1      -5.560   6.292   0.952  0.00  0.00    -0.194 NA
ENDBRANCH  16  20
BRANCH  16  22
ATOM     22  C   UNL     1      -2.333   5.269   0.978  0.00  0.00    +0.091 C 
ATOM     23  N   UNL     1      -1.341   5.821   1.020  0.00  0.00    -0.194 NA
ENDBRANCH  16  22
BRANCH  14  24
ATOM     24  C   UNL     1      -4.266   1.840  -1.696  0.00  0.00    +0.101 C 
ATOM     25  N   UNL     1      -4.306   1.301  -2.695  0.00  0.00    -0.191 NA
ENDBRANCH  14  24
ENDBRANCH   4   7
BRANCH   1  27
ATOM     26  C   UNL     1       1.307   0.123   3.935  0.00  0.00    +0.277 C 
ATOM     27  O   UNL     1       0.888   0.469   2.614  0.00  0.00    -0.495 OA
ENDBRANCH   1  27
BRANCH   6  28
ATOM     28  C   UNL     1       0.043   1.166   0.010  0.00  0.00    +0.268 C 
BRANCH  28  29
ATOM     29  O   UNL     1      -0.625   1.675  -1.147  0.00  0.00    -0.487 OA
BRANCH  29  30
ATOM     30  C   UNL     1      -0.087   1.363  -2.356  0.00  0.00    +0.122 A 
ATOM     31  C   UNL     1       1.059   0.585  -2.427  0.00  0.00    +0.046 A 
ATOM     32  C   UNL     1       1.603   0.270  -3.657  0.00  0.00    +0.004 A 
ATOM     33  C   UNL     1       1.007   0.730  -4.816  0.00  0.00    +0.012 A 
ATOM     34  C   UNL     1      -0.136   1.505  -4.748  0.00  0.00    +0.058 A 
ATOM     35  C   UNL     1      -0.687   1.819  -3.521  0.00  0.00    +0.058 A 
BRANCH  34  36
ATOM     36  C   UNL     1      -0.784   2.004  -6.014  0.00  0.00    +0.418 C 
ATOM     37  F   UNL     1      -0.053   1.556  -7.120  0.00  0.00    -0.166 F 
ATOM     38  F   UNL     1      -2.093   1.516  -6.091  0.00  0.00    -0.166 F 
ATOM     39  F   UNL     1      -0.807   3.403  -6.006  0.00  0.00    -0.166 F 
ENDBRANCH  34  36
ENDBRANCH  29  30
ENDBRANCH  28  29
ENDBRANCH   6  28
TORSDOF 10
