REMARK  Name = ZINC65372313
REMARK  8 active torsions:
REMARK  status: ('A' for Active; 'I' for Inactive)
REMARK    1  A    between atoms: C_1  and  C_2
REMARK    2  A    between atoms: C_6  and  C_8
REMARK    3  A    between atoms: C_10  and  C_13
REMARK    4  A    between atoms: C_13  and  S_14
REMARK    5  A    between atoms: S_14  and  C_15
REMARK    6  A    between atoms: C_18  and  C_21
REMARK    7  A    between atoms: N_19  and  C_20
REMARK    8  A    between atoms: C_21  and  C_22
REMARK                            x       y       z     vdW  Elec       q    Type
REMARK                         _______ _______ _______ _____ _____    ______ ____
ROOT
ATOM      1  C   UNL     1      -0.855  -3.357  -6.924  0.00  0.00    +0.191 A 
ATOM      2  N   UNL     1      -1.629  -2.398  -7.377  0.00  0.00    -0.123 NA
ATOM      3  N   UNL     1      -2.142  -2.746  -8.503  0.00  0.00    -0.134 NA
ATOM      4  C   UNL     1      -1.730  -3.938  -8.833  0.00  0.00    +0.134 A 
ATOM      5  N   UNL     1      -0.891  -4.367  -7.842  0.00  0.00    -0.309 N 
ATOM      6  C   UNL     1      -0.181  -5.647  -7.777  0.00  0.00    +0.152 C 
ENDROOT
BRANCH   1   7
ATOM      7  S   UNL     1       0.062  -3.340  -5.419  0.00  0.00    -0.082 S 
BRANCH   7   8
ATOM      8  C   UNL     1      -0.330  -1.729  -4.684  0.00  0.00    +0.122 C 
BRANCH   8  18
ATOM      9  C   UNL     1      -0.018   1.503   0.010  0.00  0.00    +0.066 C 
ATOM     10  C   UNL     1       0.002  -0.004   0.002  0.00  0.00    +0.049 A 
ATOM     11  C   UNL     1       0.006  -0.697  -1.185  0.00  0.00    +0.039 A 
ATOM     12  C   UNL     1       0.019  -2.091  -1.168  0.00  0.00    +0.222 A 
ATOM     13  N   UNL     1       0.038  -2.700   0.017  0.00  0.00    -0.198 NA
ATOM     14  C   UNL     1       0.037  -2.003   1.134  0.00  0.00    +0.130 A 
ATOM     15  N   UNL     1       0.022  -0.685   1.141  0.00  0.00    -0.237 NA
ATOM     16  C   UNL     1       0.058  -2.738   2.450  0.00  0.00    +0.088 C 
ATOM     17  O   UNL     1      -0.003  -2.597  -2.425  0.00  0.00    -0.472 OA
ATOM     18  C   UNL     1       0.412  -1.581  -3.354  0.00  0.00    +0.190 C 
ATOM     19  C   UNL     1       0.004  -0.271  -2.638  0.00  0.00    +0.087 C 
ENDBRANCH   8  18
ENDBRANCH   7   8
ENDBRANCH   1   7
BRANCH   4  20
ATOM     20  C   UNL     1      -2.104  -4.699 -10.078  0.00  0.00    +0.079 C 
BRANCH  20  21
ATOM     21  C   UNL     1      -1.105  -4.376 -11.192  0.00  0.00    -0.007 C 
ATOM     22  C   UNL     1       0.280  -4.904 -10.806  0.00  0.00    -0.015 C 
ATOM     23  C   UNL     1       1.256  -4.649 -11.957  0.00  0.00    -0.082 C 
ATOM     24  N   UNL     1       0.785  -5.340 -13.164  0.00  0.00    +0.379 N 
ATOM     25  C   UNL     1      -0.510  -4.790 -13.581  0.00  0.00    -0.082 C 
ATOM     26  C   UNL     1      -1.553  -5.050 -12.492  0.00  0.00    -0.015 C 
ATOM     27  H   UNL     1       1.458  -5.215 -13.906  0.00  0.00    -0.086 HD
ATOM     28  H   UNL     1       0.684  -6.325 -12.968  0.00  0.00    -0.086 HD
ENDBRANCH  20  21
ENDBRANCH   4  20
TORSDOF 5
