REMARK  Name = ZINC21078234
REMARK  9 active torsions:
REMARK  status: ('A' for Active; 'I' for Inactive)
REMARK    1  A    between atoms: C_1  and  N_2
REMARK    2  A    between atoms: N_2  and  C_3
REMARK    3  A    between atoms: N_2  and  C_4
REMARK    4  A    between atoms: C_7  and  N_10
REMARK    5  A    between atoms: C_11  and  C_13
REMARK    6  A    between atoms: C_13  and  S_14
REMARK    7  A    between atoms: S_14  and  C_15
REMARK    8  A    between atoms: N_20  and  N_21
REMARK    9  A    between atoms: C_22  and  C_23
REMARK                            x       y       z     vdW  Elec       q    Type
REMARK                         _______ _______ _______ _____ _____    ______ ____
ROOT
ATOM      1  C   UNL     1      -0.016   1.362   0.022  0.00  0.00    +0.211 A 
ATOM      2  N   UNL     1       0.003  -0.004   0.015  0.00  0.00    -0.186 NA
ATOM      3  C   UNL     1       1.309  -0.409   0.010  0.00  0.00    +0.232 A 
ATOM      4  N   UNL     1       2.065   0.662   0.014  0.00  0.00    -0.245 N 
ATOM      5  N   UNL     1       1.226   1.784   0.022  0.00  0.00    -0.144 NA
ATOM      6  N   UNL     1       1.755  -1.722   0.002  0.00  0.00    -0.205 N 
ATOM      7  H   UNL     1       1.030  -2.550  -0.002  0.00  0.00    +0.177 HD
ATOM      8  H   UNL     1       3.160   0.562   0.012  0.00  0.00    +0.192 HD
ENDROOT
BRANCH   6   9
ATOM      9  N   UNL     1       3.130  -1.995  -0.003  0.00  0.00    -0.188 NA
ATOM     10  C   UNL     1       3.548  -3.224  -0.011  0.00  0.00    +0.138 C 
BRANCH  10  11
ATOM     11  C   UNL     1       4.994  -3.511  -0.015  0.00  0.00    -0.005 A 
ATOM     12  C   UNL     1       5.917  -2.463  -0.016  0.00  0.00    +0.010 A 
ATOM     13  C   UNL     1       7.268  -2.738  -0.014  0.00  0.00    +0.016 A 
ATOM     14  C   UNL     1       7.711  -4.050  -0.023  0.00  0.00    +0.018 A 
ATOM     15  C   UNL     1       6.801  -5.094  -0.028  0.00  0.00    +0.016 A 
ATOM     16  C   UNL     1       5.447  -4.833  -0.024  0.00  0.00    +0.010 A 
ATOM     17 BR   UNL     1       9.566  -4.418  -0.030  0.00  0.00    -0.050 Br
ENDBRANCH  10  11
ENDBRANCH   6   9
BRANCH   1  18
ATOM     18  S   UNL     1      -1.455   2.378   0.024  0.00  0.00    -0.075 S 
BRANCH  18  19
ATOM     19  C   UNL     1      -0.799   4.069   0.035  0.00  0.00    +0.173 C 
BRANCH  19  21
ATOM     20  N   UNL     1      -1.692   6.376   0.045  0.00  0.00    -0.285 N 
ATOM     21  C   UNL     1      -1.942   5.051   0.037  0.00  0.00    +0.227 C 
ATOM     22  O   UNL     1      -3.086   4.650   0.032  0.00  0.00    -0.275 OA
ATOM     23  H   UNL     1      -0.657   6.740   0.127  0.00  0.00    +0.155 HD
BRANCH  20  27
ATOM     24  C   UNL     1      -4.842   9.094  -0.239  0.00  0.00    +0.029 A 
ATOM     25  C   UNL     1      -5.014   7.902   0.452  0.00  0.00    +0.025 A 
ATOM     26  C   UNL     1      -3.971   7.002   0.546  0.00  0.00    +0.025 A 
ATOM     27  C   UNL     1      -2.751   7.289  -0.051  0.00  0.00    +0.034 A 
ATOM     28  C   UNL     1      -2.577   8.484  -0.737  0.00  0.00    +0.025 A 
ATOM     29  C   UNL     1      -3.621   9.381  -0.836  0.00  0.00    +0.025 A 
BRANCH  24  31
ATOM     30  C   UNL     1      -7.187   9.703   0.293  0.00  0.00    +0.129 C 
ATOM     31  N   UNL     1      -5.899  10.006  -0.335  0.00  0.00    -0.336 N 
ATOM     32  C   UNL     1      -5.718  11.263  -1.064  0.00  0.00    +0.129 C 
ENDBRANCH  24  31
ENDBRANCH  20  27
ENDBRANCH  19  21
ENDBRANCH  18  19
ENDBRANCH   1  18
TORSDOF 7
