REMARK  Name = ZINC06457410
REMARK  7 active torsions:
REMARK  status: ('A' for Active; 'I' for Inactive)
REMARK    1  A    between atoms: C_4  and  O_7
REMARK    2  A    between atoms: O_7  and  C_8
REMARK    3  A    between atoms: C_8  and  C_9
REMARK    4  A    between atoms: N_11  and  C_12
REMARK    5  A    between atoms: C_12  and  C_14
REMARK    6  A    between atoms: C_12  and  C_21
REMARK    7  A    between atoms: C_30  and  O_31
REMARK                            x       y       z     vdW  Elec       q    Type
REMARK                         _______ _______ _______ _____ _____    ______ ____
ROOT
ATOM      1  C   UNL     1      -2.526   1.648   0.022  0.00  0.00    +0.139 C 
ENDROOT
BRANCH   1   2
ATOM      2  C   UNL     1      -2.746   1.233   1.454  0.00  0.00    +0.022 A 
ATOM      3  C   UNL     1      -2.057   1.887   2.472  0.00  0.00    +0.030 A 
ATOM      4  C   UNL     1      -2.239   1.540   3.777  0.00  0.00    +0.051 A 
ATOM      5  C   UNL     1      -3.125   0.499   4.103  0.00  0.00    +0.022 A 
ATOM      6  C   UNL     1      -3.335   0.107   5.439  0.00  0.00    +0.013 A 
ATOM      7  C   UNL     1      -4.211  -0.912   5.681  0.00  0.00    +0.020 A 
ATOM      8  C   UNL     1      -4.867  -1.532   4.620  0.00  0.00    +0.111 A 
ATOM      9  N   UNL     1      -4.669  -1.164   3.378  0.00  0.00    -0.251 NA
ATOM     10  C   UNL     1      -3.825  -0.175   3.072  0.00  0.00    +0.114 A 
ATOM     11  C   UNL     1      -3.615   0.217   1.734  0.00  0.00    +0.148 A 
ATOM     12 CL   UNL     1      -1.374   2.374   5.030  0.00  0.00    -0.083 Cl
BRANCH  11  13
ATOM     13  O   UNL     1      -4.275  -0.413   0.727  0.00  0.00    -0.504 OA
ATOM     14  H   UNL     1      -3.775  -1.133   0.319  0.00  0.00    +0.292 HD
ENDBRANCH  11  13
ENDBRANCH   1   2
BRANCH   1  15
ATOM     15  C   UNL     1      -1.262   2.463  -0.075  0.00  0.00    -0.004 A 
ATOM     16  C   UNL     1      -1.325   3.843  -0.027  0.00  0.00    +0.007 A 
ATOM     17  C   UNL     1      -0.167   4.592  -0.121  0.00  0.00    +0.000 A 
ATOM     18  C   UNL     1       1.056   3.961  -0.260  0.00  0.00    +0.001 A 
ATOM     19  C   UNL     1       1.120   2.581  -0.303  0.00  0.00    +0.020 A 
ATOM     20  C   UNL     1      -0.039   1.831  -0.208  0.00  0.00    +0.046 A 
ATOM     21 CL   UNL     1       0.041   0.098  -0.262  0.00  0.00    -0.083 Cl
ENDBRANCH   1  15
BRANCH   1  24
ATOM     22  C   UNL     1      -3.967   2.504  -1.745  0.00  0.00    +0.251 C 
ATOM     23  O   UNL     1      -3.301   1.885  -2.548  0.00  0.00    -0.272 OA
ATOM     24  N   UNL     1      -3.662   2.451  -0.434  0.00  0.00    -0.302 N 
ATOM     25  H   UNL     1      -4.195   2.946   0.208  0.00  0.00    +0.150 HD
BRANCH  22  26
ATOM     26  C   UNL     1      -5.137   3.331  -2.215  0.00  0.00    +0.324 C 
BRANCH  26  27
ATOM     27  O   UNL     1      -5.255   3.225  -3.635  0.00  0.00    -0.483 OA
BRANCH  27  31
ATOM     28  C   UNL     1      -8.327   5.322  -5.419  0.00  0.00    +0.000 A 
ATOM     29  C   UNL     1      -7.470   4.562  -6.193  0.00  0.00    +0.004 A 
ATOM     30  C   UNL     1      -6.440   3.859  -5.598  0.00  0.00    +0.045 A 
ATOM     31  C   UNL     1      -6.267   3.916  -4.223  0.00  0.00    +0.121 A 
ATOM     32  C   UNL     1      -7.132   4.675  -3.447  0.00  0.00    +0.045 A 
ATOM     33  C   UNL     1      -8.156   5.381  -4.048  0.00  0.00    +0.004 A 
ENDBRANCH  27  31
ENDBRANCH  26  27
ENDBRANCH  22  26
ENDBRANCH   1  24
TORSDOF 7
