REMARK  Name = ZINC06201433
REMARK  10 active torsions:
REMARK  status: ('A' for Active; 'I' for Inactive)
REMARK    1  A    between atoms: C_1  and  C_2
REMARK    2  A    between atoms: C_9  and  N_15
REMARK    3  A    between atoms: C_10  and  C_11
REMARK    4  A    between atoms: C_11  and  O_13
REMARK    5  A    between atoms: O_13  and  C_14
REMARK    6  A    between atoms: N_15  and  C_16
REMARK    7  A    between atoms: C_16  and  N_18
REMARK    8  A    between atoms: N_18  and  C_19
REMARK    9  A    between atoms: C_19  and  C_20
REMARK   10  A    between atoms: N_23  and  C_25
REMARK                            x       y       z     vdW  Elec       q    Type
REMARK                         _______ _______ _______ _____ _____    ______ ____
ROOT
ATOM      1  C   UNL     1      -1.519  -5.425  -4.698  0.00  0.00    +0.008 C 
ATOM      2  C   UNL     1      -1.754  -4.485  -3.514  0.00  0.00    -0.009 C 
ATOM      3  C   UNL     1      -0.871  -3.243  -3.658  0.00  0.00    +0.008 C 
ATOM      4  C   UNL     1      -1.277  -2.193  -2.622  0.00  0.00    +0.037 C 
ATOM      5  C   UNL     1      -1.289  -2.843  -1.244  0.00  0.00    -0.021 A 
ATOM      6  C   UNL     1      -1.340  -4.185  -1.108  0.00  0.00    -0.004 A 
ATOM      7  S   UNL     1      -1.333  -4.465   0.640  0.00  0.00    -0.077 S 
ATOM      8  C   UNL     1      -1.259  -2.822   1.186  0.00  0.00    +0.086 A 
ATOM      9  C   UNL     1      -1.248  -2.095   0.003  0.00  0.00    +0.091 A 
ATOM     10  C   UNL     1      -1.390  -5.202  -2.206  0.00  0.00    +0.046 C 
ENDROOT
BRANCH   9  11
ATOM     11  C   UNL     1      -1.191  -0.633   0.010  0.00  0.00    +0.342 C 
ATOM     12  O   UNL     1      -2.220   0.016   0.023  0.00  0.00    -0.245 OA
BRANCH  11  13
ATOM     13  O   UNL     1       0.002  -0.004   0.002  0.00  0.00    -0.464 OA
ATOM     14  C   UNL     1      -0.018   1.448   0.010  0.00  0.00    +0.280 C 
ENDBRANCH  11  13
ENDBRANCH   9  11
BRANCH   8  15
ATOM     15  N   UNL     1      -1.222  -2.349   2.488  0.00  0.00    -0.291 N 
ATOM     16  H   UNL     1      -1.182  -1.394   2.655  0.00  0.00    +0.154 HD
BRANCH  15  17
ATOM     17  C   UNL     1      -1.240  -3.215   3.521  0.00  0.00    +0.135 C 
ATOM     18  S   UNL     1      -1.309  -4.899   3.224  0.00  0.00    -0.019 S 
BRANCH  17  19
ATOM     19  N   UNL     1      -1.204  -2.754   4.787  0.00  0.00    -0.322 N 
ATOM     20  H   UNL     1      -1.165  -1.799   4.954  0.00  0.00    +0.148 HD
BRANCH  19  21
ATOM     21  C   UNL     1      -1.224  -3.695   5.909  0.00  0.00    +0.141 C 
BRANCH  21  22
ATOM     22  C   UNL     1      -1.175  -2.930   7.207  0.00  0.00    +0.007 A 
ATOM     23  C   UNL     1      -2.279  -2.469   7.932  0.00  0.00    +0.139 A 
ATOM     24  N   UNL     1      -1.838  -1.853   8.999  0.00  0.00    -0.180 NA
ATOM     25  N   UNL     1      -0.439  -1.902   8.986  0.00  0.00    -0.274 N 
ATOM     26  C   UNL     1      -0.057  -2.573   7.879  0.00  0.00    +0.113 A 
ATOM     27  C   UNL     1       0.453  -1.331   9.998  0.00  0.00    +0.172 C 
ENDBRANCH  21  22
ENDBRANCH  19  21
ENDBRANCH  17  19
ENDBRANCH  15  17
ENDBRANCH   8  15
TORSDOF 7
