REMARK  Name = ZINC32599586
REMARK  4 active torsions:
REMARK  status: ('A' for Active; 'I' for Inactive)
REMARK    1  A    between atoms: N_11  and  C_12
REMARK    2  A    between atoms: C_15  and  N_18
REMARK    3  A    between atoms: N_18  and  C_19
REMARK    4  A    between atoms: C_19  and  C_24
REMARK                            x       y       z     vdW  Elec       q    Type
REMARK                         _______ _______ _______ _____ _____    ______ ____
ROOT
ATOM      1  C   UNL     1       1.473   2.952  -1.054  0.00  0.00    +0.073 C 
ATOM      2  C   UNL     1       0.921   3.967  -0.051  0.00  0.00    +0.020 C 
ATOM      3  C   UNL     1       1.390   5.371  -0.436  0.00  0.00    -0.014 C 
ATOM      4  C   UNL     1       0.882   5.712  -1.838  0.00  0.00    -0.070 C 
ATOM      5  C   UNL     1       1.434   4.697  -2.841  0.00  0.00    -0.014 C 
ATOM      6  C   UNL     1       0.965   3.293  -2.456  0.00  0.00    +0.020 C 
ENDROOT
BRANCH   1  15
ATOM      7  C   UNL     1       2.773  -2.245  -0.849  0.00  0.00    +0.002 C 
ATOM      8  C   UNL     1       3.726  -1.106  -0.503  0.00  0.00    +0.002 C 
ATOM      9  C   UNL     1       3.197   0.259  -0.979  0.00  0.00    +0.024 C 
ATOM     10  C   UNL     1       1.837   0.445  -0.345  0.00  0.00    +0.099 C 
ATOM     11  C   UNL     1       0.922  -0.656  -0.954  0.00  0.00    +0.149 C 
ATOM     12  C   UNL     1       1.355  -1.970  -0.353  0.00  0.00    +0.030 C 
ATOM     13  N   UNL     1      -0.395  -0.116  -0.716  0.00  0.00    -0.168 NA
ATOM     14  N   UNL     1      -0.305   1.124  -0.575  0.00  0.00    -0.102 NA
ATOM     15  N   UNL     1       1.024   1.607  -0.685  0.00  0.00    -0.306 NA
ATOM     16  H   UNL     1       1.257   2.644  -0.969  0.00  0.00    +0.148 HD
ENDBRANCH   1  15
BRANCH   4  17
ATOM     17  N   UNL     1       1.332   7.061  -2.207  0.00  0.00    +0.392 N 
ATOM     18  H   UNL     1       2.235   7.316  -1.633  0.00  0.00    -0.084 HD
ATOM     19  H   UNL     1       1.562   7.089  -3.283  0.00  0.00    -0.084 HD
BRANCH  17  20
ATOM     20  C   UNL     1       0.293   8.059  -1.922  0.00  0.00    +0.036 C 
ATOM     21  C   UNL     1       0.101   8.199  -0.402  0.00  0.00    -0.001 C 
ATOM     22  C   UNL     1      -1.365   7.812  -0.107  0.00  0.00    -0.001 C 
ATOM     23  C   UNL     1      -1.768   6.912  -1.300  0.00  0.00    -0.001 C 
ATOM     24  C   UNL     1      -1.060   7.594  -2.498  0.00  0.00    -0.001 C 
BRANCH  20  25
ATOM     25  C   UNL     1       0.678   9.389  -2.518  0.00  0.00    +0.345 C 
ATOM     26  O   UNL     1      -0.175  10.122  -2.960  0.00  0.00    -0.248 OA
ATOM     27  O   UNL     1       1.968   9.759  -2.558  0.00  0.00    -0.248 OA
ENDBRANCH  20  25
ENDBRANCH  17  20
ENDBRANCH   4  17
TORSDOF 4
