REMARK  Name = ZINC35786104
REMARK  11 active torsions:
REMARK  status: ('A' for Active; 'I' for Inactive)
REMARK    1  A    between atoms: C_1  and  C_2
REMARK    2  A    between atoms: C_5  and  C_8
REMARK    3  A    between atoms: C_11  and  C_22
REMARK    4  A    between atoms: C_14  and  C_16
REMARK    5  A    between atoms: C_16  and  N_17
REMARK    6  A    between atoms: N_17  and  C_18
REMARK    7  A    between atoms: N_17  and  C_19
REMARK    8  A    between atoms: C_19  and  C_20
REMARK    9  A    between atoms: C_19  and  C_21
REMARK   10  A    between atoms: C_25  and  C_29
REMARK   11  A    between atoms: C_27  and  C_28
REMARK                            x       y       z     vdW  Elec       q    Type
REMARK                         _______ _______ _______ _____ _____    ______ ____
ROOT
ATOM      1  C   UNL     1      -0.152  -5.109  -0.398  0.00  0.00    +0.137 C 
ATOM      2  C   UNL     1       1.306  -5.455  -0.037  0.00  0.00    +0.087 C 
ATOM      3  C   UNL     1       1.209  -6.030   1.358  0.00  0.00    +0.069 C 
ATOM      4  N   UNL     1      -0.021  -6.028   1.740  0.00  0.00    -0.181 NA
ATOM      5  N   UNL     1      -0.912  -5.513   0.796  0.00  0.00    -0.187 N 
ATOM      6  C   UNL     1      -2.246  -5.403   0.951  0.00  0.00    +0.219 C 
ATOM      7  O   UNL     1      -2.924  -4.938   0.059  0.00  0.00    -0.276 OA
ENDROOT
BRANCH   3   8
ATOM      8  C   UNL     1       2.348  -6.519   2.158  0.00  0.00    +0.001 A 
ATOM      9  C   UNL     1       3.626  -6.581   1.595  0.00  0.00    +0.010 A 
ATOM     10  C   UNL     1       4.686  -7.040   2.349  0.00  0.00    +0.004 A 
ATOM     11  C   UNL     1       4.486  -7.438   3.659  0.00  0.00    -0.050 A 
ATOM     12  C   UNL     1       3.224  -7.380   4.223  0.00  0.00    +0.007 A 
ATOM     13  C   UNL     1       2.155  -6.918   3.482  0.00  0.00    -0.041 A 
ATOM     14  C   UNL     1       0.782  -6.849   4.100  0.00  0.00    +0.044 C 
ATOM     15  C   UNL     1       5.650  -7.938   4.476  0.00  0.00    +0.044 C 
ENDBRANCH   3   8
BRANCH   1  20
ATOM     16  C   UNL     1      -0.724   0.562  -1.347  0.00  0.00    +0.044 C 
ATOM     17  C   UNL     1      -0.575  -0.917  -1.100  0.00  0.00    -0.050 A 
ATOM     18  C   UNL     1      -0.509  -1.793  -2.167  0.00  0.00    +0.004 A 
ATOM     19  C   UNL     1      -0.372  -3.150  -1.940  0.00  0.00    +0.006 A 
ATOM     20  C   UNL     1      -0.300  -3.630  -0.645  0.00  0.00    -0.025 A 
ATOM     21  C   UNL     1      -0.365  -2.754   0.422  0.00  0.00    +0.006 A 
ATOM     22  C   UNL     1      -0.497  -1.397   0.195  0.00  0.00    +0.004 A 
ENDBRANCH   1  20
BRANCH   6  23
ATOM     23  C   UNL     1      -2.896  -5.858   2.232  0.00  0.00    +0.020 C 
BRANCH  23  24
ATOM     24  N   UNL     1      -4.346  -5.634   2.151  0.00  0.00    +0.385 N 
ATOM     25  C   UNL     1      -4.916  -6.488   1.101  0.00  0.00    -0.095 C 
ATOM     26  H   UNL     1      -4.525  -4.666   1.931  0.00  0.00    -0.081 HD
BRANCH  24  27
ATOM     27  C   UNL     1      -4.965  -5.965   3.442  0.00  0.00    -0.075 C 
ATOM     28  C   UNL     1      -4.371  -5.075   4.536  0.00  0.00    -0.014 C 
ATOM     29  C   UNL     1      -6.475  -5.731   3.358  0.00  0.00    -0.014 C 
ENDBRANCH  24  27
ENDBRANCH  23  24
ENDBRANCH   6  23
TORSDOF 5
