REMARK  Name = ZINC01146515
REMARK  8 active torsions:
REMARK  status: ('A' for Active; 'I' for Inactive)
REMARK    1  A    between atoms: C_1  and  C_2
REMARK    2  A    between atoms: C_2  and  O_3
REMARK    3  A    between atoms: O_3  and  C_4
REMARK    4  A    between atoms: C_4  and  C_6
REMARK    5  A    between atoms: C_10  and  N_11
REMARK    6  A    between atoms: C_12  and  C_14
REMARK    7  A    between atoms: C_17  and  C_19
REMARK    8  A    between atoms: C_24  and  N_25
REMARK                            x       y       z     vdW  Elec       q    Type
REMARK                         _______ _______ _______ _____ _____    ______ ____
ROOT
ATOM      1  N   UNL     1       2.341   3.288  -0.003  0.00  0.00    -0.273 N 
ATOM      2  C   UNL     1       1.633   4.435   0.011  0.00  0.00    +0.284 C 
ATOM      3  O   UNL     1       0.417   4.400   0.023  0.00  0.00    -0.266 OA
ATOM      4  H   UNL     1       3.310   3.316  -0.012  0.00  0.00    +0.156 HD
ENDROOT
BRANCH   1   9
ATOM      5  C   UNL     1       2.232   0.793  -0.015  0.00  0.00    +0.091 A 
ATOM      6  C   UNL     1       1.312  -0.332  -0.012  0.00  0.00    -0.021 A 
ATOM      7  C   UNL     1       0.002  -0.004   0.002  0.00  0.00    -0.004 A 
ATOM      8  S   UNL     1      -0.022   1.766   0.012  0.00  0.00    -0.077 S 
ATOM      9  C   UNL     1       1.684   2.070  -0.003  0.00  0.00    +0.087 A 
ATOM     10  C   UNL     1      -1.164  -0.944   0.007  0.00  0.00    +0.043 C 
ATOM     11  C   UNL     1      -0.662  -2.341  -0.383  0.00  0.00    +0.005 C 
ATOM     12  C   UNL     1       0.589  -2.663   0.440  0.00  0.00    +0.005 C 
ATOM     13  C   UNL     1       1.756  -1.790  -0.023  0.00  0.00    +0.037 C 
BRANCH   5  14
ATOM     14  C   UNL     1       3.682   0.589  -0.030  0.00  0.00    +0.342 C 
ATOM     15  O   UNL     1       4.273   0.510  -1.090  0.00  0.00    -0.245 OA
BRANCH  14  16
ATOM     16  O   UNL     1       4.361   0.488   1.130  0.00  0.00    -0.461 OA
BRANCH  16  18
ATOM     17  C   UNL     1       6.389   0.198   2.446  0.00  0.00    +0.048 C 
ATOM     18  C   UNL     1       5.796   0.287   1.039  0.00  0.00    +0.229 C 
ENDBRANCH  16  18
ENDBRANCH  14  16
ENDBRANCH   5  14
ENDBRANCH   1   9
BRANCH   2  19
ATOM     19  C   UNL     1       2.329   5.724   0.011  0.00  0.00    +0.190 A 
ATOM     20  C   UNL     1       1.731   6.966   0.018  0.00  0.00    +0.055 A 
ATOM     21  C   UNL     1       2.762   7.910   0.019  0.00  0.00    +0.051 A 
ATOM     22  C   UNL     1       3.939   7.219   0.003  0.00  0.00    +0.138 A 
ATOM     23  O   UNL     1       3.666   5.903  -0.002  0.00  0.00    -0.450 OA
BRANCH  22  24
ATOM     24  C   UNL     1       5.290   7.818  -0.007  0.00  0.00    +0.047 A 
ATOM     25  C   UNL     1       5.607   8.817  -0.929  0.00  0.00    +0.014 A 
ATOM     26  C   UNL     1       6.870   9.372  -0.932  0.00  0.00    +0.001 A 
ATOM     27  C   UNL     1       7.821   8.941  -0.024  0.00  0.00    +0.002 A 
ATOM     28  C   UNL     1       7.513   7.951   0.892  0.00  0.00    +0.033 A 
ATOM     29  C   UNL     1       6.253   7.391   0.910  0.00  0.00    +0.137 A 
BRANCH  29  30
ATOM     30  N   UNL     1       5.923   6.336   1.895  0.00  0.00    +0.057 N 
ATOM     31  O   UNL     1       6.765   5.965   2.694  0.00  0.00    -0.126 OA
ATOM     32  O   UNL     1       4.812   5.839   1.906  0.00  0.00    -0.126 OA
ENDBRANCH  29  30
ENDBRANCH  22  24
ENDBRANCH   2  19
TORSDOF 7
