REMARK  Name = ZINC12501857
REMARK  7 active torsions:
REMARK  status: ('A' for Active; 'I' for Inactive)
REMARK    1  A    between atoms: C_5  and  O_7
REMARK    2  A    between atoms: O_7  and  C_8
REMARK    3  A    between atoms: C_8  and  C_9
REMARK    4  A    between atoms: N_11  and  N_12
REMARK    5  A    between atoms: N_12  and  C_13
REMARK    6  A    between atoms: C_13  and  N_15
REMARK    7  A    between atoms: C_16  and  C_18
REMARK                            x       y       z     vdW  Elec       q    Type
REMARK                         _______ _______ _______ _____ _____    ______ ____
ROOT
ATOM      1  N   UNL     1       3.478   1.933  -0.021  0.00  0.00    -0.245 N 
ATOM      2  H   UNL     1       4.324   1.459  -0.031  0.00  0.00    +0.172 HD
ENDROOT
BRANCH   1   5
ATOM      3  C   UNL     1       4.617   4.023  -0.020  0.00  0.00    +0.267 C 
ATOM      4  O   UNL     1       5.675   3.431  -0.034  0.00  0.00    -0.271 OA
ATOM      5  N   UNL     1       3.459   3.333  -0.013  0.00  0.00    -0.232 N 
ATOM      6  H   UNL     1       2.612   3.807  -0.002  0.00  0.00    +0.173 HD
BRANCH   3   7
ATOM      7  C   UNL     1       4.596   5.530  -0.012  0.00  0.00    +0.326 C 
BRANCH   7   8
ATOM      8  O   UNL     1       5.937   6.025  -0.022  0.00  0.00    -0.481 OA
BRANCH   8  13
ATOM      9  C   UNL     1       5.151   9.577   0.004  0.00  0.00    +0.004 A 
ATOM     10  C   UNL     1       6.422  10.122  -0.005  0.00  0.00    +0.002 A 
ATOM     11  C   UNL     1       7.530   9.297  -0.020  0.00  0.00    +0.023 A 
ATOM     12  C   UNL     1       7.371   7.924  -0.026  0.00  0.00    +0.083 A 
ATOM     13  C   UNL     1       6.096   7.374  -0.017  0.00  0.00    +0.139 A 
ATOM     14  C   UNL     1       4.986   8.206  -0.007  0.00  0.00    +0.047 A 
ATOM     15 CL   UNL     1       8.764   6.888  -0.045  0.00  0.00    -0.080 Cl
ENDBRANCH   8  13
ENDBRANCH   7   8
ENDBRANCH   3   7
ENDBRANCH   1   5
BRANCH   1  16
ATOM     16  C   UNL     1       2.320   1.243  -0.013  0.00  0.00    +0.153 C 
ATOM     17  S   UNL     1       2.343  -0.469  -0.023  0.00  0.00    -0.017 S 
BRANCH  16  18
ATOM     18  N   UNL     1       1.143   1.901   0.001  0.00  0.00    -0.263 N 
ATOM     19  C   UNL     1      -0.014   1.211   0.009  0.00  0.00    +0.250 C 
ATOM     20  O   UNL     1       0.002  -0.004   0.002  0.00  0.00    -0.270 OA
ATOM     21  H   UNL     1       1.130   2.871   0.007  0.00  0.00    +0.157 HD
BRANCH  19  22
ATOM     22  C   UNL     1      -1.304   1.932   0.019  0.00  0.00    +0.037 A 
ATOM     23  C   UNL     1      -1.326   3.329   0.032  0.00  0.00    +0.014 A 
ATOM     24  C   UNL     1      -2.532   3.996   0.037  0.00  0.00    +0.021 A 
ATOM     25  C   UNL     1      -3.721   3.284   0.038  0.00  0.00    +0.041 A 
ATOM     26  C   UNL     1      -3.705   1.899   0.030  0.00  0.00    +0.021 A 
ATOM     27  C   UNL     1      -2.505   1.220   0.021  0.00  0.00    +0.014 A 
ATOM     28 CL   UNL     1      -5.236   4.132   0.050  0.00  0.00    -0.084 Cl
ENDBRANCH  19  22
ENDBRANCH  16  18
ENDBRANCH   1  16
TORSDOF 7
