REMARK  Name = ZINC36369640
REMARK  12 active torsions:
REMARK  status: ('A' for Active; 'I' for Inactive)
REMARK    1  A    between atoms: C_1  and  C_2
REMARK    2  A    between atoms: N_9  and  C_10
REMARK    3  A    between atoms: C_14  and  O_16
REMARK    4  A    between atoms: O_16  and  C_17
REMARK    5  A    between atoms: N_18  and  C_39
REMARK    6  A    between atoms: N_21  and  C_24
REMARK    7  A    between atoms: C_24  and  C_25
REMARK    8  A    between atoms: C_25  and  C_27
REMARK    9  A    between atoms: C_25  and  C_28
REMARK   10  A    between atoms: C_28  and  N_29
REMARK   11  A    between atoms: C_30  and  C_38
REMARK   12  A    between atoms: C_35  and  C_37
REMARK                            x       y       z     vdW  Elec       q    Type
REMARK                         _______ _______ _______ _____ _____    ______ ____
ROOT
ATOM      1  C   UNL     1       0.797   1.642  -0.961  0.00  0.00    +0.065 C 
ATOM      2  C   UNL     1       0.523   0.177  -0.737  0.00  0.00    +0.040 A 
ATOM      3  C   UNL     1       0.535  -0.770  -1.670  0.00  0.00    +0.116 A 
ATOM      4  N   UNL     1       0.236  -1.980  -1.068  0.00  0.00    -0.277 N 
ATOM      5  C   UNL     1       0.056  -3.338  -1.281  0.00  0.00    +0.157 A 
ATOM      6  C   UNL     1      -0.251  -3.892  -0.039  0.00  0.00    +0.170 A 
ATOM      7  N   UNL     1      -0.249  -2.904   0.851  0.00  0.00    -0.193 NA
ATOM      8  C   UNL     1       0.040  -1.757   0.253  0.00  0.00    +0.223 A 
ATOM      9  N   UNL     1       0.222  -0.416   0.476  0.00  0.00    -0.283 N 
ATOM     10  N   UNL     1      -0.483  -5.257   0.044  0.00  0.00    -0.279 N 
ATOM     11  C   UNL     1      -0.410  -6.021  -1.063  0.00  0.00    +0.333 A 
ATOM     12  O   UNL     1      -0.617  -7.216  -0.973  0.00  0.00    -0.246 OA
ATOM     13  N   UNL     1      -0.116  -5.495  -2.264  0.00  0.00    -0.259 N 
ATOM     14  C   UNL     1       0.120  -4.175  -2.408  0.00  0.00    +0.283 A 
ATOM     15  O   UNL     1       0.386  -3.712  -3.504  0.00  0.00    -0.265 OA
ATOM     16  C   UNL     1      -0.807  -5.868   1.335  0.00  0.00    +0.155 C 
ENDROOT
BRANCH   9  17
ATOM     17  C   UNL     1       0.117   0.237   1.710  0.00  0.00    +0.053 A 
ATOM     18  C   UNL     1      -1.091   0.239   2.396  0.00  0.00    +0.026 A 
ATOM     19  C   UNL     1      -1.194   0.883   3.614  0.00  0.00    +0.006 A 
ATOM     20  C   UNL     1      -0.096   1.527   4.153  0.00  0.00    +0.046 A 
ATOM     21  C   UNL     1       1.113   1.528   3.472  0.00  0.00    +0.122 A 
ATOM     22  C   UNL     1       1.222   0.879   2.252  0.00  0.00    +0.071 A 
BRANCH  21  23
ATOM     23  O   UNL     1       2.192   2.162   4.003  0.00  0.00    -0.495 OA
ATOM     24  C   UNL     1       2.009   2.805   5.266  0.00  0.00    +0.277 C 
ENDBRANCH  21  23
ENDBRANCH   9  17
BRANCH  13  25
ATOM     25  C   UNL     1      -0.049  -6.371  -3.437  0.00  0.00    +0.131 C 
BRANCH  25  26
ATOM     26  C   UNL     1      -1.429  -6.452  -4.092  0.00  0.00    -0.011 C 
ATOM     27  C   UNL     1      -1.818  -5.076  -4.636  0.00  0.00    +0.007 C 
BRANCH  26  28
ATOM     28  C   UNL     1      -1.390  -7.462  -5.241  0.00  0.00    -0.073 C 
BRANCH  28  29
ATOM     29  N   UNL     1      -2.692  -8.133  -5.348  0.00  0.00    +0.383 N 
ATOM     30  C   UNL     1      -2.975  -8.851  -4.100  0.00  0.00    -0.071 C 
ATOM     31  C   UNL     1      -4.293  -9.618  -4.236  0.00  0.00    -0.016 C 
ATOM     32  C   UNL     1      -5.425  -8.628  -4.525  0.00  0.00    -0.003 C 
ATOM     33  C   UNL     1      -5.084  -7.832  -5.788  0.00  0.00    -0.016 C 
ATOM     34  C   UNL     1      -3.737  -7.131  -5.595  0.00  0.00    -0.071 C 
ATOM     35  C   UNL     1      -3.392  -6.334  -6.854  0.00  0.00    -0.013 C 
ATOM     36  C   UNL     1      -1.841  -9.837  -3.812  0.00  0.00    -0.013 C 
ATOM     37  H   UNL     1      -2.669  -8.789  -6.114  0.00  0.00    -0.081 HD
ENDBRANCH  28  29
ENDBRANCH  26  28
ENDBRANCH  25  26
ENDBRANCH  13  25
TORSDOF 6
