REMARK  Name = ZINC09153434
REMARK  11 active torsions:
REMARK  status: ('A' for Active; 'I' for Inactive)
REMARK    1  A    between atoms: C_1  and  C_2
REMARK    2  A    between atoms: C_2  and  C_3
REMARK    3  A    between atoms: C_3  and  N_4
REMARK    4  A    between atoms: N_15  and  C_18
REMARK    5  A    between atoms: C_18  and  C_19
REMARK    6  A    between atoms: N_21  and  C_22
REMARK    7  A    between atoms: C_22  and  C_23
REMARK    8  A    between atoms: C_23  and  C_24
REMARK    9  A    between atoms: C_24  and  N_25
REMARK   10  A    between atoms: C_26  and  C_34
REMARK   11  A    between atoms: C_31  and  C_33
REMARK                            x       y       z     vdW  Elec       q    Type
REMARK                         _______ _______ _______ _____ _____    ______ ____
ROOT
ATOM      1  N   UNL     1      -1.413  -1.998   0.005  0.00  0.00    -0.336 N 
ATOM      2  C   UNL     1      -1.408  -2.780  -1.131  0.00  0.00    +0.050 A 
ATOM      3  C   UNL     1      -1.417  -2.471  -2.489  0.00  0.00    +0.026 A 
ATOM      4  C   UNL     1      -1.408  -3.482  -3.423  0.00  0.00    +0.002 A 
ATOM      5  C   UNL     1      -1.388  -4.812  -3.026  0.00  0.00    +0.001 A 
ATOM      6  C   UNL     1      -1.379  -5.138  -1.699  0.00  0.00    +0.010 A 
ATOM      7  C   UNL     1      -1.388  -4.129  -0.735  0.00  0.00    +0.009 A 
ATOM      8  C   UNL     1      -1.381  -4.129   0.734  0.00  0.00    +0.033 A 
ATOM      9  C   UNL     1      -1.392  -2.792   1.131  0.00  0.00    +0.118 A 
ATOM     10  C   UNL     1      -1.382  -2.498   2.515  0.00  0.00    +0.292 A 
ATOM     11  O   UNL     1      -1.395  -1.339   2.899  0.00  0.00    -0.264 OA
ATOM     12  N   UNL     1      -1.360  -3.510   3.405  0.00  0.00    -0.219 N 
ATOM     13  N   UNL     1      -1.346  -4.841   2.979  0.00  0.00    -0.175 NA
ATOM     14  C   UNL     1      -1.363  -5.147   1.711  0.00  0.00    +0.143 A 
ENDROOT
BRANCH   1  15
ATOM     15  C   UNL     1      -1.433  -0.534   0.013  0.00  0.00    +0.122 C 
BRANCH  15  17
ATOM     16  C   UNL     1      -0.019   1.526   0.010  0.00  0.00    +0.005 C 
ATOM     17  C   UNL     1       0.002  -0.004   0.002  0.00  0.00    +0.018 C 
ENDBRANCH  15  17
ENDBRANCH   1  15
BRANCH  12  18
ATOM     18  C   UNL     1      -1.349  -3.211   4.839  0.00  0.00    +0.243 C 
BRANCH  18  19
ATOM     19  C   UNL     1      -2.766  -3.127   5.345  0.00  0.00    +0.235 C 
ATOM     20  O   UNL     1      -3.694  -3.301   4.583  0.00  0.00    -0.274 OA
ATOM     21  N   UNL     1      -3.003  -2.860   6.645  0.00  0.00    -0.314 N 
ATOM     22  H   UNL     1      -2.261  -2.722   7.255  0.00  0.00    +0.149 HD
BRANCH  21  23
ATOM     23  C   UNL     1      -4.381  -2.779   7.137  0.00  0.00    +0.102 C 
BRANCH  23  24
ATOM     24  C   UNL     1      -4.370  -2.467   8.635  0.00  0.00    +0.000 C 
BRANCH  24  25
ATOM     25  C   UNL     1      -5.808  -2.382   9.149  0.00  0.00    -0.077 C 
BRANCH  25  26
ATOM     26  N   UNL     1      -5.798  -2.082  10.587  0.00  0.00    +0.383 N 
ATOM     27  C   UNL     1      -5.182  -3.199  11.313  0.00  0.00    -0.071 C 
ATOM     28  C   UNL     1      -5.095  -2.857  12.802  0.00  0.00    -0.016 C 
ATOM     29  C   UNL     1      -6.505  -2.607  13.346  0.00  0.00    -0.003 C 
ATOM     30  C   UNL     1      -7.165  -1.491  12.532  0.00  0.00    -0.016 C 
ATOM     31  C   UNL     1      -7.175  -1.883  11.053  0.00  0.00    -0.071 C 
ATOM     32  C   UNL     1      -7.834  -0.770  10.236  0.00  0.00    -0.013 C 
ATOM     33  C   UNL     1      -6.033  -4.457  11.129  0.00  0.00    -0.013 C 
ATOM     34  H   UNL     1      -5.264  -1.242  10.750  0.00  0.00    -0.081 HD
ENDBRANCH  25  26
ENDBRANCH  24  25
ENDBRANCH  23  24
ENDBRANCH  21  23
ENDBRANCH  18  19
ENDBRANCH  12  18
TORSDOF 8
