REMARK  Name = ZINC58192253
REMARK  6 active torsions:
REMARK  status: ('A' for Active; 'I' for Inactive)
REMARK    1  A    between atoms: C_1  and  C_2
REMARK    2  A    between atoms: C_2  and  C_3
REMARK    3  A    between atoms: C_10  and  C_12
REMARK    4  A    between atoms: C_12  and  N_13
REMARK    5  A    between atoms: C_16  and  C_20
REMARK    6  A    between atoms: C_16  and  C_21
REMARK                            x       y       z     vdW  Elec       q    Type
REMARK                         _______ _______ _______ _____ _____    ______ ____
ROOT
ATOM      1  N   UNL     1      -5.105  -4.827   1.710  0.00  0.00    -0.215 N 
ATOM      2  C   UNL     1      -4.898  -6.158   1.677  0.00  0.00    +0.251 C 
ATOM      3  O   UNL     1      -4.398  -6.800   0.778  0.00  0.00    -0.272 OA
ATOM      4  C   UNL     1      -5.420  -6.686   2.999  0.00  0.00    +0.138 C 
ATOM      5  N   UNL     1      -5.906  -5.478   3.687  0.00  0.00    -0.281 N 
ATOM      6  C   UNL     1      -5.675  -4.444   2.858  0.00  0.00    +0.310 C 
ATOM      7  O   UNL     1      -5.955  -3.291   3.122  0.00  0.00    -0.252 OA
ATOM      8  C   UNL     1      -4.293  -7.345   3.798  0.00  0.00    +0.047 C 
ATOM      9  H   UNL     1      -6.311  -5.436   4.567  0.00  0.00    +0.152 HD
ENDROOT
BRANCH   4  10
ATOM     10  C   UNL     1      -6.549  -7.658   2.773  0.00  0.00    +0.020 A 
ATOM     11  C   UNL     1      -7.801  -7.398   3.299  0.00  0.00    +0.009 A 
ATOM     12  C   UNL     1      -8.837  -8.289   3.091  0.00  0.00    +0.001 A 
ATOM     13  C   UNL     1      -8.623  -9.442   2.358  0.00  0.00    +0.003 A 
ATOM     14  C   UNL     1      -7.372  -9.703   1.831  0.00  0.00    +0.039 A 
ATOM     15  C   UNL     1      -6.335  -8.809   2.033  0.00  0.00    +0.129 A 
ATOM     16  F   UNL     1      -5.114  -9.061   1.515  0.00  0.00    -0.205 F 
ENDBRANCH   4  10
BRANCH   1  17
ATOM     17  C   UNL     1      -4.745  -3.912   0.624  0.00  0.00    +0.213 C 
BRANCH  17  24
ATOM     18  C   UNL     1      -1.433  -0.534   0.013  0.00  0.00    +0.135 C 
ATOM     19  C   UNL     1      -1.414  -2.062   0.128  0.00  0.00    +0.139 C 
ATOM     20  N   UNL     1      -2.788  -2.558  -0.052  0.00  0.00    -0.296 N 
ATOM     21  C   UNL     1      -3.545  -2.089  -1.223  0.00  0.00    +0.136 C 
ATOM     22  C   UNL     1      -3.460  -0.559  -1.272  0.00  0.00    +0.179 C 
ATOM     23  O   UNL     1      -2.089  -0.160  -1.201  0.00  0.00    -0.373 OA
ATOM     24  C   UNL     1      -3.336  -3.417   0.830  0.00  0.00    +0.234 C 
ATOM     25  O   UNL     1      -2.696  -3.793   1.789  0.00  0.00    -0.274 OA
BRANCH  18  27
ATOM     26  C   UNL     1      -0.019   1.526   0.010  0.00  0.00    +0.006 C 
ATOM     27  C   UNL     1       0.002  -0.004   0.002  0.00  0.00    +0.030 C 
ENDBRANCH  18  27
ENDBRANCH  17  24
ENDBRANCH   1  17
TORSDOF 4
