REMARK  Name = ZINC59170683
REMARK  11 active torsions:
REMARK  status: ('A' for Active; 'I' for Inactive)
REMARK    1  A    between atoms: C_1  and  C_2
REMARK    2  A    between atoms: C_2  and  N_3
REMARK    3  A    between atoms: N_3  and  C_4
REMARK    4  A    between atoms: N_3  and  C_6
REMARK    5  A    between atoms: C_4  and  C_5
REMARK    6  A    between atoms: C_11  and  C_28
REMARK    7  A    between atoms: N_13  and  N_14
REMARK    8  A    between atoms: N_14  and  S_15
REMARK    9  A    between atoms: S_15  and  C_18
REMARK   10  A    between atoms: C_21  and  C_24
REMARK   11  A    between atoms: N_30  and  C_31
REMARK                            x       y       z     vdW  Elec       q    Type
REMARK                         _______ _______ _______ _____ _____    ______ ____
ROOT
ATOM      1  C   UNL     1      -2.232  -0.853   1.053  0.00  0.00    +0.033 A 
ATOM      2  C   UNL     1      -1.419  -1.153   2.146  0.00  0.00    +0.024 A 
ATOM      3  C   UNL     1      -1.969  -1.379   3.374  0.00  0.00    +0.013 A 
ATOM      4  C   UNL     1      -3.358  -1.310   3.540  0.00  0.00    +0.018 A 
ATOM      5  C   UNL     1      -3.966  -1.556   4.850  0.00  0.00    +0.030 A 
ATOM      6  C   UNL     1      -5.329  -1.744   4.896  0.00  0.00    +0.099 A 
ATOM      7  C   UNL     1      -6.066  -1.679   3.612  0.00  0.00    +0.225 A 
ATOM      8  N   UNL     1      -7.191  -2.316   3.450  0.00  0.00    -0.260 N 
ATOM      9  O   UNL     1      -5.527  -0.932   2.604  0.00  0.00    -0.437 OA
ATOM     10  C   UNL     1      -4.182  -1.005   2.440  0.00  0.00    +0.139 A 
ATOM     11  C   UNL     1      -3.612  -0.773   1.202  0.00  0.00    +0.070 A 
ATOM     12  H   UNL     1      -7.590  -2.792   4.194  0.00  0.00    +0.189 HD
ENDROOT
BRANCH   6  13
ATOM     13  C   UNL     1      -6.025  -1.997   6.166  0.00  0.00    +0.253 C 
ATOM     14  O   UNL     1      -7.240  -2.057   6.192  0.00  0.00    -0.270 OA
ATOM     15  N   UNL     1      -5.318  -2.164   7.301  0.00  0.00    -0.281 N 
ATOM     16  H   UNL     1      -4.359  -2.014   7.301  0.00  0.00    +0.155 HD
BRANCH  15  17
ATOM     17  C   UNL     1      -5.965  -2.552   8.479  0.00  0.00    +0.034 A 
ATOM     18  C   UNL     1      -7.072  -3.389   8.420  0.00  0.00    +0.026 A 
ATOM     19  C   UNL     1      -7.710  -3.772   9.584  0.00  0.00    +0.040 A 
ATOM     20  C   UNL     1      -7.246  -3.321  10.809  0.00  0.00    +0.124 A 
ATOM     21  C   UNL     1      -6.143  -2.485  10.869  0.00  0.00    +0.040 A 
ATOM     22  C   UNL     1      -5.499  -2.105   9.708  0.00  0.00    +0.026 A 
ATOM     23  F   UNL     1      -7.871  -3.696  11.946  0.00  0.00    -0.205 F 
ENDBRANCH  15  17
ENDBRANCH   6  13
BRANCH   8  24
ATOM     24  N   UNL     1      -7.824  -2.312   2.200  0.00  0.00    -0.157 N 
ATOM     25  H   UNL     1      -7.389  -1.899   1.437  0.00  0.00    +0.194 HD
BRANCH  24  26
ATOM     26  S   UNL     1      -9.315  -3.011   2.024  0.00  0.00    +0.085 S 
ATOM     27  O   UNL     1      -9.794  -2.630   0.742  0.00  0.00    -0.149 OA
ATOM     28  O   UNL     1      -9.173  -4.371   2.411  0.00  0.00    -0.149 OA
BRANCH  26  29
ATOM     29  C   UNL     1     -10.385  -2.260   3.206  0.00  0.00    +0.110 A 
ATOM     30  C   UNL     1     -10.431  -2.742   4.501  0.00  0.00    +0.029 A 
ATOM     31  C   UNL     1     -11.270  -2.153   5.428  0.00  0.00    +0.005 A 
ATOM     32  C   UNL     1     -12.063  -1.082   5.060  0.00  0.00    -0.050 A 
ATOM     33  C   UNL     1     -12.017  -0.600   3.765  0.00  0.00    +0.005 A 
ATOM     34  C   UNL     1     -11.174  -1.186   2.839  0.00  0.00    +0.029 A 
ATOM     35  C   UNL     1     -12.979  -0.440   6.070  0.00  0.00    +0.044 C 
ENDBRANCH  26  29
ENDBRANCH  24  26
ENDBRANCH   8  24
BRANCH   1  36
ATOM     36  N   UNL     1      -1.657  -0.625  -0.194  0.00  0.00    -0.330 N 
BRANCH  36  38
ATOM     37  C   UNL     1       0.416   0.668  -0.105  0.00  0.00    +0.024 C 
ATOM     38  C   UNL     1      -0.204  -0.708  -0.357  0.00  0.00    +0.102 C 
ENDBRANCH  36  38
BRANCH  36  39
ATOM     39  C   UNL     1      -2.506  -0.304  -1.344  0.00  0.00    +0.102 C 
ATOM     40  C   UNL     1      -2.916  -1.597  -2.052  0.00  0.00    +0.024 C 
ENDBRANCH  36  39
ENDBRANCH   1  36
TORSDOF 8
