REMARK  Name = ZINC20796736
REMARK  4 active torsions:
REMARK  status: ('A' for Active; 'I' for Inactive)
REMARK    1  A    between atoms: C_1  and  C_2
REMARK    2  A    between atoms: C_2  and  C_28
REMARK    3  A    between atoms: N_8  and  C_9
REMARK    4  A    between atoms: N_16  and  C_17
REMARK                            x       y       z     vdW  Elec       q    Type
REMARK                         _______ _______ _______ _____ _____    ______ ____
ROOT
ATOM      1  C   UNL     1      -5.597   3.217   0.744  0.00  0.00    +0.011 C 
ATOM      2  C   UNL     1      -5.161   2.588   2.069  0.00  0.00    -0.022 C 
ATOM      3  C   UNL     1      -3.666   2.260   2.004  0.00  0.00    +0.063 C 
ATOM      4  C   UNL     1      -3.444   1.154   1.006  0.00  0.00    +0.058 A 
ATOM      5  C   UNL     1      -4.458   0.290   0.596  0.00  0.00    +0.080 A 
ATOM      6  C   UNL     1      -3.873  -0.626  -0.364  0.00  0.00    +0.156 A 
ATOM      7  N   UNL     1      -2.607  -0.287  -0.483  0.00  0.00    -0.150 NA
ATOM      8  N   UNL     1      -2.335   0.799   0.359  0.00  0.00    -0.234 N 
ATOM      9  N   UNL     1      -4.526  -1.659  -1.034  0.00  0.00    -0.297 N 
ATOM     10  C   UNL     1      -5.824   0.397   1.120  0.00  0.00    +0.169 C 
ATOM     11  O   UNL     1      -6.758  -0.206   0.633  0.00  0.00    -0.292 OA
ATOM     12  C   UNL     1      -5.983   1.320   2.320  0.00  0.00    +0.086 C 
ATOM     13  C   UNL     1      -5.410   3.583   3.204  0.00  0.00    +0.011 C 
ATOM     14  H   UNL     1      -5.613  -1.788  -0.920  0.00  0.00    +0.154 HD
ENDROOT
BRANCH   9  15
ATOM     15  C   UNL     1      -3.801  -2.530  -1.851  0.00  0.00    +0.035 A 
ATOM     16  C   UNL     1      -4.422  -3.158  -2.923  0.00  0.00    +0.043 A 
ATOM     17  C   UNL     1      -3.701  -4.016  -3.732  0.00  0.00    +0.044 A 
ATOM     18  C   UNL     1      -2.364  -4.257  -3.469  0.00  0.00    +0.040 A 
ATOM     19  C   UNL     1      -1.744  -3.636  -2.398  0.00  0.00    +0.044 A 
ATOM     20  C   UNL     1      -2.459  -2.773  -1.589  0.00  0.00    +0.043 A 
ATOM     21 CL   UNL     1      -0.066  -3.941  -2.072  0.00  0.00    -0.083 Cl
ATOM     22 CL   UNL     1      -4.475  -4.797  -5.075  0.00  0.00    -0.083 Cl
ENDBRANCH   9  15
BRANCH   8  23
ATOM     23  C   UNL     1      -1.087   1.421   0.496  0.00  0.00    +0.066 A 
ATOM     24  C   UNL     1      -0.304   1.664  -0.625  0.00  0.00    +0.030 A 
ATOM     25  C   UNL     1       0.923   2.282  -0.488  0.00  0.00    +0.040 A 
ATOM     26  C   UNL     1       1.377   2.654   0.766  0.00  0.00    +0.124 A 
ATOM     27  C   UNL     1       0.600   2.407   1.886  0.00  0.00    +0.040 A 
ATOM     28  C   UNL     1      -0.628   1.789   1.754  0.00  0.00    +0.030 A 
ATOM     29  F   UNL     1       2.578   3.258   0.897  0.00  0.00    -0.205 F 
ENDBRANCH   8  23
TORSDOF 2
