REMARK  Name = ZINC66476283
REMARK  6 active torsions:
REMARK  status: ('A' for Active; 'I' for Inactive)
REMARK    1  A    between atoms: C_1  and  C_2
REMARK    2  A    between atoms: C_4  and  C_20
REMARK    3  A    between atoms: C_12  and  C_14
REMARK    4  A    between atoms: C_14  and  N_15
REMARK    5  A    between atoms: N_15  and  C_16
REMARK    6  A    between atoms: C_17  and  C_19
REMARK                            x       y       z     vdW  Elec       q    Type
REMARK                         _______ _______ _______ _____ _____    ______ ____
ROOT
ATOM      1  C   UNL     1      -0.269   1.707   0.198  0.00  0.00    +0.044 C 
ATOM      2  C   UNL     1      -0.385   0.205   0.167  0.00  0.00    -0.048 A 
ATOM      3  C   UNL     1      -0.573  -0.450  -1.037  0.00  0.00    +0.007 A 
ATOM      4  C   UNL     1      -0.681  -1.827  -1.068  0.00  0.00    -0.045 A 
ATOM      5  C   UNL     1      -0.602  -2.561   0.105  0.00  0.00    -0.023 A 
ATOM      6  C   UNL     1      -0.411  -1.905   1.310  0.00  0.00    +0.040 A 
ATOM      7  C   UNL     1      -0.298  -0.519   1.339  0.00  0.00    +0.027 A 
ATOM      8  N   UNL     1      -0.319  -2.622   2.511  0.00  0.00    -0.270 N 
ATOM      9  C   UNL     1      -0.723  -4.034   2.527  0.00  0.00    +0.114 C 
ATOM     10  C   UNL     1      -0.128  -4.706   1.283  0.00  0.00    +0.024 C 
ATOM     11  C   UNL     1      -0.730  -4.059   0.036  0.00  0.00    +0.039 C 
ATOM     12  C   UNL     1       0.134  -2.026   3.632  0.00  0.00    +0.237 C 
ATOM     13  O   UNL     1       0.569  -0.894   3.584  0.00  0.00    -0.274 OA
ATOM     14  C   UNL     1      -0.886  -2.534  -2.382  0.00  0.00    +0.044 C 
ENDROOT
BRANCH  12  15
ATOM     15  C   UNL     1       0.099  -2.765   4.945  0.00  0.00    +0.203 C 
BRANCH  15  16
ATOM     16  N   UNL     1       0.641  -1.908   6.002  0.00  0.00    -0.296 N 
ATOM     17  C   UNL     1      -0.249  -1.023   6.757  0.00  0.00    +0.132 C 
ATOM     18  C   UNL     1       1.960  -1.933   6.280  0.00  0.00    +0.213 C 
ATOM     19  O   UNL     1       2.712  -2.592   5.594  0.00  0.00    -0.276 OA
ATOM     20  C   UNL     1       2.500  -1.143   7.444  0.00  0.00    +0.109 C 
ENDBRANCH  15  16
ENDBRANCH  12  15
TORSDOF 2
