REMARK  Name = ZINC20158063
REMARK  8 active torsions:
REMARK  status: ('A' for Active; 'I' for Inactive)
REMARK    1  A    between atoms: C_1  and  C_2
REMARK    2  A    between atoms: C_2  and  C_18
REMARK    3  A    between atoms: N_3  and  N_4
REMARK    4  A    between atoms: C_5  and  C_7
REMARK    5  A    between atoms: C_7  and  C_8
REMARK    6  A    between atoms: C_23  and  N_24
REMARK    7  A    between atoms: C_25  and  C_27
REMARK    8  A    between atoms: C_33  and  C_35
REMARK                            x       y       z     vdW  Elec       q    Type
REMARK                         _______ _______ _______ _____ _____    ______ ____
ROOT
ATOM      1  C   UNL     1       2.463   0.159  -0.029  0.00  0.00    +0.022 A 
ATOM      2  C   UNL     1       2.429   1.556  -0.052  0.00  0.00    +0.061 A 
ATOM      3  C   UNL     1       1.217   2.217  -0.103  0.00  0.00    +0.167 A 
ATOM      4  C   UNL     1       0.025   1.491  -0.132  0.00  0.00    +0.168 A 
ATOM      5  C   UNL     1       0.052   0.106  -0.109  0.00  0.00    +0.073 A 
ATOM      6  C   UNL     1       1.263  -0.566  -0.058  0.00  0.00    +0.046 A 
ATOM      7  O   UNL     1      -1.017   2.371  -0.186  0.00  0.00    -0.453 OA
ATOM      8  C   UNL     1      -0.473   3.638   0.232  0.00  0.00    +0.466 C 
ATOM      9  O   UNL     1       0.917   3.549  -0.133  0.00  0.00    -0.453 OA
ENDROOT
BRANCH   6  10
ATOM     10  N   UNL     1       1.288  -1.964  -0.034  0.00  0.00    -0.285 N 
ATOM     11  C   UNL     1       0.329  -2.644   0.625  0.00  0.00    +0.221 C 
ATOM     12  O   UNL     1      -0.597  -2.048   1.133  0.00  0.00    -0.275 OA
ATOM     13  H   UNL     1       2.090  -2.508  -0.554  0.00  0.00    +0.155 HD
BRANCH  11  14
ATOM     14  C   UNL     1       0.408  -4.145   0.732  0.00  0.00    +0.089 C 
ATOM     15  C   UNL     1       0.398  -4.757  -0.670  0.00  0.00    +0.013 C 
ATOM     16  C   UNL     1      -0.894  -4.365  -1.388  0.00  0.00    +0.001 C 
ATOM     17  C   UNL     1      -2.096  -4.884  -0.596  0.00  0.00    +0.001 C 
ATOM     18  C   UNL     1      -2.086  -4.271   0.806  0.00  0.00    +0.015 C 
ATOM     19  C   UNL     1      -0.793  -4.664   1.524  0.00  0.00    +0.114 C 
BRANCH  19  20
ATOM     20  C   UNL     1      -0.783  -4.061   2.905  0.00  0.00    +0.360 C 
ATOM     21  O   UNL     1       0.095  -3.294   3.223  0.00  0.00    -0.246 OA
ATOM     22  O   UNL     1      -1.750  -4.375   3.782  0.00  0.00    -0.246 OA
ENDBRANCH  19  20
ENDBRANCH  11  14
ENDBRANCH   6  10
BRANCH   1  24
ATOM     23  C   UNL     1       5.035   0.232   0.166  0.00  0.00    +0.068 C 
ATOM     24  C   UNL     1       3.753  -0.549   0.027  0.00  0.00    +0.065 C 
ATOM     25  N   UNL     1       3.787  -1.845  -0.044  0.00  0.00    -0.184 NA
BRANCH  25  26
ATOM     26  N   UNL     1       5.014  -2.518   0.008  0.00  0.00    -0.207 N 
ATOM     27  C   UNL     1       5.049  -3.863  -0.066  0.00  0.00    +0.233 C 
ATOM     28  O   UNL     1       4.017  -4.491  -0.177  0.00  0.00    -0.274 OA
ATOM     29  H   UNL     1       5.950  -1.948   0.110  0.00  0.00    +0.177 HD
BRANCH  27  30
ATOM     30  C   UNL     1       6.369  -4.587  -0.009  0.00  0.00    +0.104 C 
BRANCH  30  31
ATOM     31  C   UNL     1       6.129  -6.095  -0.112  0.00  0.00    -0.020 C 
ATOM     32  C   UNL     1       5.431  -6.410  -1.436  0.00  0.00    +0.011 C 
ATOM     33  C   UNL     1       5.190  -7.918  -1.540  0.00  0.00    -0.010 C 
ATOM     34  C   UNL     1       6.531  -8.653  -1.482  0.00  0.00    +0.007 C 
ATOM     35  C   UNL     1       7.229  -8.338  -0.158  0.00  0.00    -0.010 C 
ATOM     36  C   UNL     1       7.470  -6.830  -0.055  0.00  0.00    +0.011 C 
ATOM     37  C   UNL     1       6.347  -8.794   1.006  0.00  0.00    +0.007 C 
ATOM     38  C   UNL     1       5.006  -8.059   0.948  0.00  0.00    -0.010 C 
ATOM     39  C   UNL     1       4.308  -8.375  -0.376  0.00  0.00    +0.007 C 
ATOM     40  C   UNL     1       5.247  -6.551   1.051  0.00  0.00    +0.011 C 
ENDBRANCH  30  31
ENDBRANCH  27  30
ENDBRANCH  25  26
ENDBRANCH   1  24
TORSDOF 7
