REMARK  Name = ZINC66997232
REMARK  5 active torsions:
REMARK  status: ('A' for Active; 'I' for Inactive)
REMARK    1  A    between atoms: C_1  and  C_2
REMARK    2  A    between atoms: C_2  and  N_3
REMARK    3  A    between atoms: C_4  and  C_6
REMARK    4  A    between atoms: C_12  and  C_14
REMARK    5  A    between atoms: C_22  and  C_27
REMARK                            x       y       z     vdW  Elec       q    Type
REMARK                         _______ _______ _______ _____ _____    ______ ____
ROOT
ATOM      1  C   UNL     1      -1.081  -1.606  -6.274  0.00  0.00    +0.078 C 
ATOM      2  C   UNL     1      -0.994  -2.011  -7.747  0.00  0.00    +0.032 C 
ATOM      3  C   UNL     1       0.384  -2.620  -8.024  0.00  0.00    +0.109 C 
ATOM      4  N   UNL     1       0.613  -3.723  -7.080  0.00  0.00    -0.294 N 
ATOM      5  C   UNL     1       0.465  -3.463  -5.641  0.00  0.00    +0.109 C 
ATOM      6  C   UNL     1      -0.914  -2.845  -5.391  0.00  0.00    +0.032 C 
ATOM      7  C   UNL     1       0.951  -4.949  -7.525  0.00  0.00    +0.302 C 
ATOM      8  O   UNL     1       0.980  -5.175  -8.717  0.00  0.00    -0.265 OA
ENDROOT
BRANCH   7   9
ATOM      9  C   UNL     1       1.290  -6.030  -6.552  0.00  0.00    +0.306 C 
ATOM     10  O   UNL     1       2.410  -6.102  -6.091  0.00  0.00    -0.265 OA
ATOM     11  N   UNL     1       0.351  -6.925  -6.185  0.00  0.00    -0.263 N 
ATOM     12  C   UNL     1      -1.068  -6.547  -6.149  0.00  0.00    +0.114 C 
ATOM     13  C   UNL     1      -1.665  -7.093  -4.845  0.00  0.00    +0.024 C 
ATOM     14  C   UNL     1      -1.588  -8.619  -4.868  0.00  0.00    +0.038 C 
ATOM     15  C   UNL     1      -0.190  -9.071  -5.198  0.00  0.00    -0.023 A 
ATOM     16  C   UNL     1       0.712  -8.233  -5.838  0.00  0.00    +0.043 A 
ATOM     17  C   UNL     1       1.993  -8.684  -6.138  0.00  0.00    -0.026 A 
ATOM     18  C   UNL     1       2.370  -9.968  -5.802  0.00  0.00    +0.043 A 
ATOM     19  C   UNL     1       1.471 -10.808  -5.166  0.00  0.00    +0.124 A 
ATOM     20  C   UNL     1       0.196 -10.357  -4.856  0.00  0.00    +0.043 A 
ATOM     21  F   UNL     1       1.840 -12.065  -4.835  0.00  0.00    -0.205 F 
ATOM     22  C   UNL     1       2.970  -7.769  -6.830  0.00  0.00    +0.046 C 
ENDBRANCH   7   9
BRANCH   1  24
ATOM     23  N   UNL     1      -2.791   0.136  -6.673  0.00  0.00    -0.315 N 
ATOM     24  C   UNL     1      -2.423  -0.975  -6.005  0.00  0.00    +0.216 C 
ATOM     25  O   UNL     1      -3.172  -1.468  -5.188  0.00  0.00    -0.276 OA
ATOM     26  H   UNL     1      -2.192   0.530  -7.326  0.00  0.00    +0.149 HD
BRANCH  23  28
ATOM     27  C   UNL     1      -4.263   1.988  -7.294  0.00  0.00    +0.024 C 
ATOM     28  C   UNL     1      -4.096   0.749  -6.412  0.00  0.00    +0.101 C 
ENDBRANCH  23  28
ENDBRANCH   1  24
TORSDOF 3
