REMARK  Name = ZINC39631598
REMARK  12 active torsions:
REMARK  status: ('A' for Active; 'I' for Inactive)
REMARK    1  A    between atoms: C_1  and  C_2
REMARK    2  A    between atoms: C_5  and  C_9
REMARK    3  A    between atoms: C_13  and  C_22
REMARK    4  A    between atoms: N_24  and  C_25
REMARK    5  A    between atoms: C_25  and  C_27
REMARK    6  A    between atoms: C_25  and  C_28
REMARK    7  A    between atoms: C_28  and  C_29
REMARK    8  A    between atoms: C_29  and  C_30
REMARK    9  A    between atoms: C_30  and  C_31
REMARK   10  A    between atoms: C_31  and  C_32
REMARK   11  A    between atoms: C_31  and  C_33
REMARK   12  A    between atoms: C_31  and  O_34
REMARK                            x       y       z     vdW  Elec       q    Type
REMARK                         _______ _______ _______ _____ _____    ______ ____
ROOT
ATOM      1  C   UNL     1      -0.012  -4.459  -0.101  0.00  0.00    +0.247 C 
ATOM      2  O   UNL     1      -0.138  -5.124  -1.110  0.00  0.00    -0.270 OA
ATOM      3  N   UNL     1       0.130  -5.066   1.094  0.00  0.00    -0.296 N 
ATOM      4  C   UNL     1       0.165  -4.437   2.435  0.00  0.00    +0.121 C 
ATOM      5  C   UNL     1      -0.633  -5.402   3.340  0.00  0.00    +0.100 C 
ATOM      6  C   UNL     1      -0.548  -6.764   2.632  0.00  0.00    -0.004 C 
ATOM      7  C   UNL     1       0.281  -6.516   1.363  0.00  0.00    +0.115 C 
ATOM      8  C   UNL     1      -1.943  -7.253   2.256  0.00  0.00    -0.010 C 
ATOM      9  C   UNL     1      -1.837  -8.635   1.606  0.00  0.00    -0.082 C 
ATOM     10  N   UNL     1      -1.204  -9.572   2.543  0.00  0.00    +0.379 N 
ATOM     11  C   UNL     1       0.171  -9.144   2.827  0.00  0.00    -0.082 C 
ATOM     12  C   UNL     1       0.149  -7.783   3.529  0.00  0.00    -0.010 C 
ATOM     13  H   UNL     1      -1.732  -9.594   3.402  0.00  0.00    -0.086 HD
ATOM     14  H   UNL     1      -1.190 -10.495   2.135  0.00  0.00    -0.086 HD
ENDROOT
BRANCH   1  19
ATOM     15  C   UNL     1      -0.016   1.289  -0.420  0.00  0.00    +0.047 C 
ATOM     16  C   UNL     1      -0.015  -0.216  -0.337  0.00  0.00    -0.015 A 
ATOM     17  C   UNL     1       0.553  -0.845   0.756  0.00  0.00    +0.007 A 
ATOM     18  C   UNL     1       0.557  -2.222   0.838  0.00  0.00    +0.013 A 
ATOM     19  C   UNL     1      -0.014  -2.982  -0.184  0.00  0.00    +0.040 A 
ATOM     20  C   UNL     1      -0.587  -2.344  -1.284  0.00  0.00    +0.051 A 
ATOM     21  C   UNL     1      -0.590  -0.963  -1.353  0.00  0.00    +0.127 A 
ATOM     22  F   UNL     1      -1.149  -0.342  -2.414  0.00  0.00    -0.205 F 
ENDBRANCH   1  19
BRANCH   5  23
ATOM     23  C   UNL     1      -2.068  -4.953   3.448  0.00  0.00    +0.218 C 
ATOM     24  O   UNL     1      -2.596  -4.379   2.520  0.00  0.00    -0.275 OA
ATOM     25  N   UNL     1      -2.765  -5.191   4.577  0.00  0.00    -0.312 N 
ATOM     26  H   UNL     1      -2.342  -5.650   5.320  0.00  0.00    +0.149 HD
BRANCH  25  27
ATOM     27  C   UNL     1      -4.159  -4.755   4.683  0.00  0.00    +0.070 C 
ATOM     28  C   UNL     1      -4.204  -3.295   5.137  0.00  0.00    +0.028 C 
BRANCH  27  29
ATOM     29  C   UNL     1      -4.891  -5.629   5.704  0.00  0.00    +0.022 C 
BRANCH  29  30
ATOM     30  C   UNL     1      -4.954  -7.069   5.190  0.00  0.00    +0.005 C 
BRANCH  30  31
ATOM     31  C   UNL     1      -5.686  -7.943   6.211  0.00  0.00    +0.034 C 
BRANCH  31  32
ATOM     32  C   UNL     1      -5.750  -9.382   5.697  0.00  0.00    +0.061 C 
ATOM     33  C   UNL     1      -4.330  -9.915   5.495  0.00  0.00    +0.041 C 
ATOM     34  C   UNL     1      -6.481 -10.256   6.718  0.00  0.00    +0.041 C 
BRANCH  32  35
ATOM     35  O   UNL     1      -6.452  -9.414   4.453  0.00  0.00    -0.389 OA
ATOM     36  H   UNL     1      -7.361  -9.089   4.507  0.00  0.00    +0.210 HD
ENDBRANCH  32  35
ENDBRANCH  31  32
ENDBRANCH  30  31
ENDBRANCH  29  30
ENDBRANCH  27  29
ENDBRANCH  25  27
ENDBRANCH   5  23
TORSDOF 8
