REMARK  Name = ZINC39481143
REMARK  7 active torsions:
REMARK  status: ('A' for Active; 'I' for Inactive)
REMARK    1  A    between atoms: C_1  and  C_2
REMARK    2  A    between atoms: C_2  and  C_3
REMARK    3  A    between atoms: C_6  and  N_17
REMARK    4  A    between atoms: C_7  and  N_9
REMARK    5  A    between atoms: N_17  and  S_18
REMARK    6  A    between atoms: S_18  and  C_21
REMARK    7  A    between atoms: C_21  and  C_22
REMARK                            x       y       z     vdW  Elec       q    Type
REMARK                         _______ _______ _______ _____ _____    ______ ____
ROOT
ATOM      1  C   UNL     1      -1.639  -0.052  -0.317  0.00  0.00    -0.046 A 
ATOM      2  C   UNL     1      -2.146  -0.342   0.936  0.00  0.00    +0.005 A 
ATOM      3  C   UNL     1      -3.368  -0.977   1.062  0.00  0.00    +0.026 A 
ATOM      4  C   UNL     1      -4.088  -1.325  -0.070  0.00  0.00    +0.069 A 
ATOM      5  C   UNL     1      -3.577  -1.032  -1.334  0.00  0.00    +0.053 A 
ATOM      6  C   UNL     1      -2.353  -0.391  -1.451  0.00  0.00    +0.028 A 
ENDROOT
BRANCH   5   7
ATOM      7  N   UNL     1      -4.299  -1.382  -2.482  0.00  0.00    -0.323 N 
ATOM      8  C   UNL     1      -5.265  -0.447  -3.079  0.00  0.00    +0.120 C 
ATOM      9  C   UNL     1      -6.595  -1.182  -3.277  0.00  0.00    +0.102 C 
ATOM     10  N   UNL     1      -6.362  -2.411  -4.047  0.00  0.00    -0.285 NA
ATOM     11  C   UNL     1      -5.488  -3.339  -3.318  0.00  0.00    +0.252 C 
ATOM     12  C   UNL     1      -4.108  -2.690  -3.125  0.00  0.00    +0.158 C 
ATOM     13  F   UNL     1      -5.348  -4.522  -4.051  0.00  0.00    -0.227 F 
ATOM     14  H   UNL     1      -7.234  -2.854  -4.294  0.00  0.00    +0.125 HD
ENDBRANCH   5   7
BRANCH   1  16
ATOM     15  C   UNL     1      -0.519   2.156  -0.456  0.00  0.00    +0.009 C 
ATOM     16  C   UNL     1      -0.307   0.641  -0.447  0.00  0.00    +0.032 C 
ENDBRANCH   1  16
BRANCH   4  17
ATOM     17  N   UNL     1      -5.325  -1.970   0.055  0.00  0.00    -0.219 N 
ATOM     18  H   UNL     1      -5.590  -2.642  -0.592  0.00  0.00    +0.173 HD
BRANCH  17  19
ATOM     19  S   UNL     1      -6.336  -1.584   1.309  0.00  0.00    +0.047 S 
ATOM     20  O   UNL     1      -7.512  -2.347   1.074  0.00  0.00    -0.155 OA
ATOM     21  O   UNL     1      -5.558  -1.793   2.479  0.00  0.00    -0.155 OA
BRANCH  19  22
ATOM     22  C   UNL     1      -6.686   0.183   1.099  0.00  0.00    +0.223 C 
BRANCH  22  23
ATOM     23  C   UNL     1      -7.608   0.647   2.197  0.00  0.00    -0.025 A 
ATOM     24  C   UNL     1      -8.978   0.586   2.022  0.00  0.00    +0.005 A 
ATOM     25  C   UNL     1      -9.823   1.011   3.029  0.00  0.00    +0.000 A 
ATOM     26  C   UNL     1      -9.299   1.497   4.212  0.00  0.00    +0.000 A 
ATOM     27  C   UNL     1      -7.929   1.557   4.388  0.00  0.00    +0.000 A 
ATOM     28  C   UNL     1      -7.084   1.128   3.382  0.00  0.00    +0.005 A 
ENDBRANCH  22  23
ENDBRANCH  19  22
ENDBRANCH  17  19
ENDBRANCH   4  17
TORSDOF 6
