REMARK  Name = ZINC21861148
REMARK  9 active torsions:
REMARK  status: ('A' for Active; 'I' for Inactive)
REMARK    1  A    between atoms: C_1  and  C_2
REMARK    2  A    between atoms: C_8  and  N_10
REMARK    3  A    between atoms: C_11  and  C_13
REMARK    4  A    between atoms: C_13  and  C_32
REMARK    5  A    between atoms: N_26  and  C_27
REMARK    6  A    between atoms: C_27  and  C_28
REMARK    7  A    between atoms: C_28  and  C_29
REMARK    8  A    between atoms: C_29  and  O_30
REMARK    9  A    between atoms: O_30  and  C_31
REMARK                            x       y       z     vdW  Elec       q    Type
REMARK                         _______ _______ _______ _____ _____    ______ ____
ROOT
ATOM      1  C   UNL     1      -1.806   0.766  -4.254  0.00  0.00    +0.129 C 
ATOM      2  C   UNL     1      -3.004   1.607  -4.708  0.00  0.00    +0.159 C 
ATOM      3  N   UNL     1      -2.524   2.743  -5.497  0.00  0.00    -0.317 N 
ATOM      4  C   UNL     1      -3.100   3.432  -6.509  0.00  0.00    +0.069 A 
ATOM      5  C   UNL     1      -4.317   3.307  -7.176  0.00  0.00    +0.028 A 
ATOM      6  C   UNL     1      -4.577   4.217  -8.185  0.00  0.00    +0.002 A 
ATOM      7  C   UNL     1      -3.677   5.213  -8.530  0.00  0.00    +0.002 A 
ATOM      8  C   UNL     1      -2.472   5.362  -7.893  0.00  0.00    +0.030 A 
ATOM      9  C   UNL     1      -2.176   4.454  -6.864  0.00  0.00    +0.090 A 
ATOM     10  N   UNL     1      -1.112   4.330  -6.067  0.00  0.00    -0.223 NA
ATOM     11  C   UNL     1      -1.286   3.320  -5.267  0.00  0.00    +0.198 A 
ATOM     12  C   UNL     1      -0.394   2.777  -4.212  0.00  0.00    +0.283 C 
ATOM     13  O   UNL     1       0.600   3.373  -3.846  0.00  0.00    -0.267 OA
ATOM     14  N   UNL     1      -0.745   1.585  -3.677  0.00  0.00    -0.279 N 
ATOM     15  C   UNL     1      -2.278  -0.244  -3.207  0.00  0.00    +0.043 C 
ENDROOT
BRANCH   1  17
ATOM     16  N   UNL     1      -0.324   0.590  -6.227  0.00  0.00    -0.310 N 
ATOM     17  C   UNL     1      -1.254   0.015  -5.438  0.00  0.00    +0.238 C 
ATOM     18  O   UNL     1      -1.645  -1.106  -5.681  0.00  0.00    -0.273 OA
ATOM     19  H   UNL     1       0.031   1.608  -6.006  0.00  0.00    +0.149 HD
BRANCH  16  26
ATOM     20  C   UNL     1       2.532   0.205  -6.515  0.00  0.00    +0.009 C 
ATOM     21  C   UNL     1       1.605   0.396  -7.717  0.00  0.00    +0.006 C 
ATOM     22  C   UNL     1       2.166  -0.367  -8.919  0.00  0.00    +0.005 C 
ATOM     23  C   UNL     1       1.240  -0.176 -10.122  0.00  0.00    +0.000 C 
ATOM     24  C   UNL     1      -0.153  -0.711  -9.783  0.00  0.00    +0.002 C 
ATOM     25  C   UNL     1      -0.714   0.051  -8.581  0.00  0.00    +0.022 C 
ATOM     26  C   UNL     1       0.213  -0.140  -7.378  0.00  0.00    +0.076 C 
ENDBRANCH  16  26
ENDBRANCH   1  17
BRANCH  14  27
ATOM     27  C   UNL     1      -0.037   1.099  -2.490  0.00  0.00    +0.111 C 
BRANCH  27  28
ATOM     28  C   UNL     1      -0.753   1.593  -1.232  0.00  0.00    +0.047 C 
BRANCH  28  29
ATOM     29  C   UNL     1      -0.013   1.086   0.008  0.00  0.00    +0.161 C 
BRANCH  29  30
ATOM     30  O   UNL     1      -0.682   1.547   1.184  0.00  0.00    -0.383 OA
ATOM     31  C   UNL     1      -0.068   1.127   2.404  0.00  0.00    +0.193 C 
ENDBRANCH  29  30
ENDBRANCH  28  29
ENDBRANCH  27  28
ENDBRANCH  14  27
TORSDOF 6
