REMARK  Name = ZINC49111658
REMARK  8 active torsions:
REMARK  status: ('A' for Active; 'I' for Inactive)
REMARK    1  A    between atoms: C_3  and  C_8
REMARK    2  A    between atoms: C_12  and  N_18
REMARK    3  A    between atoms: C_13  and  C_15
REMARK    4  A    between atoms: C_19  and  C_21
REMARK    5  A    between atoms: C_21  and  C_23
REMARK    6  A    between atoms: C_21  and  N_36
REMARK    7  A    between atoms: C_23  and  C_24
REMARK    8  A    between atoms: C_26  and  C_29
REMARK                            x       y       z     vdW  Elec       q    Type
REMARK                         _______ _______ _______ _____ _____    ______ ____
ROOT
ATOM      1  N   UNL     1       7.615   3.531   0.130  0.00  0.00    -0.290 N 
ATOM      2  C   UNL     1       8.206   3.697   1.330  0.00  0.00    +0.203 C 
ATOM      3  O   UNL     1       7.691   3.239   2.327  0.00  0.00    -0.277 OA
ATOM      4  H   UNL     1       8.061   3.833  -0.677  0.00  0.00    +0.154 HD
ENDROOT
BRANCH   1   8
ATOM      5  C   UNL     1       3.970   1.503   0.207  0.00  0.00    +0.024 C 
ATOM      6  C   UNL     1       3.909   3.034   0.256  0.00  0.00    +0.014 C 
ATOM      7  C   UNL     1       5.241   3.558   0.796  0.00  0.00    +0.052 C 
ATOM      8  C   UNL     1       6.383   2.934   0.049  0.00  0.00    +0.021 C 
ATOM      9  C   UNL     1       6.264   1.828  -0.692  0.00  0.00    +0.058 C 
ATOM     10  C   UNL     1       4.971   1.085  -0.872  0.00  0.00    +0.052 C 
BRANCH   5  13
ATOM     11  C   UNL     1       0.724  -0.410   0.451  0.00  0.00    +0.003 A 
ATOM     12  C   UNL     1       1.974   0.096   0.755  0.00  0.00    +0.004 A 
ATOM     13  C   UNL     1       2.608   0.952  -0.126  0.00  0.00    -0.041 A 
ATOM     14  C   UNL     1       1.992   1.304  -1.312  0.00  0.00    +0.042 A 
ATOM     15  C   UNL     1       0.740   0.798  -1.618  0.00  0.00    +0.124 A 
ATOM     16  C   UNL     1       0.106  -0.060  -0.735  0.00  0.00    +0.038 A 
ATOM     17  F   UNL     1       0.136   1.141  -2.777  0.00  0.00    -0.205 F 
ENDBRANCH   5  13
BRANCH   9  18
ATOM     18  C   UNL     1       7.415   1.329  -1.337  0.00  0.00    +0.384 C 
ATOM     19  O   UNL     1       8.507   1.844  -1.127  0.00  0.00    -0.241 OA
ATOM     20  O   UNL     1       7.323   0.381  -2.108  0.00  0.00    -0.241 OA
ENDBRANCH   9  18
ENDBRANCH   1   8
BRANCH   2  21
ATOM     21  C   UNL     1       9.506   4.452   1.432  0.00  0.00    +0.022 C 
BRANCH  21  22
ATOM     22  N   UNL     1       9.699   4.910   2.814  0.00  0.00    +0.386 N 
ATOM     23  H   UNL     1       9.724   4.113   3.432  0.00  0.00    -0.089 HD
ATOM     24  H   UNL     1      10.569   5.416   2.882  0.00  0.00    -0.089 HD
ATOM     25  H   UNL     1       8.936   5.516   3.077  0.00  0.00    -0.089 HD
ENDBRANCH  21  22
BRANCH  21  26
ATOM     26  C   UNL     1      10.662   3.533   1.032  0.00  0.00    +0.092 C 
BRANCH  26  27
ATOM     27  C   UNL     1      11.947   4.321   1.016  0.00  0.00    +0.227 A 
ATOM     28  N   UNL     1      12.758   4.474   2.023  0.00  0.00    -0.190 NA
ATOM     29  C   UNL     1      13.806   5.235   1.658  0.00  0.00    +0.220 A 
ATOM     30  N   UNL     1      13.661   5.572   0.400  0.00  0.00    -0.054 NA
ATOM     31  O   UNL     1      12.449   4.976  -0.039  0.00  0.00    -0.338 OA
BRANCH  29  32
ATOM     32  C   UNL     1      14.938   5.628   2.534  0.00  0.00    +0.111 A 
ATOM     33  C   UNL     1      15.958   6.428   2.026  0.00  0.00    +0.034 A 
ATOM     34  C   UNL     1      17.008   6.787   2.854  0.00  0.00    +0.042 A 
ATOM     35  C   UNL     1      17.001   6.333   4.167  0.00  0.00    +0.141 A 
ATOM     36  C   UNL     1      15.952   5.540   4.605  0.00  0.00    +0.149 A 
ATOM     37  N   UNL     1      14.965   5.219   3.796  0.00  0.00    -0.249 NA
ATOM     38  F   UNL     1      18.007   6.660   5.008  0.00  0.00    -0.204 F 
ENDBRANCH  29  32
ENDBRANCH  26  27
ENDBRANCH  21  26
ENDBRANCH   2  21
TORSDOF 8
