REMARK  Name = ZINC00780333
REMARK  15 active torsions:
REMARK  status: ('A' for Active; 'I' for Inactive)
REMARK    1  A    between atoms: C_1  and  C_2
REMARK    2  A    between atoms: C_2  and  C_30
REMARK    3  A    between atoms: C_4  and  N_11
REMARK    4  A    between atoms: C_6  and  C_9
REMARK    5  A    between atoms: C_6  and  C_10
REMARK    6  A    between atoms: N_7  and  C_8
REMARK    7  A    between atoms: C_12  and  C_14
REMARK    8  A    between atoms: C_14  and  C_15
REMARK    9  A    between atoms: C_15  and  C_16
REMARK   10  A    between atoms: N_18  and  C_19
REMARK   11  A    between atoms: C_21  and  C_28
REMARK   12  A    between atoms: C_21  and  C_29
REMARK   13  A    between atoms: N_22  and  C_27
REMARK   14  A    between atoms: C_23  and  C_25
REMARK   15  A    between atoms: C_23  and  C_26
REMARK                            x       y       z     vdW  Elec       q    Type
REMARK                         _______ _______ _______ _____ _____    ______ ____
ROOT
ATOM      1  C   UNL     1       1.726  -3.473  -4.780  0.00  0.00    +0.105 C 
ENDROOT
BRANCH   1   3
ATOM      2  N   UNL     1       0.947  -1.643  -3.309  0.00  0.00    -0.313 N 
ATOM      3  C   UNL     1       0.918  -2.955  -3.618  0.00  0.00    +0.214 C 
ATOM      4  O   UNL     1       0.243  -3.718  -2.961  0.00  0.00    -0.276 OA
ATOM      5  H   UNL     1       1.487  -1.033  -3.835  0.00  0.00    +0.149 HD
BRANCH   2   9
ATOM      6  C   UNL     1      -0.978   2.441  -1.382  0.00  0.00    -0.010 C 
ATOM      7  C   UNL     1      -0.933   0.904  -1.218  0.00  0.00    -0.069 C 
ATOM      8  C   UNL     1      -0.146   0.343  -2.397  0.00  0.00    +0.010 C 
ATOM      9  C   UNL     1       0.160  -1.139  -2.177  0.00  0.00    +0.070 C 
ATOM     10  C   UNL     1       0.983  -1.269  -0.895  0.00  0.00    +0.010 C 
ATOM     11  C   UNL     1       0.203  -0.720   0.295  0.00  0.00    -0.069 C 
ATOM     12  N   UNL     1      -0.324   0.617   0.071  0.00  0.00    +0.385 N 
ATOM     13  C   UNL     1      -1.299   0.929   1.138  0.00  0.00    -0.095 C 
ATOM     14  C   UNL     1       1.180  -0.642   1.492  0.00  0.00    -0.010 C 
ATOM     15  C   UNL     1      -0.908  -1.699   0.686  0.00  0.00    -0.010 C 
ATOM     16  C   UNL     1      -2.381   0.405  -1.274  0.00  0.00    -0.010 C 
ATOM     17  H   UNL     1       0.454   1.278   0.196  0.00  0.00    -0.081 HD
ENDBRANCH   2   9
ENDBRANCH   1   3
BRANCH   1  18
ATOM     18  C   UNL     1       1.518  -4.983  -4.913  0.00  0.00    +0.105 C 
BRANCH  18  19
ATOM     19  C   UNL     1       2.325  -5.501  -6.075  0.00  0.00    +0.214 C 
ATOM     20  O   UNL     1       3.000  -4.737  -6.733  0.00  0.00    -0.276 OA
ATOM     21  N   UNL     1       2.297  -6.812  -6.384  0.00  0.00    -0.313 N 
ATOM     22  H   UNL     1       1.757  -7.423  -5.858  0.00  0.00    +0.149 HD
BRANCH  21  23
ATOM     23  C   UNL     1       3.083  -7.317  -7.517  0.00  0.00    +0.070 C 
ATOM     24  C   UNL     1       2.260  -7.183  -8.800  0.00  0.00    +0.010 C 
ATOM     25  C   UNL     1       3.059  -7.719  -9.987  0.00  0.00    -0.069 C 
ATOM     26  N   UNL     1       3.526  -9.081  -9.766  0.00  0.00    +0.385 N 
ATOM     27  C   UNL     1       4.151  -9.376  -8.485  0.00  0.00    -0.069 C 
ATOM     28  C   UNL     1       3.390  -8.798  -7.297  0.00  0.00    +0.010 C 
ATOM     29  C   UNL     1       5.610  -8.914  -8.447  0.00  0.00    -0.010 C 
ATOM     30  C   UNL     1       4.161 -10.914  -8.319  0.00  0.00    -0.010 C 
ATOM     31  C   UNL     1       4.464  -9.443 -10.849  0.00  0.00    -0.095 C 
ATOM     32  C   UNL     1       4.204  -6.766 -10.328  0.00  0.00    -0.010 C 
ATOM     33  C   UNL     1       2.107  -7.745 -11.205  0.00  0.00    -0.010 C 
ATOM     34  H   UNL     1       2.716  -9.704  -9.866  0.00  0.00    -0.081 HD
ENDBRANCH  21  23
ENDBRANCH  18  19
ENDBRANCH   1  18
TORSDOF 5
