REMARK  Name = ZINC04730108
REMARK  9 active torsions:
REMARK  status: ('A' for Active; 'I' for Inactive)
REMARK    1  A    between atoms: C_1  and  C_2
REMARK    2  A    between atoms: C_2  and  O_3
REMARK    3  A    between atoms: O_3  and  C_4
REMARK    4  A    between atoms: C_9  and  C_10
REMARK    5  A    between atoms: C_13  and  C_26
REMARK    6  A    between atoms: C_16  and  C_18
REMARK    7  A    between atoms: C_21  and  O_24
REMARK    8  A    between atoms: O_24  and  C_25
REMARK    9  A    between atoms: C_31  and  O_32
REMARK                            x       y       z     vdW  Elec       q    Type
REMARK                         _______ _______ _______ _____ _____    ______ ____
ROOT
ATOM      1  C   UNL     1      -3.981  -1.497   0.032  0.00  0.00    +0.084 C 
ATOM      2  N   UNL     1      -5.116  -2.224   0.610  0.00  0.00    +0.401 N 
ATOM      3  C   UNL     1      -6.245  -1.293   0.777  0.00  0.00    -0.028 C 
ATOM      4  C   UNL     1      -5.882  -0.292   1.877  0.00  0.00    +0.044 C 
ATOM      5  C   UNL     1      -4.501   0.248   1.625  0.00  0.00    +0.040 C 
ATOM      6  N   UNL     1      -3.680  -0.303   0.811  0.00  0.00    -0.298 NA
ATOM      7  H   UNL     1      -5.386  -2.975  -0.008  0.00  0.00    -0.081 HD
ATOM      8  H   UNL     1      -4.854  -2.602   1.508  0.00  0.00    -0.081 HD
ENDROOT
BRANCH   1  14
ATOM      9  C   UNL     1      -1.498  -1.848   0.006  0.00  0.00    +0.124 A 
ATOM     10  C   UNL     1      -0.387  -2.679  -0.003  0.00  0.00    +0.046 A 
ATOM     11  C   UNL     1      -0.552  -4.051  -0.008  0.00  0.00    +0.004 A 
ATOM     12  C   UNL     1      -1.823  -4.596  -0.004  0.00  0.00    +0.000 A 
ATOM     13  C   UNL     1      -2.932  -3.769   0.004  0.00  0.00    +0.007 A 
ATOM     14  C   UNL     1      -2.772  -2.397   0.016  0.00  0.00    +0.001 A 
BRANCH   9  15
ATOM     15  O   UNL     1      -1.339  -0.499   0.012  0.00  0.00    -0.492 OA
BRANCH  15  17
ATOM     16  C   UNL     1      -0.019   1.526   0.010  0.00  0.00    +0.048 C 
ATOM     17  C   UNL     1       0.002  -0.004   0.002  0.00  0.00    +0.225 C 
ENDBRANCH  15  17
ENDBRANCH   9  15
ENDBRANCH   1  14
BRANCH   5  18
ATOM     18  C   UNL     1      -4.074   1.461   2.346  0.00  0.00    -0.004 A 
ATOM     19  C   UNL     1      -4.943   2.083   3.246  0.00  0.00    +0.013 A 
ATOM     20  C   UNL     1      -4.540   3.217   3.918  0.00  0.00    +0.046 A 
ATOM     21  C   UNL     1      -3.272   3.741   3.701  0.00  0.00    +0.120 A 
ATOM     22  C   UNL     1      -2.405   3.126   2.806  0.00  0.00    +0.046 A 
ATOM     23  C   UNL     1      -2.797   1.988   2.135  0.00  0.00    +0.013 A 
BRANCH  21  24
ATOM     24  O   UNL     1      -2.879   4.859   4.364  0.00  0.00    -0.495 OA
ATOM     25  C   UNL     1      -1.562   5.344   4.094  0.00  0.00    +0.277 C 
ENDBRANCH  21  24
ENDBRANCH   5  18
BRANCH   3  26
ATOM     26  C   UNL     1      -7.481  -2.059   1.173  0.00  0.00    -0.019 A 
ATOM     27  C   UNL     1      -7.364  -3.275   1.818  0.00  0.00    +0.005 A 
ATOM     28  C   UNL     1      -8.497  -3.978   2.181  0.00  0.00    +0.000 A 
ATOM     29  C   UNL     1      -9.751  -3.466   1.900  0.00  0.00    +0.004 A 
ATOM     30  C   UNL     1      -9.873  -2.251   1.255  0.00  0.00    +0.045 A 
ATOM     31  C   UNL     1      -8.737  -1.541   0.894  0.00  0.00    +0.118 A 
BRANCH  31  32
ATOM     32  O   UNL     1      -8.855  -0.342   0.265  0.00  0.00    -0.507 OA
ATOM     33  H   UNL     1      -8.885  -0.406  -0.700  0.00  0.00    +0.292 HD
ENDBRANCH  31  32
ENDBRANCH   3  26
TORSDOF 7
