REMARK  Name = ZINC22242135
REMARK  4 active torsions:
REMARK  status: ('A' for Active; 'I' for Inactive)
REMARK    1  A    between atoms: C_11  and  C_26
REMARK    2  A    between atoms: C_14  and  C_16
REMARK    3  A    between atoms: C_16  and  O_17
REMARK    4  A    between atoms: O_17  and  C_18
REMARK                            x       y       z     vdW  Elec       q    Type
REMARK                         _______ _______ _______ _____ _____    ______ ____
ROOT
ATOM      1  C   UNL     1       3.514   3.564   0.003  0.00  0.00    +0.002 A 
ATOM      2  C   UNL     1       3.130   2.877  -1.134  0.00  0.00    +0.002 A 
ATOM      3  C   UNL     1       1.965   2.133  -1.138  0.00  0.00    +0.025 A 
ATOM      4  C   UNL     1       1.181   2.074   0.002  0.00  0.00    +0.058 A 
ATOM      5  C   UNL     1       1.579   2.750   1.155  0.00  0.00    +0.055 A 
ATOM      6  C   UNL     1       2.741   3.503   1.148  0.00  0.00    +0.025 A 
ATOM      7  N   UNL     1       0.810   2.628   2.318  0.00  0.00    -0.284 N 
ATOM      8  C   UNL     1      -0.528   2.809   2.277  0.00  0.00    +0.219 C 
ATOM      9  O   UNL     1      -1.193   2.619   3.274  0.00  0.00    -0.275 OA
ATOM     10  C   UNL     1      -1.200   3.246   1.002  0.00  0.00    +0.128 C 
ATOM     11  C   UNL     1      -1.286   2.072   0.019  0.00  0.00    +0.194 C 
ATOM     12  N   UNL     1      -0.016   1.344   0.009  0.00  0.00    -0.255 N 
ATOM     13  C   UNL     1       0.002  -0.004   0.002  0.00  0.00    +0.258 C 
ATOM     14  O   UNL     1      -1.040  -0.625   0.009  0.00  0.00    -0.271 OA
ATOM     15  H   UNL     1       1.294   2.383   3.275  0.00  0.00    +0.155 HD
ENDROOT
BRANCH  11  16
ATOM     16  C   UNL     1      -1.580   2.600  -1.386  0.00  0.00    +0.409 C 
ATOM     17  F   UNL     1      -1.664   1.527  -2.280  0.00  0.00    -0.169 F 
ATOM     18  F   UNL     1      -2.794   3.296  -1.378  0.00  0.00    -0.169 F 
ATOM     19  F   UNL     1      -0.552   3.461  -1.785  0.00  0.00    -0.169 F 
ENDBRANCH  11  16
BRANCH  13  20
ATOM     20  C   UNL     1       1.317  -0.740  -0.015  0.00  0.00    +0.325 C 
BRANCH  20  21
ATOM     21  O   UNL     1       1.075  -2.148  -0.020  0.00  0.00    -0.481 OA
BRANCH  21  22
ATOM     22  C   UNL     1       2.164  -2.961  -0.035  0.00  0.00    +0.140 A 
ATOM     23  C   UNL     1       3.439  -2.415  -0.050  0.00  0.00    +0.048 A 
ATOM     24  C   UNL     1       4.545  -3.243  -0.060  0.00  0.00    +0.023 A 
ATOM     25  C   UNL     1       4.382  -4.617  -0.066  0.00  0.00    +0.043 A 
ATOM     26  C   UNL     1       3.112  -5.165  -0.056  0.00  0.00    +0.043 A 
ATOM     27  C   UNL     1       2.002  -4.340  -0.040  0.00  0.00    +0.084 A 
ATOM     28 CL   UNL     1       0.408  -5.027  -0.029  0.00  0.00    -0.080 Cl
ATOM     29 CL   UNL     1       5.773  -5.655  -0.085  0.00  0.00    -0.083 Cl
ENDBRANCH  21  22
ENDBRANCH  20  21
ENDBRANCH  13  20
TORSDOF 4
