REMARK  Name = ZINC20521319
REMARK  7 active torsions:
REMARK  status: ('A' for Active; 'I' for Inactive)
REMARK    1  A    between atoms: C_1  and  C_2
REMARK    2  A    between atoms: C_2  and  N_3
REMARK    3  A    between atoms: C_7  and  C_9
REMARK    4  A    between atoms: C_9  and  N_10
REMARK    5  A    between atoms: C_11  and  C_13
REMARK    6  A    between atoms: C_13  and  C_15
REMARK    7  A    between atoms: C_13  and  N_16
REMARK                            x       y       z     vdW  Elec       q    Type
REMARK                         _______ _______ _______ _____ _____    ______ ____
ROOT
ATOM      1  N   UNL     1      -1.124  -2.291   2.765  0.00  0.00    -0.316 N 
ATOM      2  C   UNL     1      -1.932  -2.189   3.839  0.00  0.00    +0.230 C 
ATOM      3  O   UNL     1      -2.958  -2.834   3.888  0.00  0.00    -0.274 OA
ATOM      4  H   UNL     1      -0.304  -1.775   2.725  0.00  0.00    +0.149 HD
ENDROOT
BRANCH   2   5
ATOM      5  C   UNL     1      -1.561  -1.275   4.977  0.00  0.00    +0.140 C 
ATOM      6  C   UNL     1      -1.809   0.178   4.566  0.00  0.00    +0.034 C 
BRANCH   5   7
ATOM      7  N   UNL     1      -2.382  -1.598   6.152  0.00  0.00    -0.295 NA
ATOM      8  C   UNL     1      -1.812  -1.007   7.371  0.00  0.00    +0.066 C 
ATOM      9  C   UNL     1      -2.660  -1.415   8.577  0.00  0.00    -0.067 C 
ATOM     10  N   UNL     1      -4.040  -0.950   8.386  0.00  0.00    +0.381 N 
ATOM     11  C   UNL     1      -4.604  -1.567   7.178  0.00  0.00    -0.067 C 
ATOM     12  C   UNL     1      -3.772  -1.160   5.960  0.00  0.00    +0.066 C 
ATOM     13  H   UNL     1      -4.597  -1.208   9.187  0.00  0.00    -0.086 HD
ATOM     14  H   UNL     1      -4.045   0.054   8.283  0.00  0.00    -0.086 HD
ENDBRANCH   5   7
ENDBRANCH   2   5
BRANCH   1  15
ATOM     15  C   UNL     1      -1.485  -3.180   1.658  0.00  0.00    +0.089 C 
BRANCH  15  20
ATOM     16  N   UNL     1      -0.207  -1.710   0.156  0.00  0.00    +0.382 N 
ATOM     17  C   UNL     1      -0.539  -1.596  -1.280  0.00  0.00    -0.078 C 
ATOM     18  C   UNL     1      -0.347  -3.025  -1.845  0.00  0.00    -0.020 C 
ATOM     19  C   UNL     1      -0.861  -3.899  -0.671  0.00  0.00    -0.016 C 
ATOM     20  C   UNL     1      -0.407  -3.110   0.575  0.00  0.00    -0.051 C 
ATOM     21  H   UNL     1      -0.812  -1.106   0.692  0.00  0.00    -0.081 HD
BRANCH  16  23
ATOM     22  C   UNL     1       1.370   0.162   0.054  0.00  0.00    -0.017 C 
ATOM     23  C   UNL     1       1.195  -1.325   0.371  0.00  0.00    -0.082 C 
ENDBRANCH  16  23
ENDBRANCH  15  20
ENDBRANCH   1  15
TORSDOF 5
