REMARK  Name = ZINC09355313
REMARK  9 active torsions:
REMARK  status: ('A' for Active; 'I' for Inactive)
REMARK    1  A    between atoms: C_1  and  C_2
REMARK    2  A    between atoms: C_5  and  O_11
REMARK    3  A    between atoms: C_6  and  N_8
REMARK    4  A    between atoms: O_11  and  C_12
REMARK    5  A    between atoms: C_12  and  C_13
REMARK    6  A    between atoms: N_15  and  N_16
REMARK    7  A    between atoms: C_17  and  C_18
REMARK    8  A    between atoms: C_21  and  O_25
REMARK    9  A    between atoms: O_25  and  C_26
REMARK                            x       y       z     vdW  Elec       q    Type
REMARK                         _______ _______ _______ _____ _____    ______ ____
ROOT
ATOM      1  C   UNL     1       0.002  -0.004   0.002  0.00  0.00    +0.270 C 
ATOM      2  O   UNL     1       1.061  -0.596  -0.011  0.00  0.00    -0.270 OA
ATOM      3  N   UNL     1      -0.016   1.344   0.009  0.00  0.00    -0.204 N 
ATOM      4  H   UNL     1      -0.863   1.817   0.016  0.00  0.00    +0.177 HD
ENDROOT
BRANCH   3   5
ATOM      5  N   UNL     1       1.187   2.061   0.002  0.00  0.00    -0.188 NA
ATOM      6  C   UNL     1       1.170   3.358   0.009  0.00  0.00    +0.138 C 
BRANCH   6   7
ATOM      7  C   UNL     1       2.436   4.113   0.001  0.00  0.00    -0.003 A 
ATOM      8  C   UNL     1       3.657   3.433  -0.009  0.00  0.00    +0.028 A 
ATOM      9  C   UNL     1       4.839   4.142  -0.022  0.00  0.00    +0.061 A 
ATOM     10  C   UNL     1       4.818   5.531  -0.014  0.00  0.00    +0.148 A 
ATOM     11  C   UNL     1       3.607   6.212   0.001  0.00  0.00    +0.061 A 
ATOM     12  C   UNL     1       2.420   5.510   0.009  0.00  0.00    +0.028 A 
ATOM     13 BR   UNL     1       3.586   8.102   0.012  0.00  0.00    -0.046 Br
ATOM     14 BR   UNL     1       6.492   3.223  -0.043  0.00  0.00    -0.046 Br
BRANCH  10  15
ATOM     15  O   UNL     1       5.986   6.227  -0.021  0.00  0.00    -0.493 OA
ATOM     16  C   UNL     1       6.555   6.551   1.248  0.00  0.00    +0.277 C 
ENDBRANCH  10  15
ENDBRANCH   6   7
ENDBRANCH   3   5
BRANCH   1  17
ATOM     17  C   UNL     1      -1.293  -0.775   0.010  0.00  0.00    +0.326 C 
BRANCH  17  18
ATOM     18  O   UNL     1      -1.012  -2.176   0.000  0.00  0.00    -0.480 OA
BRANCH  18  23
ATOM     19  C   UNL     1      -5.432  -5.668   0.021  0.00  0.00    +0.044 C 
ATOM     20  C   UNL     1      -4.250  -4.734   0.016  0.00  0.00    -0.048 A 
ATOM     21  C   UNL     1      -4.451  -3.366   0.026  0.00  0.00    +0.007 A 
ATOM     22  C   UNL     1      -3.369  -2.507   0.021  0.00  0.00    +0.048 A 
ATOM     23  C   UNL     1      -2.079  -3.019   0.006  0.00  0.00    +0.151 A 
ATOM     24  C   UNL     1      -1.880  -4.392  -0.009  0.00  0.00    +0.168 A 
ATOM     25  C   UNL     1      -2.966  -5.246   0.001  0.00  0.00    +0.039 A 
BRANCH  24  26
ATOM     26  N   UNL     1      -0.506  -4.941  -0.031  0.00  0.00    +0.060 N 
ATOM     27  O   UNL     1      -0.332  -6.146  -0.044  0.00  0.00    -0.126 OA
ATOM     28  O   UNL     1       0.451  -4.187  -0.036  0.00  0.00    -0.126 OA
ENDBRANCH  24  26
ENDBRANCH  18  23
ENDBRANCH  17  18
ENDBRANCH   1  17
TORSDOF 7
