REMARK  Name = ZINC15063712
REMARK  9 active torsions:
REMARK  status: ('A' for Active; 'I' for Inactive)
REMARK    1  A    between atoms: C_1  and  C_2
REMARK    2  A    between atoms: C_2  and  N_51
REMARK    3  A    between atoms: C_3  and  C_4
REMARK    4  A    between atoms: C_3  and  N_51
REMARK    5  A    between atoms: C_4  and  N_5
REMARK    6  A    between atoms: C_10  and  C_11
REMARK    7  A    between atoms: C_10  and  N_51
REMARK    8  A    between atoms: C_12  and  C_26
REMARK    9  A    between atoms: C_14  and  C_16
REMARK                            x       y       z     vdW  Elec       q    Type
REMARK                         _______ _______ _______ _____ _____    ______ ____
ROOT
ATOM      1  C   UNL     1      -0.869   2.041   3.594  0.00  0.00    +0.066 A 
ATOM      2  C   UNL     1      -1.732   1.442   4.435  0.00  0.00    +0.124 A 
ATOM      3  O   UNL     1      -2.050   2.340   5.389  0.00  0.00    -0.440 OA
ATOM      4  C   UNL     1      -1.380   3.475   5.122  0.00  0.00    +0.228 A 
ATOM      5  N   UNL     1      -0.661   3.290   4.038  0.00  0.00    -0.216 NA
ATOM      6  C   UNL     1      -2.246   0.029   4.331  0.00  0.00    +0.088 C 
ENDROOT
BRANCH   4   7
ATOM      7  C   UNL     1      -1.438   4.716   5.916  0.00  0.00    +0.045 A 
ATOM      8  C   UNL     1      -2.660   5.245   6.301  0.00  0.00    +0.014 A 
ATOM      9  C   UNL     1      -2.721   6.412   7.054  0.00  0.00    +0.001 A 
ATOM     10  C   UNL     1      -1.589   7.073   7.423  0.00  0.00    +0.008 A 
ATOM     11  C   UNL     1      -0.328   6.576   7.049  0.00  0.00    -0.017 A 
ATOM     12  C   UNL     1      -0.245   5.385   6.287  0.00  0.00    -0.006 A 
ATOM     13  C   UNL     1       1.012   4.891   5.916  0.00  0.00    +0.009 A 
ATOM     14  C   UNL     1       2.138   5.559   6.291  0.00  0.00    +0.001 A 
ATOM     15  C   UNL     1       2.059   6.731   7.040  0.00  0.00    +0.001 A 
ATOM     16  C   UNL     1       0.855   7.240   7.418  0.00  0.00    +0.008 A 
ENDBRANCH   4   7
BRANCH   1  17
ATOM     17  C   UNL     1      -0.241   1.418   2.374  0.00  0.00    -0.019 C 
BRANCH  17  18
ATOM     18  N   UNL     1      -1.014   1.826   1.182  0.00  0.00    +0.384 N 
ATOM     19  H   UNL     1      -1.190   2.837   1.228  0.00  0.00    -0.081 HD
BRANCH  18  21
ATOM     20  C   UNL     1      -2.092  -0.387   0.957  0.00  0.00    -0.017 C 
ATOM     21  C   UNL     1      -2.309   1.115   1.152  0.00  0.00    -0.082 C 
ENDBRANCH  18  21
BRANCH  18  22
ATOM     22  C   UNL     1      -0.246   1.528  -0.045  0.00  0.00    -0.055 C 
BRANCH  22  23
ATOM     23  C   UNL     1      -0.962   2.158  -1.241  0.00  0.00    +0.125 C 
BRANCH  23  24
ATOM     24  N   UNL     1      -0.200   1.889  -2.463  0.00  0.00    -0.273 N 
ATOM     25  C   UNL     1      -0.675   1.302  -3.582  0.00  0.00    +0.108 A 
ATOM     26  C   UNL     1       0.339   1.238  -4.476  0.00  0.00    +0.041 A 
ATOM     27  C   UNL     1       1.472   1.806  -3.884  0.00  0.00    +0.134 A 
ATOM     28  N   UNL     1       1.149   2.202  -2.680  0.00  0.00    -0.180 NA
ENDBRANCH  23  24
ENDBRANCH  22  23
ENDBRANCH  18  22
ENDBRANCH  17  18
ENDBRANCH   1  17
TORSDOF 7
