REMARK  Name = ZINC01430186
REMARK  1 active torsions:
REMARK  status: ('A' for Active; 'I' for Inactive)
REMARK    1  A    between atoms: C_10  and  C_16
REMARK                            x       y       z     vdW  Elec       q    Type
REMARK                         _______ _______ _______ _____ _____    ______ ____
ROOT
ATOM      1  C   UNL     1      -0.017   1.372   0.010  0.00  0.00    +0.002 A 
ATOM      2  C   UNL     1       1.170   2.091   0.002  0.00  0.00    +0.002 A 
ATOM      3  C   UNL     1       2.384   1.437  -0.014  0.00  0.00    +0.028 A 
ATOM      4  C   UNL     1       2.424   0.050  -0.023  0.00  0.00    +0.072 A 
ATOM      5  C   UNL     1       1.223  -0.683  -0.013  0.00  0.00    +0.091 A 
ATOM      6  C   UNL     1       0.002  -0.004   0.002  0.00  0.00    +0.030 A 
ATOM      7  N   UNL     1       1.555  -2.003  -0.020  0.00  0.00    -0.214 NA
ATOM      8  C   UNL     1       2.850  -2.125  -0.032  0.00  0.00    +0.205 A 
ATOM      9  N   UNL     1       3.436  -0.883  -0.043  0.00  0.00    -0.285 N 
ATOM     10  C   UNL     1       4.886  -0.668  -0.078  0.00  0.00    +0.244 C 
ATOM     11  N   UNL     1       5.538  -1.950   0.249  0.00  0.00    -0.292 N 
ATOM     12  C   UNL     1       4.974  -3.112  -0.259  0.00  0.00    +0.159 C 
ATOM     13  N   UNL     1       5.682  -3.987  -0.915  0.00  0.00    -0.375 N 
ATOM     14  N   UNL     1       3.609  -3.293  -0.031  0.00  0.00    -0.259 N 
ATOM     15  H   UNL     1       6.335  -1.981   0.801  0.00  0.00    +0.151 HD
ATOM     16  H   UNL     1       3.218  -4.168   0.118  0.00  0.00    +0.158 HD
ATOM     17  H   UNL     1       6.629  -3.836  -1.059  0.00  0.00    +0.158 HD
ATOM     18  H   UNL     1       5.261  -4.791  -1.259  0.00  0.00    +0.158 HD
ENDROOT
BRANCH  10  19
ATOM     19  C   UNL     1       5.302  -0.219  -1.455  0.00  0.00    +0.147 A 
ATOM     20  C   UNL     1       5.560   1.049  -1.825  0.00  0.00    +0.049 A 
ATOM     21  C   UNL     1       5.912   1.013  -3.193  0.00  0.00    +0.056 A 
ATOM     22  C   UNL     1       5.848  -0.275  -3.579  0.00  0.00    +0.165 A 
ATOM     23  O   UNL     1       5.484  -1.017  -2.521  0.00  0.00    -0.450 OA
ATOM     24  I   UNL     1       6.255  -1.000  -5.502  0.00  0.00    -0.001 I 
ENDBRANCH  10  19
TORSDOF 1
