REMARK  Name = ZINC17093601
REMARK  6 active torsions:
REMARK  status: ('A' for Active; 'I' for Inactive)
REMARK    1  A    between atoms: C_4  and  C_7
REMARK    2  A    between atoms: C_7  and  N_8
REMARK    3  A    between atoms: C_9  and  C_21
REMARK    4  A    between atoms: C_24  and  O_27
REMARK    5  A    between atoms: O_27  and  C_28
REMARK    6  A    between atoms: C_28  and  C_29
REMARK                            x       y       z     vdW  Elec       q    Type
REMARK                         _______ _______ _______ _____ _____    ______ ____
ROOT
ATOM      1  N   UNL     1       4.152  -0.952   1.338  0.00  0.00    -0.148 NA
ATOM      2  C   UNL     1       4.902   0.057   2.113  0.00  0.00    +0.194 C 
ATOM      3  N   UNL     1       4.152   0.366   3.328  0.00  0.00    -0.322 N 
ATOM      4  C   UNL     1       3.660  -0.609   4.192  0.00  0.00    +0.055 A 
ATOM      5  C   UNL     1       3.377  -0.257   5.511  0.00  0.00    +0.025 A 
ATOM      6  C   UNL     1       2.872  -1.195   6.386  0.00  0.00    +0.002 A 
ATOM      7  C   UNL     1       2.643  -2.492   5.963  0.00  0.00    +0.002 A 
ATOM      8  C   UNL     1       2.927  -2.850   4.658  0.00  0.00    +0.030 A 
ATOM      9  C   UNL     1       3.439  -1.917   3.781  0.00  0.00    +0.126 A 
ATOM     10  S   UNL     1       3.832  -2.386   2.128  0.00  0.00    +0.065 S 
ATOM     11  O   UNL     1       2.646  -2.920   1.555  0.00  0.00    -0.153 OA
ATOM     12  O   UNL     1       5.053  -3.111   2.185  0.00  0.00    -0.153 OA
ATOM     13  H   UNL     1       3.989   1.297   3.544  0.00  0.00    +0.148 HD
ENDROOT
BRANCH   2  14
ATOM     14  C   UNL     1       6.258  -0.490   2.477  0.00  0.00    -0.011 A 
ATOM     15  C   UNL     1       6.881  -1.401   1.643  0.00  0.00    +0.010 A 
ATOM     16  C   UNL     1       8.124  -1.904   1.975  0.00  0.00    +0.046 A 
ATOM     17  C   UNL     1       8.747  -1.494   3.145  0.00  0.00    +0.121 A 
ATOM     18  C   UNL     1       8.120  -0.580   3.979  0.00  0.00    +0.046 A 
ATOM     19  C   UNL     1       6.880  -0.076   3.640  0.00  0.00    +0.010 A 
BRANCH  17  20
ATOM     20  O   UNL     1       9.970  -1.988   3.473  0.00  0.00    -0.483 OA
BRANCH  20  21
ATOM     21  C   UNL     1      10.552  -1.522   4.692  0.00  0.00    +0.324 C 
BRANCH  21  22
ATOM     22  C   UNL     1      11.896  -2.174   4.889  0.00  0.00    +0.248 C 
ATOM     23  O   UNL     1      12.315  -2.961   4.066  0.00  0.00    -0.272 OA
ATOM     24  N   UNL     1      12.634  -1.883   5.979  0.00  0.00    -0.327 N 
ATOM     25  H   UNL     1      12.299  -1.254   6.637  0.00  0.00    +0.145 HD
ATOM     26  H   UNL     1      13.499  -2.303   6.105  0.00  0.00    +0.145 HD
ENDBRANCH  21  22
ENDBRANCH  20  21
ENDBRANCH  17  20
ENDBRANCH   2  14
BRANCH   1  27
ATOM     27  C   UNL     1       3.711  -0.707  -0.038  0.00  0.00    +0.147 C 
BRANCH  27  31
ATOM     28  C   UNL     1      -0.017   1.378   0.010  0.00  0.00    +0.000 A 
ATOM     29  C   UNL     1       1.171   2.086   0.002  0.00  0.00    +0.000 A 
ATOM     30  C   UNL     1       2.377   1.411  -0.013  0.00  0.00    +0.005 A 
ATOM     31  C   UNL     1       2.396   0.029  -0.020  0.00  0.00    -0.032 A 
ATOM     32  C   UNL     1       1.208  -0.679  -0.012  0.00  0.00    +0.005 A 
ATOM     33  C   UNL     1       0.002  -0.004   0.002  0.00  0.00    +0.000 A 
ENDBRANCH  27  31
ENDBRANCH   1  27
TORSDOF 6
