REMARK  Name = ZINC14990911
REMARK  6 active torsions:
REMARK  status: ('A' for Active; 'I' for Inactive)
REMARK    1  A    between atoms: C_3  and  C_11
REMARK    2  A    between atoms: C_5  and  C_7
REMARK    3  A    between atoms: C_11  and  N_12
REMARK    4  A    between atoms: C_23  and  N_51
REMARK    5  A    between atoms: C_27  and  C_28
REMARK    6  A    between atoms: C_27  and  N_51
REMARK                            x       y       z     vdW  Elec       q    Type
REMARK                         _______ _______ _______ _____ _____    ______ ____
ROOT
ATOM      1  N   UNL     1      -0.090   5.842  -1.348  0.00  0.00    -0.294 N 
ATOM      2  C   UNL     1       1.085   6.089  -1.983  0.00  0.00    +0.203 A 
ATOM      3  N   UNL     1       1.109   6.527  -3.214  0.00  0.00    -0.230 NA
ATOM      4  C   UNL     1      -0.018   6.755  -3.881  0.00  0.00    +0.116 A 
ATOM      5  C   UNL     1      -1.280   6.535  -3.307  0.00  0.00    +0.076 A 
ATOM      6  C   UNL     1      -1.272   6.049  -1.958  0.00  0.00    +0.263 A 
ATOM      7  O   UNL     1      -2.318   5.828  -1.373  0.00  0.00    -0.267 OA
ATOM      8  C   UNL     1      -2.432   6.829  -4.159  0.00  0.00    -0.023 A 
ATOM      9  C   UNL     1      -2.172   7.280  -5.404  0.00  0.00    -0.006 A 
ATOM     10  S   UNL     1      -0.404   7.338  -5.512  0.00  0.00    -0.073 S 
ATOM     11  C   UNL     1      -3.167   7.649  -6.461  0.00  0.00    +0.027 C 
ATOM     12  C   UNL     1      -4.537   7.089  -6.054  0.00  0.00    -0.067 C 
ATOM     13  C   UNL     1      -4.799   7.449  -4.588  0.00  0.00    -0.011 C 
ATOM     14  C   UNL     1      -3.869   6.642  -3.681  0.00  0.00    +0.035 C 
ENDROOT
BRANCH  12  15
ATOM     15  N   UNL     1      -5.588   7.685  -6.900  0.00  0.00    +0.381 N 
ATOM     16  H   UNL     1      -5.339   8.658  -7.114  0.00  0.00    -0.086 HD
ATOM     17  H   UNL     1      -6.482   7.664  -6.395  0.00  0.00    -0.086 HD
BRANCH  15  18
ATOM     18  C   UNL     1      -5.722   6.929  -8.159  0.00  0.00    -0.079 C 
BRANCH  18  19
ATOM     19  C   UNL     1      -6.817   7.569  -9.015  0.00  0.00    -0.028 C 
ATOM     20  C   UNL     1      -8.060   6.729  -9.316  0.00  0.00    +0.002 C 
ATOM     21  C   UNL     1      -7.037   7.005 -10.420  0.00  0.00    +0.002 C 
ENDBRANCH  18  19
ENDBRANCH  15  18
ENDBRANCH  12  15
BRANCH   1  22
ATOM     22  C   UNL     1      -0.070   5.347   0.030  0.00  0.00    +0.161 C 
BRANCH  22  25
ATOM     23  C   UNL     1       1.175   1.783   0.000  0.00  0.00    +0.001 A 
ATOM     24  C   UNL     1       1.156   3.166   0.008  0.00  0.00    +0.005 A 
ATOM     25  C   UNL     1      -0.050   3.840   0.022  0.00  0.00    -0.027 A 
ATOM     26  C   UNL     1      -1.238   3.133   0.030  0.00  0.00    +0.017 A 
ATOM     27  C   UNL     1      -1.219   1.751   0.017  0.00  0.00    +0.055 A 
ATOM     28  C   UNL     1      -0.013   1.076   0.008  0.00  0.00    +0.012 A 
BRANCH  27  29
ATOM     29  C   UNL     1      -2.514   0.980   0.019  0.00  0.00    +0.417 C 
ATOM     30  F   UNL     1      -2.240  -0.392   0.010  0.00  0.00    -0.166 F 
ATOM     31  F   UNL     1      -3.247   1.301   1.167  0.00  0.00    -0.166 F 
ATOM     32  F   UNL     1      -3.257   1.314  -1.118  0.00  0.00    -0.166 F 
ENDBRANCH  27  29
ENDBRANCH  22  25
ENDBRANCH   1  22
TORSDOF 6
