REMARK  Name = ZINC53454529
REMARK  6 active torsions:
REMARK  status: ('A' for Active; 'I' for Inactive)
REMARK    1  A    between atoms: C_1  and  C_2
REMARK    2  A    between atoms: C_2  and  C_4
REMARK    3  A    between atoms: C_2  and  S_12
REMARK    4  A    between atoms: C_6  and  C_9
REMARK    5  A    between atoms: S_12  and  C_13
REMARK    6  A    between atoms: C_19  and  C_23
REMARK                            x       y       z     vdW  Elec       q    Type
REMARK                         _______ _______ _______ _____ _____    ______ ____
ROOT
ATOM      1  C   UNL     1      -0.136  -0.087   2.816  0.00  0.00    +0.197 A 
ATOM      2  N   UNL     1      -1.267   0.576   2.727  0.00  0.00    -0.122 NA
ATOM      3  N   UNL     1      -1.750   0.793   3.899  0.00  0.00    -0.127 NA
ATOM      4  C   UNL     1      -0.949   0.278   4.813  0.00  0.00    +0.180 A 
ATOM      5  N   UNL     1       0.104  -0.305   4.140  0.00  0.00    -0.276 N 
ATOM      6  C   UNL     1       1.105  -0.932   4.830  0.00  0.00    +0.107 A 
ATOM      7  C   UNL     1       1.073  -0.993   6.176  0.00  0.00    +0.073 A 
ATOM      8  C   UNL     1       0.009  -0.411   6.891  0.00  0.00    +0.037 A 
ATOM      9  C   UNL     1      -0.989   0.225   6.222  0.00  0.00    +0.086 A 
ATOM     10 CL   UNL     1      -2.308   0.946   7.090  0.00  0.00    -0.080 Cl
ENDROOT
BRANCH   7  11
ATOM     11  C   UNL     1       2.183  -1.688   6.920  0.00  0.00    +0.419 C 
ATOM     12  F   UNL     1       3.140  -0.748   7.317  0.00  0.00    -0.166 F 
ATOM     13  F   UNL     1       1.660  -2.326   8.050  0.00  0.00    -0.166 F 
ATOM     14  F   UNL     1       2.781  -2.638   6.085  0.00  0.00    -0.166 F 
ENDBRANCH   7  11
BRANCH   1  15
ATOM     15  S   UNL     1       0.879  -0.605   1.472  0.00  0.00    -0.073 S 
BRANCH  15  17
ATOM     16  C   UNL     1      -0.019   1.526   0.010  0.00  0.00    +0.029 C 
ATOM     17  C   UNL     1       0.002  -0.004   0.002  0.00  0.00    +0.140 C 
BRANCH  17  18
ATOM     18  C   UNL     1       0.707  -0.490  -1.238  0.00  0.00    +0.241 A 
ATOM     19  N   UNL     1       0.135  -1.000  -2.293  0.00  0.00    -0.195 NA
ATOM     20  C   UNL     1       1.058  -1.324  -3.205  0.00  0.00    +0.175 A 
ATOM     21  N   UNL     1       2.236  -1.023  -2.739  0.00  0.00    -0.061 NA
ATOM     22  O   UNL     1       2.030  -0.467  -1.448  0.00  0.00    -0.337 OA
BRANCH  20  23
ATOM     23  C   UNL     1       0.780  -1.939  -4.553  0.00  0.00    +0.060 C 
ATOM     24  C   UNL     1       1.980  -2.422  -5.370  0.00  0.00    +0.012 C 
ATOM     25  C   UNL     1       1.226  -1.158  -5.790  0.00  0.00    +0.012 C 
ENDBRANCH  20  23
ENDBRANCH  17  18
ENDBRANCH  15  17
ENDBRANCH   1  15
TORSDOF 5
