REMARK  Name = ZINC05895023
REMARK  13 active torsions:
REMARK  status: ('A' for Active; 'I' for Inactive)
REMARK    1  A    between atoms: C_1  and  C_2
REMARK    2  A    between atoms: C_2  and  N_55
REMARK    3  A    between atoms: C_3  and  C_4
REMARK    4  A    between atoms: C_3  and  N_55
REMARK    5  A    between atoms: C_5  and  C_6
REMARK    6  A    between atoms: C_5  and  N_55
REMARK    7  A    between atoms: C_12  and  O_29
REMARK    8  A    between atoms: C_13  and  O_18
REMARK    9  A    between atoms: C_14  and  C_17
REMARK   10  A    between atoms: O_18  and  C_19
REMARK   11  A    between atoms: C_22  and  C_25
REMARK   12  A    between atoms: C_25  and  O_27
REMARK   13  A    between atoms: O_27  and  C_28
REMARK                            x       y       z     vdW  Elec       q    Type
REMARK                         _______ _______ _______ _____ _____    ______ ____
ROOT
ATOM      1  C   UNL     1      -1.534   6.620  -0.472  0.00  0.00    +0.026 A 
ATOM      2  C   UNL     1      -1.554   6.976   0.879  0.00  0.00    +0.184 A 
ATOM      3  O   UNL     1      -1.286   8.232   1.238  0.00  0.00    -0.288 OA
ATOM      4  C   UNL     1      -1.855   6.016   1.864  0.00  0.00    +0.052 A 
ATOM      5  C   UNL     1      -2.129   4.733   1.512  0.00  0.00    +0.019 A 
ATOM      6  C   UNL     1      -2.113   4.360   0.156  0.00  0.00    +0.063 A 
ATOM      7  C   UNL     1      -2.401   3.035  -0.236  0.00  0.00    +0.173 A 
ATOM      8  C   UNL     1      -2.364   2.726  -1.608  0.00  0.00    +0.208 A 
ATOM      9  C   UNL     1      -2.068   3.695  -2.512  0.00  0.00    +0.148 A 
ATOM     10  O   UNL     1      -1.800   4.951  -2.138  0.00  0.00    -0.456 OA
ATOM     11  C   UNL     1      -1.813   5.317  -0.841  0.00  0.00    +0.144 A 
ATOM     12  C   UNL     1      -2.039   3.345  -3.978  0.00  0.00    +0.090 C 
ENDROOT
BRANCH   7  13
ATOM     13  O   UNL     1      -2.698   2.088   0.680  0.00  0.00    -0.503 OA
ATOM     14  H   UNL     1      -1.927   1.610   1.016  0.00  0.00    +0.292 HD
ENDBRANCH   7  13
BRANCH   1  15
ATOM     15  C   UNL     1      -1.213   7.651  -1.522  0.00  0.00    -0.035 C 
BRANCH  15  16
ATOM     16  N   UNL     1      -2.471   8.282  -1.972  0.00  0.00    +0.382 N 
ATOM     17  H   UNL     1      -3.137   7.546  -2.236  0.00  0.00    -0.081 HD
BRANCH  16  19
ATOM     18  C   UNL     1      -2.130  10.253  -0.519  0.00  0.00    -0.017 C 
ATOM     19  C   UNL     1      -3.053   9.086  -0.877  0.00  0.00    -0.082 C 
ENDBRANCH  16  19
BRANCH  16  20
ATOM     20  C   UNL     1      -2.214   9.140  -3.148  0.00  0.00    -0.082 C 
ATOM     21  C   UNL     1      -3.553   9.516  -3.785  0.00  0.00    -0.017 C 
ENDBRANCH  16  20
ENDBRANCH  15  16
ENDBRANCH   1  15
BRANCH   8  22
ATOM     22  O   UNL     1      -2.630   1.460  -2.029  0.00  0.00    -0.449 OA
BRANCH  22  23
ATOM     23  C   UNL     1      -1.591   0.593  -2.138  0.00  0.00    +0.129 A 
ATOM     24  C   UNL     1      -0.302   1.013  -1.829  0.00  0.00    +0.047 A 
ATOM     25  C   UNL     1       0.755   0.139  -1.944  0.00  0.00    +0.018 A 
ATOM     26  C   UNL     1       0.531  -1.173  -2.372  0.00  0.00    +0.059 A 
ATOM     27  C   UNL     1      -0.767  -1.591  -2.682  0.00  0.00    +0.018 A 
ATOM     28  C   UNL     1      -1.818  -0.711  -2.564  0.00  0.00    +0.047 A 
BRANCH  26  29
ATOM     29  C   UNL     1       1.660  -2.113  -2.495  0.00  0.00    +0.339 C 
ATOM     30  O   UNL     1       1.464  -3.253  -2.867  0.00  0.00    -0.245 OA
BRANCH  29  31
ATOM     31  O   UNL     1       2.910  -1.708  -2.196  0.00  0.00    -0.464 OA
ATOM     32  C   UNL     1       3.973  -2.687  -2.341  0.00  0.00    +0.280 C 
ENDBRANCH  29  31
ENDBRANCH  26  29
ENDBRANCH  22  23
ENDBRANCH   8  22
TORSDOF 9
