REMARK  Name = ZINC02202982
REMARK  13 active torsions:
REMARK  status: ('A' for Active; 'I' for Inactive)
REMARK    1  A    between atoms: C_1  and  C_2
REMARK    2  A    between atoms: C_2  and  O_3
REMARK    3  A    between atoms: O_3  and  C_4
REMARK    4  A    between atoms: C_6  and  C_11
REMARK    5  A    between atoms: C_9  and  O_10
REMARK    6  A    between atoms: C_14  and  C_31
REMARK    7  A    between atoms: N_21  and  C_22
REMARK    8  A    between atoms: C_22  and  C_23
REMARK    9  A    between atoms: C_26  and  O_29
REMARK   10  A    between atoms: O_29  and  C_30
REMARK   11  A    between atoms: C_33  and  C_39
REMARK   12  A    between atoms: C_35  and  C_38
REMARK   13  A    between atoms: C_36  and  O_37
REMARK                            x       y       z     vdW  Elec       q    Type
REMARK                         _______ _______ _______ _____ _____    ______ ____
ROOT
ATOM      1  C   UNL     1       0.215  -4.982   0.020  0.00  0.00    +0.142 C 
ATOM      2  C   UNL     1       0.863  -5.314  -1.297  0.00  0.00    +0.035 A 
ATOM      3  C   UNL     1       1.465  -4.841  -2.467  0.00  0.00    +0.102 A 
ATOM      4  N   UNL     1       1.793  -5.891  -3.195  0.00  0.00    -0.173 NA
ATOM      5  N   UNL     1       1.458  -6.979  -2.599  0.00  0.00    -0.272 N 
ATOM      6  H   UNL     1       1.603  -7.873  -2.948  0.00  0.00    +0.189 HD
ATOM      7  C   UNL     1       0.868  -6.692  -1.401  0.00  0.00    +0.126 A 
ATOM      8  C   UNL     1       0.246  -7.253  -0.197  0.00  0.00    +0.266 C 
ATOM      9  O   UNL     1       0.098  -8.441   0.019  0.00  0.00    -0.268 OA
ATOM     10  N   UNL     1      -0.137  -6.267   0.637  0.00  0.00    -0.281 N 
ENDROOT
BRANCH   3  11
ATOM     11  C   UNL     1       1.692  -3.419  -2.826  0.00  0.00    +0.044 A 
ATOM     12  C   UNL     1       1.408  -2.412  -1.906  0.00  0.00    +0.017 A 
ATOM     13  C   UNL     1       1.621  -1.091  -2.244  0.00  0.00    -0.049 A 
ATOM     14  C   UNL     1       2.116  -0.762  -3.493  0.00  0.00    +0.010 A 
ATOM     15  C   UNL     1       2.400  -1.753  -4.413  0.00  0.00    -0.008 A 
ATOM     16  C   UNL     1       2.197  -3.084  -4.085  0.00  0.00    +0.129 A 
ATOM     17  C   UNL     1       2.938  -1.387  -5.773  0.00  0.00    +0.047 C 
ATOM     18  C   UNL     1       1.313  -0.002  -1.248  0.00  0.00    +0.044 C 
BRANCH  16  19
ATOM     19  O   UNL     1       2.482  -4.060  -4.986  0.00  0.00    -0.506 OA
ATOM     20  H   UNL     1       1.741  -4.291  -5.564  0.00  0.00    +0.292 HD
ENDBRANCH  16  19
ENDBRANCH   3  11
BRANCH   1  23
ATOM     21  C   UNL     1      -3.225  -3.929  -1.133  0.00  0.00    +0.162 A 
ATOM     22  C   UNL     1      -2.083  -4.685  -0.925  0.00  0.00    +0.055 A 
ATOM     23  C   UNL     1      -1.026  -4.158  -0.206  0.00  0.00    -0.019 A 
ATOM     24  C   UNL     1      -1.106  -2.877   0.307  0.00  0.00    +0.009 A 
ATOM     25  C   UNL     1      -2.243  -2.117   0.103  0.00  0.00    +0.049 A 
ATOM     26  C   UNL     1      -3.303  -2.637  -0.622  0.00  0.00    +0.158 A 
BRANCH  26  27
ATOM     27  O   UNL     1      -4.420  -1.889  -0.829  0.00  0.00    -0.503 OA
ATOM     28  H   UNL     1      -5.093  -1.989  -0.142  0.00  0.00    +0.292 HD
ENDBRANCH  26  27
BRANCH  21  29
ATOM     29  O   UNL     1      -4.265  -4.446  -1.841  0.00  0.00    -0.489 OA
BRANCH  29  31
ATOM     30  C   UNL     1      -5.316  -6.118  -3.233  0.00  0.00    +0.048 C 
ATOM     31  C   UNL     1      -4.075  -5.737  -2.423  0.00  0.00    +0.226 C 
ENDBRANCH  29  31
ENDBRANCH  21  29
ENDBRANCH   1  23
BRANCH  10  32
ATOM     32  C   UNL     1      -0.791  -6.445   1.936  0.00  0.00    +0.144 C 
BRANCH  32  33
ATOM     33  C   UNL     1      -2.286  -6.463   1.746  0.00  0.00    -0.030 A 
ATOM     34  C   UNL     1      -3.003  -5.282   1.800  0.00  0.00    +0.009 A 
ATOM     35  C   UNL     1      -4.374  -5.296   1.627  0.00  0.00    +0.046 A 
ATOM     36  C   UNL     1      -5.031  -6.496   1.399  0.00  0.00    +0.120 A 
ATOM     37  C   UNL     1      -4.309  -7.680   1.345  0.00  0.00    +0.046 A 
ATOM     38  C   UNL     1      -2.938  -7.660   1.513  0.00  0.00    +0.009 A 
BRANCH  36  39
ATOM     39  O   UNL     1      -6.379  -6.513   1.229  0.00  0.00    -0.495 OA
ATOM     40  C   UNL     1      -6.988  -7.785   0.998  0.00  0.00    +0.277 C 
ENDBRANCH  36  39
ENDBRANCH  32  33
ENDBRANCH  10  32
TORSDOF 9
