REMARK  Name = ZINC08756465
REMARK  9 active torsions:
REMARK  status: ('A' for Active; 'I' for Inactive)
REMARK    1  A    between atoms: C_1  and  C_2
REMARK    2  A    between atoms: C_3  and  C_16
REMARK    3  A    between atoms: C_4  and  C_15
REMARK    4  A    between atoms: N_5  and  C_7
REMARK    5  A    between atoms: C_16  and  N_51
REMARK    6  A    between atoms: C_17  and  N_51
REMARK    7  A    between atoms: C_18  and  C_19
REMARK    8  A    between atoms: C_18  and  N_51
REMARK    9  A    between atoms: C_21  and  C_24
REMARK                            x       y       z     vdW  Elec       q    Type
REMARK                         _______ _______ _______ _____ _____    ______ ____
ROOT
ATOM      1  C   UNL     1      -4.380  -2.403   0.401  0.00  0.00    -0.039 C 
ENDROOT
BRANCH   1   4
ATOM      2  C   UNL     1      -4.326  -0.889  -2.382  0.00  0.00    +0.068 C 
ATOM      3  C   UNL     1      -3.224  -0.889  -1.353  0.00  0.00    +0.062 A 
ATOM      4  C   UNL     1      -3.249  -1.558  -0.125  0.00  0.00    -0.021 A 
ATOM      5  C   UNL     1      -2.079  -1.312   0.507  0.00  0.00    +0.038 A 
ATOM      6  N   UNL     1      -1.339  -0.515  -0.293  0.00  0.00    -0.263 N 
ATOM      7  N   UNL     1      -2.082  -0.259  -1.453  0.00  0.00    -0.176 NA
ATOM      8  C   UNL     1      -1.673  -1.834   1.861  0.00  0.00    +0.065 C 
BRANCH   6   9
ATOM      9  C   UNL     1       0.002  -0.004   0.002  0.00  0.00    +0.130 C 
ATOM     10  C   UNL     1      -0.019   1.534   0.011  0.00  0.00    +0.051 C 
ATOM     11  C   UNL     1       1.429   2.081  -0.000  0.00  0.00    +0.168 C 
ATOM     12  S   UNL     1       2.358   0.748  -0.862  0.00  0.00    -0.029 S 
ATOM     13  O   UNL     1       3.316   0.199   0.034  0.00  0.00    -0.174 OA
ATOM     14  O   UNL     1       2.780   1.225  -2.132  0.00  0.00    -0.174 OA
ATOM     15  C   UNL     1       0.996  -0.469  -1.101  0.00  0.00    +0.192 C 
ENDBRANCH   6   9
ENDBRANCH   1   4
BRANCH   1  17
ATOM     16  C   UNL     1      -5.974  -0.583   0.299  0.00  0.00    -0.095 C 
ATOM     17  N   UNL     1      -5.290  -1.545   1.189  0.00  0.00    +0.386 N 
ATOM     18  H   UNL     1      -4.740  -1.024   1.883  0.00  0.00    -0.081 HD
BRANCH  17  19
ATOM     19  C   UNL     1      -6.287  -2.378   1.894  0.00  0.00    +0.022 C 
BRANCH  19  20
ATOM     20  C   UNL     1      -7.056  -1.509   2.855  0.00  0.00    +0.211 A 
ATOM     21  N   UNL     1      -8.165  -0.861   2.601  0.00  0.00    -0.193 NA
ATOM     22  C   UNL     1      -8.486  -0.224   3.751  0.00  0.00    +0.202 A 
ATOM     23  N   UNL     1      -7.556  -0.514   4.625  0.00  0.00    -0.056 NA
ATOM     24  O   UNL     1      -6.730  -1.249   4.125  0.00  0.00    -0.340 OA
BRANCH  22  25
ATOM     25  C   UNL     1      -9.666   0.643   3.977  0.00  0.00    +0.029 A 
ATOM     26  C   UNL     1      -9.883   1.245   5.215  0.00  0.00    +0.019 A 
ATOM     27  C   UNL     1     -10.977   2.027   5.349  0.00  0.00    +0.046 A 
ATOM     28  S   UNL     1     -11.725   1.917   3.734  0.00  0.00    -0.104 S 
ATOM     29  C   UNL     1     -10.570   0.869   2.979  0.00  0.00    +0.057 A 
ENDBRANCH  22  25
ENDBRANCH  19  20
ENDBRANCH  17  19
ENDBRANCH   1  17
TORSDOF 6
