REMARK  Name = ZINC66925608
REMARK  9 active torsions:
REMARK  status: ('A' for Active; 'I' for Inactive)
REMARK    1  A    between atoms: C_1  and  C_2
REMARK    2  A    between atoms: C_3  and  C_9
REMARK    3  A    between atoms: C_4  and  C_8
REMARK    4  A    between atoms: N_5  and  C_7
REMARK    5  A    between atoms: C_9  and  C_11
REMARK    6  A    between atoms: C_9  and  N_12
REMARK    7  A    between atoms: N_15  and  C_16
REMARK    8  A    between atoms: C_16  and  C_17
REMARK    9  A    between atoms: C_17  and  O_27
REMARK                            x       y       z     vdW  Elec       q    Type
REMARK                         _______ _______ _______ _____ _____    ______ ____
ROOT
ATOM      1  N   UNL     1      -0.378   1.029  -2.821  0.00  0.00    -0.293 N 
ATOM      2  C   UNL     1      -1.031   1.205  -3.986  0.00  0.00    +0.300 C 
ATOM      3  O   UNL     1      -0.905   0.394  -4.883  0.00  0.00    -0.253 OA
ATOM      4  N   UNL     1      -1.825   2.281  -4.158  0.00  0.00    -0.296 N 
ATOM      5  H   UNL     1      -0.478   1.677  -2.106  0.00  0.00    +0.151 HD
ATOM      6  H   UNL     1      -1.926   2.928  -3.443  0.00  0.00    +0.150 HD
ENDROOT
BRANCH   1   7
ATOM      7  C   UNL     1       0.485  -0.140  -2.635  0.00  0.00    +0.105 C 
ATOM      8  C   UNL     1       1.891   0.176  -3.148  0.00  0.00    +0.033 C 
BRANCH   7  11
ATOM      9  C   UNL     1       0.215  -3.043  -1.394  0.00  0.00    +0.068 C 
ATOM     10  C   UNL     1       0.433  -1.768  -0.621  0.00  0.00    +0.065 A 
ATOM     11  C   UNL     1       0.551  -0.487  -1.170  0.00  0.00    +0.016 A 
ATOM     12  C   UNL     1       0.737   0.386  -0.152  0.00  0.00    +0.041 A 
ATOM     13  N   UNL     1       0.736  -0.318   0.999  0.00  0.00    -0.271 N 
ATOM     14  N   UNL     1       0.538  -1.667   0.679  0.00  0.00    -0.176 NA
ATOM     15  C   UNL     1       0.906   0.232   2.346  0.00  0.00    +0.172 C 
ATOM     16  C   UNL     1       0.914   1.877  -0.282  0.00  0.00    +0.065 C 
ENDBRANCH   7  11
ENDBRANCH   1   7
BRANCH   4  17
ATOM     17  C   UNL     1      -2.535   2.473  -5.425  0.00  0.00    +0.145 C 
BRANCH  17  18
ATOM     18  C   UNL     1      -3.450   3.695  -5.317  0.00  0.00    +0.107 C 
ATOM     19  C   UNL     1      -2.612   4.921  -4.960  0.00  0.00    +0.041 C 
ATOM     20  C   UNL     1      -3.502   6.164  -5.070  0.00  0.00    +0.008 C 
ATOM     21  C   UNL     1      -3.811   6.406  -6.546  0.00  0.00    +0.035 C 
ATOM     22  C   UNL     1      -4.328   5.147  -7.192  0.00  0.00    -0.041 A 
ATOM     23  C   UNL     1      -4.159   3.902  -6.630  0.00  0.00    -0.011 A 
ATOM     24  C   UNL     1      -4.655   2.780  -7.280  0.00  0.00    +0.007 A 
ATOM     25  C   UNL     1      -5.319   2.904  -8.484  0.00  0.00    +0.000 A 
ATOM     26  C   UNL     1      -5.492   4.154  -9.047  0.00  0.00    +0.000 A 
ATOM     27  C   UNL     1      -4.998   5.270  -8.403  0.00  0.00    +0.004 A 
BRANCH  18  28
ATOM     28  O   UNL     1      -4.417   3.470  -4.289  0.00  0.00    -0.382 OA
ATOM     29  H   UNL     1      -4.982   2.701  -4.442  0.00  0.00    +0.211 HD
ENDBRANCH  18  28
ENDBRANCH  17  18
ENDBRANCH   4  17
TORSDOF 5
