REMARK  Name = ZINC39040553
REMARK  8 active torsions:
REMARK  status: ('A' for Active; 'I' for Inactive)
REMARK    1  A    between atoms: C_1  and  O_2
REMARK    2  A    between atoms: O_2  and  C_3
REMARK    3  A    between atoms: C_7  and  N_17
REMARK    4  A    between atoms: C_8  and  C_13
REMARK    5  A    between atoms: C_13  and  O_15
REMARK    6  A    between atoms: O_15  and  C_16
REMARK    7  A    between atoms: C_18  and  C_20
REMARK    8  A    between atoms: C_21  and  C_22
REMARK                            x       y       z     vdW  Elec       q    Type
REMARK                         _______ _______ _______ _____ _____    ______ ____
ROOT
ATOM      1  C   UNL     1      -1.177  -0.920   1.036  0.00  0.00    +0.122 A 
ATOM      2  C   UNL     1      -2.341  -0.140   1.104  0.00  0.00    +0.046 A 
ATOM      3  C   UNL     1      -3.553  -0.646   0.775  0.00  0.00    +0.015 A 
ATOM      4  C   UNL     1      -3.662  -1.993   0.353  0.00  0.00    +0.018 A 
ATOM      5  C   UNL     1      -4.744  -2.764  -0.036  0.00  0.00    +0.053 C 
ATOM      6  C   UNL     1      -4.181  -4.128  -0.367  0.00  0.00    +0.234 C 
ATOM      7  N   UNL     1      -2.736  -4.037  -0.131  0.00  0.00    -0.367 N 
ATOM      8  C   UNL     1      -2.443  -2.818   0.280  0.00  0.00    +0.048 A 
ATOM      9  C   UNL     1      -1.210  -2.221   0.633  0.00  0.00    +0.071 A 
ATOM     10  H   UNL     1      -2.099  -4.758  -0.256  0.00  0.00    +0.161 HD
ENDROOT
BRANCH   5  11
ATOM     11  N   UNL     1      -6.045  -2.374  -0.106  0.00  0.00    -0.281 N 
ATOM     12  C   UNL     1      -7.010  -3.287  -0.337  0.00  0.00    +0.261 C 
ATOM     13  O   UNL     1      -6.731  -4.471  -0.376  0.00  0.00    -0.269 OA
ATOM     14  H   UNL     1      -6.279  -1.440   0.010  0.00  0.00    +0.155 HD
BRANCH  12  15
ATOM     15  C   UNL     1      -8.346  -2.868  -0.533  0.00  0.00    +0.123 C 
ATOM     16  C   UNL     1      -9.319  -3.788  -0.766  0.00  0.00    +0.085 C 
ATOM     17 CL   UNL     1      -8.901  -5.461  -0.971  0.00  0.00    -0.080 Cl
ATOM     18 CL   UNL     1      -8.744  -1.179  -0.478  0.00  0.00    -0.077 Cl
BRANCH  16  19
ATOM     19  C   UNL     1     -10.675  -3.382  -0.841  0.00  0.00    +0.090 C 
ATOM     20  C   UNL     1     -11.647  -4.302  -0.929  0.00  0.00    +0.126 C 
ATOM     21 CL   UNL     1     -11.263  -5.988  -0.771  0.00  0.00    -0.069 Cl
ATOM     22 CL   UNL     1     -13.288  -3.808  -1.202  0.00  0.00    -0.069 Cl
ATOM     23 CL   UNL     1     -11.078  -1.694  -0.819  0.00  0.00    -0.080 Cl
ENDBRANCH  16  19
ENDBRANCH  12  15
ENDBRANCH   5  11
BRANCH   1  25
ATOM     24  C   UNL     1      -0.006   1.003   1.792  0.00  0.00    +0.277 C 
ATOM     25  O   UNL     1       0.012  -0.364   1.376  0.00  0.00    -0.495 OA
ENDBRANCH   1  25
BRANCH   6  26
ATOM     26  C   UNL     1      -4.452  -4.465  -1.810  0.00  0.00    +0.335 C 
ATOM     27  O   UNL     1      -3.571  -4.359  -2.631  0.00  0.00    -0.248 OA
BRANCH  26  28
ATOM     28  O   UNL     1      -5.671  -4.884  -2.184  0.00  0.00    -0.466 OA
ATOM     29  C   UNL     1      -5.857  -5.186  -3.568  0.00  0.00    +0.280 C 
ENDBRANCH  26  28
ENDBRANCH   6  26
TORSDOF 6
