REMARK  Name = ZINC08965153
REMARK  9 active torsions:
REMARK  status: ('A' for Active; 'I' for Inactive)
REMARK    1  A    between atoms: C_1  and  C_2
REMARK    2  A    between atoms: C_2  and  O_3
REMARK    3  A    between atoms: O_3  and  C_4
REMARK    4  A    between atoms: C_4  and  C_6
REMARK    5  A    between atoms: C_13  and  C_15
REMARK    6  A    between atoms: C_15  and  N_16
REMARK    7  A    between atoms: C_17  and  C_33
REMARK    8  A    between atoms: N_21  and  C_27
REMARK    9  A    between atoms: C_25  and  C_26
REMARK                            x       y       z     vdW  Elec       q    Type
REMARK                         _______ _______ _______ _____ _____    ______ ____
ROOT
ATOM      1  N   UNL     1      -4.101   5.876  -5.795  0.00  0.00    -0.338 N 
ATOM      2  C   UNL     1      -4.022   7.216  -6.017  0.00  0.00    +0.026 A 
ATOM      3  C   UNL     1      -5.264   7.746  -5.895  0.00  0.00    +0.028 A 
ATOM      4  C   UNL     1      -5.860   9.079  -6.005  0.00  0.00    +0.143 A 
ATOM      5  N   UNL     1      -7.136   9.233  -5.819  0.00  0.00    -0.171 NA
ATOM      6  N   UNL     1      -8.000   8.185  -5.512  0.00  0.00    -0.196 N 
ATOM      7  C   UNL     1      -7.582   6.909  -5.381  0.00  0.00    +0.281 A 
ATOM      8  O   UNL     1      -8.370   6.021  -5.112  0.00  0.00    -0.265 OA
ATOM      9  C   UNL     1      -6.160   6.614  -5.570  0.00  0.00    +0.071 A 
ATOM     10  C   UNL     1      -5.373   5.508  -5.533  0.00  0.00    +0.029 A 
ATOM     11  C   UNL     1      -5.840   4.105  -5.244  0.00  0.00    +0.064 C 
ATOM     12  C   UNL     1      -2.766   7.983  -6.344  0.00  0.00    +0.064 C 
ENDROOT
BRANCH   6  13
ATOM     13  C   UNL     1      -9.359   8.467  -5.332  0.00  0.00    +0.069 A 
ATOM     14  C   UNL     1     -10.320   7.707  -5.986  0.00  0.00    +0.028 A 
ATOM     15  C   UNL     1     -11.660   7.985  -5.803  0.00  0.00    +0.002 A 
ATOM     16  C   UNL     1     -12.045   9.026  -4.977  0.00  0.00    +0.000 A 
ATOM     17  C   UNL     1     -11.091   9.788  -4.329  0.00  0.00    +0.002 A 
ATOM     18  C   UNL     1      -9.749   9.512  -4.503  0.00  0.00    +0.028 A 
ENDBRANCH   6  13
BRANCH   1  19
ATOM     19  C   UNL     1      -2.961   4.957  -5.839  0.00  0.00    +0.217 C 
BRANCH  19  26
ATOM     20  C   UNL     1      -0.579   2.477  -2.548  0.00  0.00    +0.115 C 
ATOM     21  C   UNL     1       0.157   1.703  -3.644  0.00  0.00    +0.018 C 
ATOM     22  C   UNL     1      -0.619   1.816  -4.959  0.00  0.00    +0.020 C 
ATOM     23  C   UNL     1      -0.697   3.288  -5.376  0.00  0.00    +0.108 C 
ATOM     24  N   UNL     1      -1.271   4.064  -4.268  0.00  0.00    -0.299 N 
ATOM     25  C   UNL     1      -0.656   3.957  -2.938  0.00  0.00    +0.122 C 
ATOM     26  C   UNL     1      -2.341   4.858  -4.468  0.00  0.00    +0.235 C 
ATOM     27  O   UNL     1      -2.807   5.493  -3.546  0.00  0.00    -0.274 OA
BRANCH  20  28
ATOM     28  C   UNL     1       0.169   2.339  -1.247  0.00  0.00    +0.312 C 
ATOM     29  O   UNL     1       1.184   1.685  -1.200  0.00  0.00    -0.250 OA
BRANCH  28  30
ATOM     30  O   UNL     1      -0.293   2.942  -0.140  0.00  0.00    -0.465 OA
BRANCH  30  32
ATOM     31  C   UNL     1      -0.199   3.519   2.224  0.00  0.00    +0.048 C 
ATOM     32  C   UNL     1       0.477   2.765   1.077  0.00  0.00    +0.229 C 
ENDBRANCH  30  32
ENDBRANCH  28  30
ENDBRANCH  20  28
ENDBRANCH  19  26
ENDBRANCH   1  19
TORSDOF 6
