REMARK  Name = ZINC15628649
REMARK  4 active torsions:
REMARK  status: ('A' for Active; 'I' for Inactive)
REMARK    1  A    between atoms: C_5  and  C_7
REMARK    2  A    between atoms: N_9  and  N_10
REMARK    3  A    between atoms: C_11  and  C_13
REMARK    4  A    between atoms: N_18  and  C_20
REMARK                            x       y       z     vdW  Elec       q    Type
REMARK                         _______ _______ _______ _____ _____    ______ ____
ROOT
ATOM      1  N   UNL     1      -1.437   0.886  -3.487  0.00  0.00    -0.234 N 
ATOM      2  C   UNL     1      -0.801   0.608  -2.332  0.00  0.00    +0.234 C 
ATOM      3  O   UNL     1      -0.231  -0.454  -2.193  0.00  0.00    -0.274 OA
ATOM      4  H   UNL     1      -1.893   1.735  -3.598  0.00  0.00    +0.173 HD
ENDROOT
BRANCH   2   5
ATOM      5  C   UNL     1      -0.798   1.617  -1.212  0.00  0.00    +0.103 C 
ATOM      6  C   UNL     1      -2.216   1.792  -0.622  0.00  0.00    +0.110 C 
ATOM      7  C   UNL     1      -1.981   1.975   0.862  0.00  0.00    +0.221 C 
ATOM      8  O   UNL     1      -2.795   2.417   1.645  0.00  0.00    -0.275 OA
ATOM      9  N   UNL     1      -0.737   1.577   1.186  0.00  0.00    -0.269 N 
ATOM     10  C   UNL     1      -0.013   1.086   0.008  0.00  0.00    +0.127 C 
BRANCH   9  11
ATOM     11  C   UNL     1      -0.201   1.626   2.479  0.00  0.00    +0.055 A 
ATOM     12  C   UNL     1       0.474   2.760   2.910  0.00  0.00    +0.025 A 
ATOM     13  C   UNL     1       1.001   2.805   4.186  0.00  0.00    +0.002 A 
ATOM     14  C   UNL     1       0.857   1.723   5.034  0.00  0.00    +0.002 A 
ATOM     15  C   UNL     1       0.185   0.592   4.609  0.00  0.00    +0.022 A 
ATOM     16  C   UNL     1      -0.350   0.542   3.335  0.00  0.00    +0.062 A 
ATOM     17 CL   UNL     1      -1.199  -0.876   2.804  0.00  0.00    -0.082 Cl
ENDBRANCH   9  11
ENDBRANCH   2   5
BRANCH   1  20
ATOM     18  C   UNL     1      -2.076   0.226  -5.684  0.00  0.00    +0.261 C 
ATOM     19  O   UNL     1      -2.647   1.290  -5.822  0.00  0.00    -0.269 OA
ATOM     20  N   UNL     1      -1.440  -0.052  -4.528  0.00  0.00    -0.230 N 
ATOM     21  H   UNL     1      -0.984  -0.901  -4.418  0.00  0.00    +0.173 HD
BRANCH  18  26
ATOM     22  C   UNL     1      -1.430  -2.904  -7.655  0.00  0.00    +0.001 A 
ATOM     23  C   UNL     1      -2.083  -2.616  -8.840  0.00  0.00    +0.001 A 
ATOM     24  C   UNL     1      -2.735  -1.407  -9.002  0.00  0.00    +0.016 A 
ATOM     25  C   UNL     1      -2.741  -0.480  -7.978  0.00  0.00    +0.030 A 
ATOM     26  C   UNL     1      -2.078  -0.763  -6.782  0.00  0.00    +0.052 A 
ATOM     27  C   UNL     1      -1.423  -1.986  -6.626  0.00  0.00    +0.014 A 
ATOM     28 BR   UNL     1      -3.639   1.169  -8.198  0.00  0.00    -0.050 Br
ENDBRANCH  18  26
ENDBRANCH   1  20
TORSDOF 4
