REMARK  Name = ZINC33618555
REMARK  15 active torsions:
REMARK  status: ('A' for Active; 'I' for Inactive)
REMARK    1  A    between atoms: C_1  and  C_2
REMARK    2  A    between atoms: C_5  and  C_7
REMARK    3  A    between atoms: C_7  and  N_8
REMARK    4  A    between atoms: N_8  and  C_9
REMARK    5  A    between atoms: C_9  and  C_10
REMARK    6  A    between atoms: C_10  and  O_11
REMARK    7  A    between atoms: O_11  and  C_12
REMARK    8  A    between atoms: C_13  and  C_15
REMARK    9  A    between atoms: C_15  and  N_16
REMARK   10  A    between atoms: N_16  and  C_17
REMARK   11  A    between atoms: N_16  and  S_20
REMARK   12  A    between atoms: C_17  and  C_18
REMARK   13  A    between atoms: C_17  and  C_19
REMARK   14  A    between atoms: S_20  and  C_23
REMARK   15  A    between atoms: C_27  and  N_29
REMARK                            x       y       z     vdW  Elec       q    Type
REMARK                         _______ _______ _______ _____ _____    ______ ____
ROOT
ATOM      1  N   UNL     1      -3.796   0.304   3.938  0.00  0.00    -0.165 NA
ENDROOT
BRANCH   1   2
ATOM      2  C   UNL     1      -5.226   0.152   3.662  0.00  0.00    +0.074 C 
ATOM      3  C   UNL     1      -5.452   0.115   2.149  0.00  0.00    +0.025 C 
ATOM      4  C   UNL     1      -5.730  -1.151   4.285  0.00  0.00    +0.025 C 
ENDBRANCH   1   2
BRANCH   1   5
ATOM      5  S   UNL     1      -3.251   1.618   4.787  0.00  0.00    +0.062 S 
ATOM      6  O   UNL     1      -4.347   2.082   5.564  0.00  0.00    -0.153 OA
ATOM      7  O   UNL     1      -2.011   1.240   5.369  0.00  0.00    -0.153 OA
BRANCH   5   8
ATOM      8  C   UNL     1      -2.893   2.883   3.615  0.00  0.00    +0.108 A 
ATOM      9  C   UNL     1      -1.627   2.978   3.066  0.00  0.00    +0.030 A 
ATOM     10  C   UNL     1      -1.347   3.968   2.143  0.00  0.00    +0.024 A 
ATOM     11  C   UNL     1      -2.329   4.870   1.776  0.00  0.00    +0.071 A 
ATOM     12  C   UNL     1      -3.594   4.778   2.330  0.00  0.00    +0.146 A 
ATOM     13  C   UNL     1      -3.875   3.784   3.249  0.00  0.00    +0.062 A 
ATOM     14 CL   UNL     1      -1.976   6.117   0.621  0.00  0.00    -0.081 Cl
BRANCH  12  15
ATOM     15  N   UNL     1      -4.646   5.742   1.938  0.00  0.00    +0.058 N 
ATOM     16  O   UNL     1      -5.759   5.661   2.425  0.00  0.00    -0.126 OA
ATOM     17  O   UNL     1      -4.398   6.618   1.128  0.00  0.00    -0.126 OA
ENDBRANCH  12  15
ENDBRANCH   5   8
ENDBRANCH   1   5
BRANCH   1  18
ATOM     18  C   UNL     1      -2.846  -0.706   3.464  0.00  0.00    +0.205 C 
BRANCH  18  20
ATOM     19  N   UNL     1      -1.587  -1.200   1.393  0.00  0.00    -0.291 N 
ATOM     20  C   UNL     1      -2.457  -0.399   2.041  0.00  0.00    +0.232 C 
ATOM     21  O   UNL     1      -2.926   0.567   1.478  0.00  0.00    -0.274 OA
BRANCH  19  22
ATOM     22  C   UNL     1      -1.208  -0.902   0.009  0.00  0.00    +0.182 C 
BRANCH  22  27
ATOM     23  C   UNL     1       1.647   3.256   0.004  0.00  0.00    +0.086 C 
ATOM     24  C   UNL     1       1.244   1.804  -0.000  0.00  0.00    +0.102 A 
ATOM     25  C   UNL     1       2.084   0.754  -0.014  0.00  0.00    +0.045 A 
ATOM     26  C   UNL     1       1.284  -0.412  -0.012  0.00  0.00    +0.046 A 
ATOM     27  C   UNL     1       0.002  -0.004   0.002  0.00  0.00    +0.122 A 
ATOM     28  O   UNL     1      -0.016   1.339   0.009  0.00  0.00    -0.463 OA
ENDBRANCH  22  27
ENDBRANCH  19  22
BRANCH  19  29
ATOM     29  C   UNL     1      -1.021  -2.368   2.072  0.00  0.00    +0.136 C 
BRANCH  29  30
ATOM     30  C   UNL     1       0.273  -1.966   2.783  0.00  0.00    +0.178 C 
BRANCH  30  31
ATOM     31  O   UNL     1      -0.024  -1.032   3.822  0.00  0.00    -0.381 OA
ATOM     32  C   UNL     1       1.122  -0.591   4.553  0.00  0.00    +0.194 C 
ENDBRANCH  30  31
ENDBRANCH  29  30
ENDBRANCH  19  29
ENDBRANCH  18  20
ENDBRANCH   1  18
TORSDOF 11
