REMARK  Name = ZINC09126235
REMARK  9 active torsions:
REMARK  status: ('A' for Active; 'I' for Inactive)
REMARK    1  A    between atoms: C_1  and  C_2
REMARK    2  A    between atoms: C_2  and  N_3
REMARK    3  A    between atoms: C_7  and  S_23
REMARK    4  A    between atoms: C_11  and  S_12
REMARK    5  A    between atoms: S_12  and  C_13
REMARK    6  A    between atoms: C_13  and  C_14
REMARK    7  A    between atoms: N_16  and  C_17
REMARK    8  A    between atoms: C_17  and  C_18
REMARK    9  A    between atoms: S_23  and  N_26
REMARK                            x       y       z     vdW  Elec       q    Type
REMARK                         _______ _______ _______ _____ _____    ______ ____
ROOT
ATOM      1  N   UNL     1       1.166  -1.521  -2.019  0.00  0.00    -0.319 N 
ATOM      2  C   UNL     1       1.834  -1.316  -3.215  0.00  0.00    +0.070 A 
ATOM      3  C   UNL     1       2.381  -2.162  -4.167  0.00  0.00    +0.030 A 
ATOM      4  C   UNL     1       3.005  -1.634  -5.279  0.00  0.00    +0.030 A 
ATOM      5  C   UNL     1       3.088  -0.260  -5.451  0.00  0.00    +0.108 A 
ATOM      6  C   UNL     1       2.550   0.595  -4.516  0.00  0.00    +0.058 A 
ATOM      7  C   UNL     1       1.915   0.076  -3.384  0.00  0.00    +0.092 A 
ATOM      8  N   UNL     1       1.304   0.646  -2.313  0.00  0.00    -0.222 NA
ATOM      9  C   UNL     1       0.859  -0.290  -1.510  0.00  0.00    +0.170 A 
ENDROOT
BRANCH   5  10
ATOM     10  S   UNL     1       3.888   0.396  -6.878  0.00  0.00    +0.061 S 
ATOM     11  O   UNL     1       4.315   1.708  -6.537  0.00  0.00    -0.153 OA
ATOM     12  O   UNL     1       4.788  -0.604  -7.334  0.00  0.00    -0.153 OA
BRANCH  10  13
ATOM     13  N   UNL     1       2.733   0.564  -8.052  0.00  0.00    -0.172 NA
ATOM     14  C   UNL     1       2.449  -0.528  -8.997  0.00  0.00    +0.137 C 
ATOM     15  C   UNL     1       0.931  -0.769  -9.008  0.00  0.00    +0.177 C 
ATOM     16  O   UNL     1       0.261   0.470  -9.251  0.00  0.00    -0.377 OA
ATOM     17  C   UNL     1       0.474   1.459  -8.240  0.00  0.00    +0.177 C 
ATOM     18  C   UNL     1       1.965   1.812  -8.186  0.00  0.00    +0.137 C 
ENDBRANCH  10  13
ENDBRANCH   5  10
BRANCH   1  20
ATOM     19  C   UNL     1      -0.523  -3.287  -1.911  0.00  0.00    +0.027 C 
ATOM     20  C   UNL     1       0.845  -2.816  -1.413  0.00  0.00    +0.121 C 
ENDBRANCH   1  20
BRANCH   9  21
ATOM     21  S   UNL     1       0.002  -0.004   0.002  0.00  0.00    -0.078 S 
BRANCH  21  22
ATOM     22  C   UNL     1      -0.022   1.806   0.012  0.00  0.00    +0.173 C 
BRANCH  22  23
ATOM     23  C   UNL     1      -0.728   2.292   1.252  0.00  0.00    +0.224 C 
ATOM     24  O   UNL     1      -1.170   1.493   2.050  0.00  0.00    -0.275 OA
ATOM     25  N   UNL     1      -0.867   3.614   1.474  0.00  0.00    -0.308 N 
ATOM     26  H   UNL     1      -0.513   4.253   0.835  0.00  0.00    +0.149 HD
BRANCH  25  27
ATOM     27  C   UNL     1      -1.553   4.086   2.679  0.00  0.00    +0.178 C 
BRANCH  27  28
ATOM     28  C   UNL     1      -1.573   5.593   2.687  0.00  0.00    +0.122 A 
ATOM     29  C   UNL     1      -2.534   6.370   2.155  0.00  0.00    +0.046 A 
ATOM     30  C   UNL     1      -2.152   7.711   2.388  0.00  0.00    +0.041 A 
ATOM     31  C   UNL     1      -0.981   7.674   3.049  0.00  0.00    +0.195 A 
ATOM     32  O   UNL     1      -0.638   6.388   3.232  0.00  0.00    -0.466 OA
ENDBRANCH  27  28
ENDBRANCH  25  27
ENDBRANCH  22  23
ENDBRANCH  21  22
ENDBRANCH   9  21
TORSDOF 8
