REMARK  Name = ZINC58160779
REMARK  8 active torsions:
REMARK  status: ('A' for Active; 'I' for Inactive)
REMARK    1  A    between atoms: C_1  and  C_2
REMARK    2  A    between atoms: C_2  and  C_3
REMARK    3  A    between atoms: C_3  and  C_27
REMARK    4  A    between atoms: N_6  and  C_10
REMARK    5  A    between atoms: C_10  and  N_11
REMARK    6  A    between atoms: C_17  and  C_19
REMARK    7  A    between atoms: C_22  and  O_25
REMARK    8  A    between atoms: O_25  and  C_26
REMARK                            x       y       z     vdW  Elec       q    Type
REMARK                         _______ _______ _______ _____ _____    ______ ____
ROOT
ATOM      1  C   UNL     1       1.808   0.186  -1.193  0.00  0.00    +0.138 C 
ATOM      2  C   UNL     1       3.010   0.711  -0.433  0.00  0.00    +0.252 C 
ATOM      3  O   UNL     1       4.140   0.844  -0.851  0.00  0.00    -0.272 OA
ATOM      4  N   UNL     1       2.561   1.001   0.804  0.00  0.00    -0.210 N 
ATOM      5  C   UNL     1       1.256   0.735   0.930  0.00  0.00    +0.311 C 
ATOM      6  O   UNL     1       0.625   0.914   1.953  0.00  0.00    -0.252 OA
ATOM      7  N   UNL     1       0.719   0.247  -0.203  0.00  0.00    -0.281 N 
ATOM      8  H   UNL     1      -0.205  -0.014  -0.342  0.00  0.00    +0.152 HD
ENDROOT
BRANCH   1   9
ATOM      9  C   UNL     1       2.039  -1.234  -1.641  0.00  0.00    -0.015 A 
ATOM     10  C   UNL     1       2.568  -1.487  -2.893  0.00  0.00    +0.006 A 
ATOM     11  C   UNL     1       2.779  -2.790  -3.304  0.00  0.00    +0.000 A 
ATOM     12  C   UNL     1       2.463  -3.840  -2.462  0.00  0.00    +0.000 A 
ATOM     13  C   UNL     1       1.935  -3.587  -1.210  0.00  0.00    +0.000 A 
ATOM     14  C   UNL     1       1.728  -2.284  -0.797  0.00  0.00    +0.006 A 
ENDBRANCH   1   9
BRANCH   1  16
ATOM     15  C   UNL     1       1.319   2.527  -1.918  0.00  0.00    +0.007 C 
ATOM     16  C   UNL     1       1.496   1.083  -2.393  0.00  0.00    +0.037 C 
ENDBRANCH   1  16
BRANCH   4  17
ATOM     17  C   UNL     1       3.398   1.540   1.878  0.00  0.00    +0.205 C 
BRANCH  17  18
ATOM     18  N   UNL     1       3.376   3.008   1.826  0.00  0.00    -0.279 NA
ATOM     19  C   UNL     1       2.096   3.539   2.343  0.00  0.00    +0.086 C 
ATOM     20  C   UNL     1       2.121   5.057   2.593  0.00  0.00    +0.015 C 
ATOM     21  C   UNL     1       2.814   5.821   1.497  0.00  0.00    +0.001 C 
ATOM     22  C   UNL     1       4.308   5.975   1.863  0.00  0.00    +0.002 C 
ATOM     23  C   UNL     1       5.051   4.742   1.624  0.00  0.00    +0.024 C 
ATOM     24  C   UNL     1       4.538   3.566   2.475  0.00  0.00    +0.088 C 
BRANCH  24  25
ATOM     25  C   UNL     1       5.612   2.514   2.587  0.00  0.00    -0.030 A 
ATOM     26  C   UNL     1       6.247   2.053   1.449  0.00  0.00    +0.009 A 
ATOM     27  C   UNL     1       7.231   1.088   1.549  0.00  0.00    +0.046 A 
ATOM     28  C   UNL     1       7.582   0.583   2.792  0.00  0.00    +0.120 A 
ATOM     29  C   UNL     1       6.943   1.047   3.933  0.00  0.00    +0.046 A 
ATOM     30  C   UNL     1       5.963   2.016   3.828  0.00  0.00    +0.009 A 
BRANCH  28  31
ATOM     31  O   UNL     1       8.549  -0.366   2.893  0.00  0.00    -0.495 OA
ATOM     32  C   UNL     1       8.858  -0.841   4.205  0.00  0.00    +0.277 C 
ENDBRANCH  28  31
ENDBRANCH  24  25
ENDBRANCH  17  18
ENDBRANCH   4  17
TORSDOF 6
