REMARK  Name = ZINC46006126
REMARK  10 active torsions:
REMARK  status: ('A' for Active; 'I' for Inactive)
REMARK    1  A    between atoms: C_1  and  C_2
REMARK    2  A    between atoms: C_2  and  O_3
REMARK    3  A    between atoms: O_3  and  C_4
REMARK    4  A    between atoms: C_5  and  C_22
REMARK    5  A    between atoms: C_6  and  C_21
REMARK    6  A    between atoms: C_8  and  C_20
REMARK    7  A    between atoms: N_10  and  C_13
REMARK    8  A    between atoms: C_17  and  C_19
REMARK    9  A    between atoms: C_22  and  C_23
REMARK   10  A    between atoms: C_23  and  C_24
REMARK                            x       y       z     vdW  Elec       q    Type
REMARK                         _______ _______ _______ _____ _____    ______ ____
ROOT
ATOM      1  C   UNL     1      -1.572  -1.435  -0.395  0.00  0.00    +0.220 A 
ATOM      2  C   UNL     1      -2.873  -1.932  -0.460  0.00  0.00    +0.018 A 
ATOM      3  C   UNL     1      -3.078  -3.283  -0.527  0.00  0.00    -0.030 A 
ATOM      4  C   UNL     1      -1.957  -4.125  -0.528  0.00  0.00    +0.045 A 
ATOM      5  C   UNL     1      -1.772  -5.570  -0.586  0.00  0.00    +0.070 A 
ATOM      6  N   UNL     1      -0.492  -5.808  -0.555  0.00  0.00    -0.169 NA
ATOM      7  N   UNL     1       0.217  -4.605  -0.479  0.00  0.00    -0.214 N 
ATOM      8  C   UNL     1      -0.669  -3.560  -0.461  0.00  0.00    +0.167 A 
ATOM      9  N   UNL     1      -0.526  -2.240  -0.403  0.00  0.00    -0.193 NA
ATOM     10  C   UNL     1      -2.866  -6.604  -0.667  0.00  0.00    +0.068 C 
ATOM     11  C   UNL     1      -4.472  -3.851  -0.597  0.00  0.00    +0.045 C 
ENDROOT
BRANCH   7  12
ATOM     12  C   UNL     1       1.612  -4.487  -0.428  0.00  0.00    +0.068 A 
ATOM     13  C   UNL     1       2.242  -3.414  -1.045  0.00  0.00    +0.028 A 
ATOM     14  C   UNL     1       3.618  -3.300  -0.994  0.00  0.00    +0.002 A 
ATOM     15  C   UNL     1       4.367  -4.254  -0.329  0.00  0.00    +0.003 A 
ATOM     16  C   UNL     1       3.743  -5.323   0.286  0.00  0.00    -0.048 A 
ATOM     17  C   UNL     1       2.367  -5.439   0.244  0.00  0.00    +0.031 A 
ATOM     18  C   UNL     1       4.563  -6.360   1.009  0.00  0.00    +0.044 C 
ENDBRANCH   7  12
BRANCH   1  19
ATOM     19  O   UNL     1      -1.376  -0.095  -0.330  0.00  0.00    -0.476 OA
BRANCH  19  21
ATOM     20  C   UNL     1      -0.002   1.890  -0.203  0.00  0.00    +0.048 C 
ATOM     21  C   UNL     1      -0.023   0.361  -0.272  0.00  0.00    +0.227 C 
ENDBRANCH  19  21
ENDBRANCH   1  19
BRANCH   2  22
ATOM     22  C   UNL     1      -4.047  -0.987  -0.455  0.00  0.00    +0.050 C 
BRANCH  22  23
ATOM     23  C   UNL     1      -4.398  -0.602  -1.894  0.00  0.00    +0.101 C 
BRANCH  23  24
ATOM     24  C   UNL     1      -5.571   0.343  -1.889  0.00  0.00    +0.216 C 
ATOM     25  O   UNL     1      -6.077   0.676  -0.839  0.00  0.00    -0.276 OA
ATOM     26  N   UNL     1      -6.058   0.818  -3.053  0.00  0.00    -0.298 N 
ATOM     27  C   UNL     1      -5.459   0.418  -4.333  0.00  0.00    +0.126 C 
ATOM     28  C   UNL     1      -6.559  -0.168  -5.227  0.00  0.00    +0.125 C 
ATOM     29  N   UNL     1      -7.699   0.759  -5.238  0.00  0.00    -0.314 N 
ATOM     30  C   UNL     1      -8.299   1.159  -3.957  0.00  0.00    +0.125 C 
ATOM     31  C   UNL     1      -7.202   1.741  -3.063  0.00  0.00    +0.126 C 
ATOM     32  C   UNL     1      -8.202   1.249  -6.438  0.00  0.00    +0.099 A 
ATOM     33  C   UNL     1      -7.715   0.753  -7.643  0.00  0.00    +0.042 A 
ATOM     34  C   UNL     1      -8.224   1.249  -8.829  0.00  0.00    +0.005 A 
ATOM     35  C   UNL     1      -9.206   2.229  -8.770  0.00  0.00    +0.018 A 
ATOM     36  C   UNL     1      -9.643   2.676  -7.540  0.00  0.00    +0.084 A 
ATOM     37  N   UNL     1      -9.143   2.180  -6.423  0.00  0.00    -0.350 N 
ATOM     38  H   UNL     1      -9.470   2.509  -5.571  0.00  0.00    +0.166 HD
ENDBRANCH  23  24
ENDBRANCH  22  23
ENDBRANCH   2  22
TORSDOF 6
