REMARK  Name = ZINC46669803
REMARK  6 active torsions:
REMARK  status: ('A' for Active; 'I' for Inactive)
REMARK    1  A    between atoms: C_1  and  C_2
REMARK    2  A    between atoms: C_12  and  C_16
REMARK    3  A    between atoms: N_18  and  C_19
REMARK    4  A    between atoms: C_21  and  S_26
REMARK    5  A    between atoms: C_24  and  O_25
REMARK    6  A    between atoms: S_26  and  N_29
REMARK                            x       y       z     vdW  Elec       q    Type
REMARK                         _______ _______ _______ _____ _____    ______ ____
ROOT
ATOM      1  C   UNL     1       0.557  -6.709   2.257  0.00  0.00    +0.250 C 
ATOM      2  O   UNL     1      -0.389  -6.812   1.500  0.00  0.00    -0.270 OA
ATOM      3  N   UNL     1       1.046  -7.801   2.877  0.00  0.00    -0.278 N 
ATOM      4  H   UNL     1       1.840  -7.731   3.430  0.00  0.00    +0.155 HD
ENDROOT
BRANCH   1  15
ATOM      5  C   UNL     1       0.021   1.513  -0.045  0.00  0.00    +0.008 C 
ATOM      6  C   UNL     1       0.034  -0.017  -0.044  0.00  0.00    -0.009 C 
ATOM      7  C   UNL     1      -1.405  -0.540  -0.025  0.00  0.00    +0.009 C 
ATOM      8  C   UNL     1      -1.400  -2.053  -0.275  0.00  0.00    +0.054 C 
ATOM      9  C   UNL     1      -0.407  -2.693   0.665  0.00  0.00    +0.020 A 
ATOM     10  C   UNL     1       0.556  -2.008   1.319  0.00  0.00    -0.019 A 
ATOM     11  C   UNL     1       1.293  -2.969   2.115  0.00  0.00    +0.004 A 
ATOM     12  C   UNL     1       2.381  -2.844   2.984  0.00  0.00    +0.010 A 
ATOM     13  C   UNL     1       2.840  -4.001   3.592  0.00  0.00    +0.001 A 
ATOM     14  C   UNL     1       2.260  -5.232   3.362  0.00  0.00    +0.015 A 
ATOM     15  C   UNL     1       1.170  -5.389   2.497  0.00  0.00    +0.061 A 
ATOM     16  C   UNL     1       0.687  -4.226   1.868  0.00  0.00    +0.059 A 
ATOM     17  N   UNL     1      -0.331  -4.023   0.991  0.00  0.00    -0.357 N 
ATOM     18  H   UNL     1      -0.917  -4.715   0.647  0.00  0.00    +0.166 HD
ATOM     19  C   UNL     1       0.774  -0.521   1.200  0.00  0.00    +0.040 C 
ENDBRANCH   1  15
BRANCH   3  20
ATOM     20  C   UNL     1       0.408  -9.038   2.723  0.00  0.00    +0.077 A 
ATOM     21  C   UNL     1      -0.192  -9.366   1.516  0.00  0.00    +0.055 A 
ATOM     22  C   UNL     1      -0.821 -10.587   1.366  0.00  0.00    +0.107 A 
ATOM     23  C   UNL     1      -0.854 -11.485   2.417  0.00  0.00    +0.032 A 
ATOM     24  C   UNL     1      -0.258 -11.166   3.623  0.00  0.00    +0.049 A 
ATOM     25  C   UNL     1       0.379  -9.946   3.780  0.00  0.00    +0.138 A 
BRANCH  22  26
ATOM     26  S   UNL     1      -1.583 -11.001  -0.168  0.00  0.00    +0.061 S 
ATOM     27  O   UNL     1      -2.575 -11.976   0.121  0.00  0.00    -0.153 OA
ATOM     28  O   UNL     1      -1.887  -9.773  -0.815  0.00  0.00    -0.153 OA
BRANCH  26  29
ATOM     29  N   UNL     1      -0.436 -11.754  -1.097  0.00  0.00    -0.177 NA
ATOM     30  C   UNL     1       0.491 -11.086  -2.021  0.00  0.00    +0.109 C 
ATOM     31  C   UNL     1       1.351 -12.184  -2.681  0.00  0.00    +0.018 C 
ATOM     32  C   UNL     1       0.478 -13.456  -2.513  0.00  0.00    +0.018 C 
ATOM     33  C   UNL     1      -0.173 -13.204  -1.128  0.00  0.00    +0.109 C 
ENDBRANCH  26  29
ENDBRANCH  22  26
BRANCH  25  34
ATOM     34  O   UNL     1       0.971  -9.633   4.963  0.00  0.00    -0.505 OA
ATOM     35  H   UNL     1       0.384  -9.187   5.590  0.00  0.00    +0.292 HD
ENDBRANCH  25  34
ENDBRANCH   3  20
TORSDOF 5
