REMARK  Name = ZINC65356951
REMARK  6 active torsions:
REMARK  status: ('A' for Active; 'I' for Inactive)
REMARK    1  A    between atoms: C_1  and  C_2
REMARK    2  A    between atoms: C_2  and  C_3
REMARK    3  A    between atoms: C_3  and  C_4
REMARK    4  A    between atoms: C_4  and  N_5
REMARK    5  A    between atoms: C_21  and  C_26
REMARK    6  A    between atoms: C_31  and  O_32
REMARK                            x       y       z     vdW  Elec       q    Type
REMARK                         _______ _______ _______ _____ _____    ______ ____
ROOT
ATOM      1  N   UNL     1      -2.821  -2.482   0.001  0.00  0.00    -0.224 N 
ATOM      2  C   UNL     1      -3.516  -2.752   1.125  0.00  0.00    +0.244 C 
ATOM      3  O   UNL     1      -3.135  -2.629   2.269  0.00  0.00    -0.273 OA
ATOM      4  C   UNL     1      -4.871  -3.239   0.660  0.00  0.00    +0.169 C 
ATOM      5  C   UNL     1      -5.131  -4.658   1.196  0.00  0.00    +0.065 C 
ATOM      6  C   UNL     1      -6.139  -5.287   0.263  0.00  0.00    -0.034 C 
ATOM      7  C   UNL     1      -7.314  -5.856   0.514  0.00  0.00    -0.001 A 
ATOM      8  C   UNL     1      -8.002  -6.163   1.778  0.00  0.00    +0.010 A 
ATOM      9  C   UNL     1      -9.227  -6.742   1.669  0.00  0.00    +0.001 A 
ATOM     10  C   UNL     1      -9.828  -7.044   0.443  0.00  0.00    +0.002 A 
ATOM     11  C   UNL     1      -9.264  -6.803  -0.768  0.00  0.00    +0.026 A 
ATOM     12  C   UNL     1      -7.972  -6.202  -0.782  0.00  0.00    +0.043 A 
ATOM     13  N   UNL     1      -7.204  -5.884  -1.781  0.00  0.00    -0.375 N 
ATOM     14  C   UNL     1      -5.949  -5.350  -1.247  0.00  0.00    +0.131 C 
ATOM     15  C   UNL     1      -5.698  -3.913  -1.727  0.00  0.00    +0.138 C 
ATOM     16  N   UNL     1      -4.723  -3.301  -0.808  0.00  0.00    -0.264 N 
ATOM     17  C   UNL     1      -3.532  -2.765  -1.100  0.00  0.00    +0.312 C 
ATOM     18  O   UNL     1      -3.139  -2.561  -2.232  0.00  0.00    -0.252 OA
ATOM     19  H   UNL     1      -7.424  -5.983  -2.721  0.00  0.00    +0.160 HD
ENDROOT
BRANCH  15  20
ATOM     20  C   UNL     1      -5.147  -3.927  -3.129  0.00  0.00    +0.018 A 
ATOM     21  C   UNL     1      -4.588  -5.083  -3.641  0.00  0.00    +0.024 A 
ATOM     22  C   UNL     1      -4.083  -5.096  -4.929  0.00  0.00    +0.018 A 
ATOM     23  C   UNL     1      -4.135  -3.953  -5.706  0.00  0.00    +0.019 A 
ATOM     24  C   UNL     1      -4.693  -2.796  -5.199  0.00  0.00    +0.047 A 
ATOM     25  C   UNL     1      -5.205  -2.782  -3.909  0.00  0.00    +0.122 A 
ATOM     26 BR   UNL     1      -3.319  -6.679  -5.626  0.00  0.00    -0.050 Br
BRANCH  25  27
ATOM     27  O   UNL     1      -5.759  -1.645  -3.409  0.00  0.00    -0.506 OA
ATOM     28  H   UNL     1      -5.129  -1.067  -2.958  0.00  0.00    +0.292 HD
ENDBRANCH  25  27
ENDBRANCH  15  20
BRANCH   1  29
ATOM     29  C   UNL     1      -1.459  -1.941  -0.015  0.00  0.00    +0.118 C 
BRANCH  29  30
ATOM     30  C   UNL     1      -1.518  -0.412  -0.022  0.00  0.00    +0.019 C 
BRANCH  30  32
ATOM     31  C   UNL     1      -0.155   1.681  -0.045  0.00  0.00    +0.004 C 
ATOM     32  C   UNL     1      -0.096   0.152  -0.038  0.00  0.00    -0.002 C 
ENDBRANCH  30  32
ENDBRANCH  29  30
ENDBRANCH   1  29
TORSDOF 5
