REMARK  Name = ZINC12094017
REMARK  7 active torsions:
REMARK  status: ('A' for Active; 'I' for Inactive)
REMARK    1  A    between atoms: C_1  and  C_2
REMARK    2  A    between atoms: C_7  and  C_8
REMARK    3  A    between atoms: C_8  and  N_51
REMARK    4  A    between atoms: C_14  and  C_16
REMARK    5  A    between atoms: C_16  and  C_17
REMARK    6  A    between atoms: N_19  and  C_20
REMARK    7  A    between atoms: C_20  and  C_21
REMARK                            x       y       z     vdW  Elec       q    Type
REMARK                         _______ _______ _______ _____ _____    ______ ____
ROOT
ATOM      1  C   UNL     1      -3.046   3.346  -2.527  0.00  0.00    -0.058 C 
ATOM      2  C   UNL     1      -3.382   3.921  -3.905  0.00  0.00    +0.085 C 
ATOM      3  N   UNL     1      -4.461   4.898  -3.789  0.00  0.00    -0.318 N 
ATOM      4  C   UNL     1      -4.801   5.473  -2.630  0.00  0.00    +0.200 C 
ATOM      5  O   UNL     1      -5.689   6.298  -2.629  0.00  0.00    -0.278 OA
ATOM      6  C   UNL     1      -4.127   5.139  -1.329  0.00  0.00    +0.028 C 
ATOM      7  H   UNL     1      -4.954   5.141  -4.589  0.00  0.00    +0.149 HD
ATOM      8  N   UNL     1      -2.837   4.476  -1.599  0.00  0.00    +0.391 N 
ATOM      9  H   UNL     1      -2.196   5.152  -2.031  0.00  0.00    -0.080 HD
ENDROOT
BRANCH   8  10
ATOM     10  C   UNL     1      -2.243   3.990  -0.333  0.00  0.00    -0.042 C 
BRANCH  10  17
ATOM     11  C   UNL     1      -0.041   5.839  -0.621  0.00  0.00    +0.044 C 
ATOM     12  C   UNL     1       0.198   4.356  -0.748  0.00  0.00    -0.049 A 
ATOM     13  C   UNL     1       1.472   3.881  -1.002  0.00  0.00    +0.003 A 
ATOM     14  C   UNL     1       1.691   2.522  -1.118  0.00  0.00    +0.000 A 
ATOM     15  C   UNL     1       0.638   1.637  -0.981  0.00  0.00    +0.000 A 
ATOM     16  C   UNL     1      -0.636   2.112  -0.732  0.00  0.00    +0.002 A 
ATOM     17  C   UNL     1      -0.855   3.472  -0.611  0.00  0.00    -0.061 A 
ENDBRANCH  10  17
ENDBRANCH   8  10
BRANCH   6  18
ATOM     18  C   UNL     1      -3.869   6.427  -0.545  0.00  0.00    +0.089 C 
BRANCH  18  19
ATOM     19  C   UNL     1      -2.938   7.315  -1.330  0.00  0.00    +0.212 C 
ATOM     20  O   UNL     1      -2.578   6.986  -2.440  0.00  0.00    -0.276 OA
ATOM     21  N   UNL     1      -2.505   8.475  -0.797  0.00  0.00    -0.311 N 
ATOM     22  H   UNL     1      -2.792   8.738   0.091  0.00  0.00    +0.149 HD
BRANCH  21  23
ATOM     23  C   UNL     1      -1.599   9.338  -1.560  0.00  0.00    +0.139 C 
BRANCH  23  24
ATOM     24  C   UNL     1      -1.268  10.562  -0.746  0.00  0.00    -0.030 A 
ATOM     25  C   UNL     1      -2.054  11.695  -0.851  0.00  0.00    +0.006 A 
ATOM     26  C   UNL     1      -1.755  12.816  -0.101  0.00  0.00    +0.020 A 
ATOM     27  C   UNL     1      -0.661  12.809   0.747  0.00  0.00    +0.041 A 
ATOM     28  C   UNL     1       0.129  11.678   0.847  0.00  0.00    +0.020 A 
ATOM     29  C   UNL     1      -0.175  10.555   0.101  0.00  0.00    +0.006 A 
ATOM     30 CL   UNL     1      -0.280  14.220   1.685  0.00  0.00    -0.084 Cl
ENDBRANCH  23  24
ENDBRANCH  21  23
ENDBRANCH  18  19
ENDBRANCH   6  18
TORSDOF 6
