REMARK  Name = ZINC08434914
REMARK  13 active torsions:
REMARK  status: ('A' for Active; 'I' for Inactive)
REMARK    1  A    between atoms: C_1  and  C_2
REMARK    2  A    between atoms: C_2  and  O_3
REMARK    3  A    between atoms: O_3  and  C_4
REMARK    4  A    between atoms: C_4  and  C_6
REMARK    5  A    between atoms: C_6  and  O_7
REMARK    6  A    between atoms: O_7  and  C_8
REMARK    7  A    between atoms: C_13  and  C_14
REMARK    8  A    between atoms: N_15  and  N_16
REMARK    9  A    between atoms: C_17  and  C_19
REMARK   10  A    between atoms: C_19  and  N_30
REMARK   11  A    between atoms: C_20  and  C_21
REMARK   12  A    between atoms: C_24  and  N_27
REMARK   13  A    between atoms: C_31  and  C_33
REMARK                            x       y       z     vdW  Elec       q    Type
REMARK                         _______ _______ _______ _____ _____    ______ ____
ROOT
ATOM      1  C   UNL     1      -7.757   0.704  -0.415  0.00  0.00    +0.098 C 
ATOM      2  C   UNL     1      -8.945   1.260  -0.748  0.00  0.00    +0.036 C 
ENDROOT
BRANCH   2   3
ATOM      3  C   UNL     1      -9.050   2.717  -0.926  0.00  0.00    -0.023 A 
ATOM      4  C   UNL     1      -8.247   3.577  -0.170  0.00  0.00    +0.010 A 
ATOM      5  C   UNL     1      -8.348   4.941  -0.346  0.00  0.00    +0.033 A 
ATOM      6  C   UNL     1      -9.249   5.460  -1.260  0.00  0.00    +0.126 A 
ATOM      7  C   UNL     1     -10.051   4.615  -2.008  0.00  0.00    +0.033 A 
ATOM      8  C   UNL     1      -9.958   3.248  -1.847  0.00  0.00    +0.010 A 
BRANCH   6   9
ATOM      9  N   UNL     1      -9.356   6.925  -1.439  0.00  0.00    +0.056 N 
ATOM     10  O   UNL     1     -10.211   7.388  -2.171  0.00  0.00    -0.126 OA
ATOM     11  O   UNL     1      -8.588   7.667  -0.853  0.00  0.00    -0.126 OA
ENDBRANCH   6   9
ENDBRANCH   2   3
BRANCH   1  13
ATOM     12  N   UNL     1      -5.979   1.938  -1.543  0.00  0.00    -0.202 N 
ATOM     13  C   UNL     1      -6.540   1.528  -0.388  0.00  0.00    +0.277 C 
ATOM     14  O   UNL     1      -6.040   1.840   0.676  0.00  0.00    -0.267 OA
ATOM     15  H   UNL     1      -6.414   1.746  -2.388  0.00  0.00    +0.178 HD
BRANCH  12  17
ATOM     16  C   UNL     1      -4.184   2.964  -2.636  0.00  0.00    +0.142 C 
ATOM     17  N   UNL     1      -4.767   2.641  -1.521  0.00  0.00    -0.187 NA
BRANCH  16  23
ATOM     18  C   UNL     1      -2.179   3.781  -1.402  0.00  0.00    +0.130 A 
ATOM     19  C   UNL     1      -0.938   4.397  -1.392  0.00  0.00    +0.046 A 
ATOM     20  C   UNL     1      -0.373   4.837  -2.574  0.00  0.00    +0.004 A 
ATOM     21  C   UNL     1      -1.041   4.666  -3.775  0.00  0.00    +0.001 A 
ATOM     22  C   UNL     1      -2.277   4.055  -3.803  0.00  0.00    +0.013 A 
ATOM     23  C   UNL     1      -2.861   3.612  -2.614  0.00  0.00    +0.036 A 
BRANCH  18  24
ATOM     24  O   UNL     1      -2.734   3.348  -0.240  0.00  0.00    -0.480 OA
BRANCH  24  25
ATOM     25  C   UNL     1      -1.937   3.457   0.940  0.00  0.00    +0.349 C 
BRANCH  25  26
ATOM     26  C   UNL     1      -2.749   3.031   2.136  0.00  0.00    +0.345 C 
ATOM     27  O   UNL     1      -3.861   2.584   1.983  0.00  0.00    -0.247 OA
BRANCH  26  28
ATOM     28  O   UNL     1      -2.237   3.147   3.371  0.00  0.00    -0.463 OA
BRANCH  28  30
ATOM     29  C   UNL     1      -2.361   3.016   5.800  0.00  0.00    +0.048 C 
ATOM     30  C   UNL     1      -3.115   2.826   4.482  0.00  0.00    +0.229 C 
ENDBRANCH  28  30
ENDBRANCH  26  28
ENDBRANCH  25  26
ENDBRANCH  24  25
ENDBRANCH  18  24
ENDBRANCH  16  23
ENDBRANCH  12  17
ENDBRANCH   1  13
BRANCH   1  31
ATOM     31  N   UNL     1      -7.687  -0.656  -0.097  0.00  0.00    -0.277 N 
ATOM     32  C   UNL     1      -6.491  -1.235   0.127  0.00  0.00    +0.248 C 
ATOM     33  O   UNL     1      -5.481  -0.558   0.142  0.00  0.00    -0.270 OA
ATOM     34  H   UNL     1      -8.499  -1.182  -0.037  0.00  0.00    +0.155 HD
BRANCH  32  35
ATOM     35  C   UNL     1      -6.406  -2.693   0.353  0.00  0.00    +0.037 A 
ATOM     36  C   UNL     1      -7.564  -3.472   0.342  0.00  0.00    +0.013 A 
ATOM     37  C   UNL     1      -7.478  -4.834   0.548  0.00  0.00    +0.001 A 
ATOM     38  C   UNL     1      -6.248  -5.425   0.777  0.00  0.00    +0.000 A 
ATOM     39  C   UNL     1      -5.097  -4.657   0.796  0.00  0.00    +0.001 A 
ATOM     40  C   UNL     1      -5.169  -3.296   0.585  0.00  0.00    +0.013 A 
ENDBRANCH  32  35
ENDBRANCH   1  31
TORSDOF 12
