REMARK  Name = ZINC12660645
REMARK  15 active torsions:
REMARK  status: ('A' for Active; 'I' for Inactive)
REMARK    1  A    between atoms: C_1  and  C_2
REMARK    2  A    between atoms: C_2  and  C_3
REMARK    3  A    between atoms: C_3  and  O_5
REMARK    4  A    between atoms: O_5  and  C_6
REMARK    5  A    between atoms: C_10  and  C_44
REMARK    6  A    between atoms: C_15  and  C_43
REMARK    7  A    between atoms: C_25  and  C_42
REMARK    8  A    between atoms: C_28  and  C_41
REMARK    9  A    between atoms: C_29  and  C_31
REMARK   10  A    between atoms: C_31  and  C_32
REMARK   11  A    between atoms: C_32  and  C_33
REMARK   12  A    between atoms: C_33  and  C_35
REMARK   13  A    between atoms: C_33  and  C_36
REMARK   14  A    between atoms: C_36  and  N_37
REMARK   15  A    between atoms: C_38  and  C_40
REMARK                            x       y       z     vdW  Elec       q    Type
REMARK                         _______ _______ _______ _____ _____    ______ ____
ROOT
ATOM      1  C   UNL     1       0.051  -0.992   3.147  0.00  0.00    +0.180 C 
ATOM      2  C   UNL     1       1.065  -2.110   2.909  0.00  0.00    +0.046 C 
ATOM      3  C   UNL     1       0.365  -3.368   2.404  0.00  0.00    +0.015 C 
ATOM      4  C   UNL     1      -0.674  -3.865   3.408  0.00  0.00    -0.008 C 
ATOM      5  C   UNL     1      -1.462  -5.017   2.802  0.00  0.00    +0.003 C 
ATOM      6  C   UNL     1      -0.605  -6.240   2.554  0.00  0.00    +0.005 C 
ATOM      7  C   UNL     1      -1.395  -7.483   2.123  0.00  0.00    +0.008 C 
ATOM      8  C   UNL     1      -2.498  -7.729   3.150  0.00  0.00    -0.019 C 
ATOM      9  C   UNL     1      -3.423  -6.478   3.016  0.00  0.00    +0.003 C 
ATOM     10  C   UNL     1      -2.729  -5.284   3.629  0.00  0.00    +0.000 C 
ATOM     11  C   UNL     1      -3.634  -4.048   3.460  0.00  0.00    +0.031 C 
ATOM     12  C   UNL     1      -2.872  -2.819   3.853  0.00  0.00    -0.027 C 
ATOM     13  C   UNL     1      -1.573  -2.732   3.821  0.00  0.00    -0.064 C 
ATOM     14  C   UNL     1      -0.935  -1.420   4.237  0.00  0.00    +0.075 C 
ATOM     15  C   UNL     1      -4.787  -6.886   3.587  0.00  0.00    +0.052 C 
ATOM     16  C   UNL     1      -4.755  -8.375   3.676  0.00  0.00    +0.115 C 
ATOM     17  C   UNL     1      -3.463  -8.813   2.876  0.00  0.00    +0.068 C 
ATOM     18  C   UNL     1      -3.514 -10.242   3.247  0.00  0.00    -0.028 C 
ATOM     19  C   UNL     1      -4.837 -10.498   3.327  0.00  0.00    +0.098 C 
ATOM     20  O   UNL     1      -5.584  -9.348   3.072  0.00  0.00    -0.490 OA
ATOM     21  C   UNL     1      -2.381 -11.205   3.471  0.00  0.00    +0.043 C 
ATOM     22  C   UNL     1      -4.667  -8.784   5.148  0.00  0.00    +0.056 C 
ATOM     23  C   UNL     1      -1.851  -7.852   4.523  0.00  0.00    +0.012 C 
ATOM     24  C   UNL     1       0.051  -4.352   4.662  0.00  0.00    +0.016 C 
ENDROOT
BRANCH   1  25
ATOM     25  O   UNL     1      -0.671  -0.714   1.919  0.00  0.00    -0.461 OA
BRANCH  25  26
ATOM     26  C   UNL     1      -1.106   0.542   1.738  0.00  0.00    +0.307 C 
ATOM     27  O   UNL     1      -0.891   1.383   2.579  0.00  0.00    -0.251 OA
BRANCH  26  29
ATOM     28  C   UNL     1      -2.242   2.387   0.530  0.00  0.00    +0.015 C 
ATOM     29  C   UNL     1      -1.863   0.905   0.486  0.00  0.00    +0.117 C 
ENDBRANCH  26  29
ENDBRANCH  25  26
ENDBRANCH   1  25
BRANCH  19  30
ATOM     30  C   UNL     1      -5.428 -11.848   3.631  0.00  0.00    +0.074 C 
BRANCH  30  31
ATOM     31  C   UNL     1      -5.737 -11.943   5.127  0.00  0.00    +0.012 C 
BRANCH  31  32
ATOM     32  C   UNL     1      -6.338 -13.316   5.437  0.00  0.00    +0.003 C 
ATOM     33  C   UNL     1      -5.293 -14.401   5.170  0.00  0.00    +0.009 C 
BRANCH  32  34
ATOM     34  C   UNL     1      -6.762 -13.367   6.906  0.00  0.00    +0.107 C 
BRANCH  34  35
ATOM     35  N   UNL     1      -7.445 -14.635   7.173  0.00  0.00    -0.315 N 
ATOM     36  C   UNL     1      -7.910 -14.903   8.409  0.00  0.00    +0.210 C 
ATOM     37  O   UNL     1      -7.764 -14.093   9.300  0.00  0.00    -0.276 OA
ATOM     38  C   UNL     1      -8.612 -16.207   8.684  0.00  0.00    +0.109 C 
ATOM     39  H   UNL     1      -7.562 -15.283   6.460  0.00  0.00    +0.149 HD
ENDBRANCH  34  35
ENDBRANCH  32  34
ENDBRANCH  31  32
ENDBRANCH  30  31
ENDBRANCH  19  30
TORSDOF 8
