REMARK  Name = ZINC29554582
REMARK  7 active torsions:
REMARK  status: ('A' for Active; 'I' for Inactive)
REMARK    1  A    between atoms: C_1  and  C_2
REMARK    2  A    between atoms: C_15  and  C_17
REMARK    3  A    between atoms: C_17  and  S_18
REMARK    4  A    between atoms: S_18  and  C_19
REMARK    5  A    between atoms: N_20  and  C_21
REMARK    6  A    between atoms: C_21  and  C_22
REMARK    7  A    between atoms: C_21  and  C_23
REMARK                            x       y       z     vdW  Elec       q    Type
REMARK                         _______ _______ _______ _____ _____    ______ ____
ROOT
ATOM      1  C   UNL     1      -1.090   6.470  -2.158  0.00  0.00    +0.029 C 
ATOM      2  C   UNL     1       0.113   6.447  -1.212  0.00  0.00    +0.087 C 
ATOM      3  C   UNL     1       1.315   5.834  -1.933  0.00  0.00    +0.118 C 
ATOM      4  C   UNL     1       2.370   5.437  -0.935  0.00  0.00    +0.219 C 
ATOM      5  O   UNL     1       3.368   6.115  -0.811  0.00  0.00    -0.275 OA
ATOM      6  N   UNL     1       2.212   4.330  -0.175  0.00  0.00    -0.284 N 
ATOM      7  C   UNL     1       1.027   3.588  -0.238  0.00  0.00    +0.055 A 
ATOM      8  C   UNL     1       1.057   2.211  -0.379  0.00  0.00    +0.025 A 
ATOM      9  C   UNL     1      -0.127   1.496  -0.406  0.00  0.00    +0.002 A 
ATOM     10  C   UNL     1      -1.339   2.152  -0.289  0.00  0.00    +0.002 A 
ATOM     11  C   UNL     1      -1.377   3.527  -0.145  0.00  0.00    +0.025 A 
ATOM     12  C   UNL     1      -0.196   4.251  -0.131  0.00  0.00    +0.058 A 
ATOM     13  N   UNL     1      -0.216   5.649  -0.029  0.00  0.00    -0.266 N 
ATOM     14  C   UNL     1      -0.532   6.248   1.136  0.00  0.00    +0.230 C 
ATOM     15  O   UNL     1      -0.546   7.459   1.212  0.00  0.00    -0.274 OA
ATOM     16  H   UNL     1       3.019   4.006   0.498  0.00  0.00    +0.155 HD
ENDROOT
BRANCH  14  17
ATOM     17  C   UNL     1      -0.869   5.414   2.345  0.00  0.00    +0.173 C 
BRANCH  17  18
ATOM     18  S   UNL     1      -1.246   6.501   3.743  0.00  0.00    -0.084 S 
BRANCH  18  19
ATOM     19  C   UNL     1      -1.592   5.298   4.982  0.00  0.00    +0.126 C 
ATOM     20  N   UNL     1      -1.521   4.027   4.695  0.00  0.00    -0.366 N 
ATOM     21  N   UNL     1      -1.938   5.698   6.252  0.00  0.00    -0.339 N 
ATOM     22  H   UNL     1      -2.155   4.947   7.026  0.00  0.00    +0.144 HD
ATOM     23  H   UNL     1      -1.998   6.769   6.494  0.00  0.00    +0.144 HD
ATOM     24  H   UNL     1      -1.146   3.705   3.713  0.00  0.00    +0.162 HD
BRANCH  20  25
ATOM     25  C   UNL     1      -1.941   3.029   5.682  0.00  0.00    +0.075 C 
ATOM     26  C   UNL     1      -2.968   2.088   5.050  0.00  0.00    +0.030 C 
ATOM     27  C   UNL     1      -0.725   2.222   6.141  0.00  0.00    +0.030 C 
ENDBRANCH  20  25
ENDBRANCH  18  19
ENDBRANCH  17  18
ENDBRANCH  14  17
TORSDOF 4
