REMARK  Name = ZINC67388237
REMARK  6 active torsions:
REMARK  status: ('A' for Active; 'I' for Inactive)
REMARK    1  A    between atoms: C_7  and  C_11
REMARK    2  A    between atoms: C_11  and  C_12
REMARK    3  A    between atoms: C_12  and  C_13
REMARK    4  A    between atoms: C_13  and  N_14
REMARK    5  A    between atoms: N_17  and  C_18
REMARK    6  A    between atoms: C_24  and  C_26
REMARK                            x       y       z     vdW  Elec       q    Type
REMARK                         _______ _______ _______ _____ _____    ______ ____
ROOT
ATOM      1  N   UNL     1       2.629  -2.332   6.420  0.00  0.00    -0.299 N 
ATOM      2  C   UNL     1       2.385  -3.069   7.521  0.00  0.00    +0.300 C 
ATOM      3  O   UNL     1       2.055  -4.234   7.412  0.00  0.00    -0.253 OA
ATOM      4  N   UNL     1       2.507  -2.515   8.744  0.00  0.00    -0.296 N 
ATOM      5  H   UNL     1       2.892  -1.402   6.507  0.00  0.00    +0.150 HD
ATOM      6  H   UNL     1       2.770  -1.586   8.831  0.00  0.00    +0.151 HD
ENDROOT
BRANCH   4   7
ATOM      7  C   UNL     1       2.241  -3.317   9.941  0.00  0.00    +0.086 C 
ATOM      8  C   UNL     1       0.742  -3.300  10.244  0.00  0.00    +0.023 C 
ATOM      9  C   UNL     1       0.465  -4.137  11.494  0.00  0.00    +0.002 C 
ATOM     10  C   UNL     1       1.231  -3.550  12.681  0.00  0.00    +0.001 C 
ATOM     11  C   UNL     1       2.731  -3.567  12.378  0.00  0.00    +0.014 C 
ATOM     12  C   UNL     1       3.008  -2.730  11.128  0.00  0.00    +0.113 C 
BRANCH  12  13
ATOM     13  C   UNL     1       4.508  -2.747  10.825  0.00  0.00    +0.395 C 
ATOM     14  F   UNL     1       4.761  -1.981   9.681  0.00  0.00    -0.170 F 
ATOM     15  F   UNL     1       5.209  -2.210  11.910  0.00  0.00    -0.170 F 
ATOM     16  F   UNL     1       4.924  -4.064  10.606  0.00  0.00    -0.170 F 
ENDBRANCH  12  13
ENDBRANCH   4   7
BRANCH   1  17
ATOM     17  C   UNL     1       2.497  -2.934   5.091  0.00  0.00    +0.106 C 
BRANCH  17  18
ATOM     18  C   UNL     1       2.827  -1.889   4.022  0.00  0.00    +0.026 C 
BRANCH  18  19
ATOM     19  C   UNL     1       2.689  -2.518   2.635  0.00  0.00    +0.078 C 
BRANCH  19  26
ATOM     20  C   UNL     1      -0.019   1.524   0.010  0.00  0.00    +0.002 C 
ATOM     21  C   UNL     1       1.403   2.078  -0.000  0.00  0.00    +0.008 C 
ATOM     22  C   UNL     1       2.311   1.146  -0.809  0.00  0.00    +0.076 C 
ATOM     23  C   UNL     1       2.864   0.083   0.104  0.00  0.00    +0.133 A 
ATOM     24  N   UNL     1       4.102  -0.311   0.193  0.00  0.00    -0.134 NA
ATOM     25  N   UNL     1       4.193  -1.250   1.070  0.00  0.00    -0.134 NA
ATOM     26  C   UNL     1       3.015  -1.490   1.582  0.00  0.00    +0.134 A 
ATOM     27  N   UNL     1       2.144  -0.643   0.991  0.00  0.00    -0.315 N 
ATOM     28  C   UNL     1       0.711  -0.518   1.258  0.00  0.00    +0.125 C 
ATOM     29  C   UNL     1       0.002  -0.004   0.002  0.00  0.00    +0.022 C 
ENDBRANCH  19  26
ENDBRANCH  18  19
ENDBRANCH  17  18
ENDBRANCH   1  17
TORSDOF 6
