REMARK  Name = ZINC03148634
REMARK  5 active torsions:
REMARK  status: ('A' for Active; 'I' for Inactive)
REMARK    1  A    between atoms: C_1  and  O_2
REMARK    2  A    between atoms: O_2  and  C_3
REMARK    3  A    between atoms: C_7  and  C_10
REMARK    4  A    between atoms: C_8  and  O_9
REMARK    5  A    between atoms: N_11  and  C_12
REMARK                            x       y       z     vdW  Elec       q    Type
REMARK                         _______ _______ _______ _____ _____    ______ ____
ROOT
ATOM      1  C   UNL     1       1.338  -4.077  -2.313  0.00  0.00    +0.124 C 
ATOM      2  N   UNL     1       1.918  -4.646  -3.332  0.00  0.00    -0.255 NA
ENDROOT
BRANCH   2   3
ATOM      3  C   UNL     1       1.972  -6.011  -3.415  0.00  0.00    +0.066 A 
ATOM      4  C   UNL     1       2.318  -6.766  -2.291  0.00  0.00    +0.030 A 
ATOM      5  C   UNL     1       2.373  -8.141  -2.371  0.00  0.00    +0.030 A 
ATOM      6  C   UNL     1       2.085  -8.779  -3.570  0.00  0.00    +0.067 A 
ATOM      7  C   UNL     1       1.738  -8.030  -4.698  0.00  0.00    +0.069 A 
ATOM      8  C   UNL     1       1.677  -6.649  -4.620  0.00  0.00    +0.055 A 
ATOM      9  N   UNL     1       1.510  -8.938  -5.730  0.00  0.00    -0.306 N 
ATOM     10  H   UNL     1       1.253  -8.713  -6.638  0.00  0.00    +0.170 HD
ATOM     11  C   UNL     1       1.708 -10.181  -5.252  0.00  0.00    +0.325 A 
ATOM     12  O   UNL     1       1.591 -11.206  -5.897  0.00  0.00    -0.247 OA
ATOM     13  N   UNL     1       2.056 -10.118  -3.953  0.00  0.00    -0.306 N 
ATOM     14  H   UNL     1       2.253 -10.876  -3.381  0.00  0.00    +0.170 HD
ENDBRANCH   2   3
BRANCH   1  19
ATOM     15  C   UNL     1       0.606  -0.608  -1.057  0.00  0.00    +0.163 A 
ATOM     16  C   UNL     1       1.172   0.161  -2.061  0.00  0.00    +0.065 A 
ATOM     17  C   UNL     1       1.789  -0.445  -3.143  0.00  0.00    +0.036 A 
ATOM     18  C   UNL     1       1.847  -1.821  -3.232  0.00  0.00    +0.044 A 
ATOM     19  C   UNL     1       1.280  -2.610  -2.224  0.00  0.00    +0.053 A 
ATOM     20  C   UNL     1       0.661  -1.995  -1.127  0.00  0.00    +0.168 A 
ATOM     21 BR   UNL     1       2.690  -2.640  -4.713  0.00  0.00    -0.048 Br
ATOM     22 BR   UNL     1       2.556   0.618  -4.506  0.00  0.00    -0.049 Br
BRANCH  15  24
ATOM     23  C   UNL     1      -0.017   1.425   0.010  0.00  0.00    +0.277 C 
ATOM     24  O   UNL     1       0.002  -0.004   0.002  0.00  0.00    -0.491 OA
ENDBRANCH  15  24
BRANCH  20  25
ATOM     25  O   UNL     1       0.112  -2.750  -0.141  0.00  0.00    -0.503 OA
ATOM     26  H   UNL     1      -0.817  -2.977  -0.290  0.00  0.00    +0.292 HD
ENDBRANCH  20  25
ENDBRANCH   1  19
TORSDOF 4
