REMARK  Name = ZINC11048899
REMARK  8 active torsions:
REMARK  status: ('A' for Active; 'I' for Inactive)
REMARK    1  A    between atoms: C_1  and  C_2
REMARK    2  A    between atoms: C_8  and  N_10
REMARK    3  A    between atoms: C_14  and  C_16
REMARK    4  A    between atoms: C_16  and  O_17
REMARK    5  A    between atoms: O_17  and  C_18
REMARK    6  A    between atoms: C_18  and  C_20
REMARK    7  A    between atoms: C_25  and  S_26
REMARK    8  A    between atoms: S_26  and  N_29
REMARK                            x       y       z     vdW  Elec       q    Type
REMARK                         _______ _______ _______ _____ _____    ______ ____
ROOT
ATOM      1  O   UNL     1       0.545  -6.705  -4.957  0.00  0.00    -0.452 OA
ENDROOT
BRANCH   1   2
ATOM      2  C   UNL     1       0.905  -7.989  -5.143  0.00  0.00    +0.342 C 
ATOM      3  O   UNL     1       1.111  -8.707  -4.184  0.00  0.00    -0.245 OA
BRANCH   2   4
ATOM      4  C   UNL     1       1.049  -8.526  -6.511  0.00  0.00    +0.085 A 
ATOM      5  C   UNL     1       0.949  -7.674  -7.613  0.00  0.00    +0.017 A 
ATOM      6  C   UNL     1       1.085  -8.182  -8.888  0.00  0.00    +0.001 A 
ATOM      7  C   UNL     1       1.319  -9.533  -9.077  0.00  0.00    +0.002 A 
ATOM      8  C   UNL     1       1.419 -10.383  -7.990  0.00  0.00    +0.029 A 
ATOM      9  C   UNL     1       1.291  -9.887  -6.709  0.00  0.00    +0.119 A 
BRANCH   9  10
ATOM     10  S   UNL     1       1.425 -10.970  -5.325  0.00  0.00    +0.062 S 
ATOM     11  O   UNL     1       2.743 -10.816  -4.816  0.00  0.00    -0.153 OA
ATOM     12  O   UNL     1       0.270 -10.755  -4.527  0.00  0.00    -0.153 OA
BRANCH  10  13
ATOM     13  N   UNL     1       1.320 -12.518  -5.904  0.00  0.00    -0.177 NA
ATOM     14  C   UNL     1       0.011 -13.127  -6.178  0.00  0.00    +0.109 C 
ATOM     15  C   UNL     1       0.009 -13.649  -7.623  0.00  0.00    +0.017 C 
ATOM     16  C   UNL     1       1.195 -14.595  -7.820  0.00  0.00    +0.003 C 
ATOM     17  C   UNL     1       2.502 -13.832  -7.586  0.00  0.00    +0.017 C 
ATOM     18  C   UNL     1       2.533 -13.311  -6.146  0.00  0.00    +0.109 C 
ENDBRANCH  10  13
ENDBRANCH   9  10
ENDBRANCH   2   4
ENDBRANCH   1   2
BRANCH   1  19
ATOM     19  C   UNL     1       0.423  -6.245  -3.585  0.00  0.00    +0.328 C 
BRANCH  19  24
ATOM     20  N   UNL     1      -0.697  -2.211  -1.224  0.00  0.00    -0.296 N 
ATOM     21  C   UNL     1      -0.523  -2.854  -2.395  0.00  0.00    +0.306 C 
ATOM     22  O   UNL     1      -0.693  -2.263  -3.444  0.00  0.00    -0.252 OA
ATOM     23  N   UNL     1      -0.159  -4.151  -2.404  0.00  0.00    -0.237 N 
ATOM     24  C   UNL     1       0.016  -4.794  -3.576  0.00  0.00    +0.258 C 
ATOM     25  O   UNL     1      -0.154  -4.205  -4.622  0.00  0.00    -0.272 OA
ATOM     26  H   UNL     1      -0.561  -2.682  -0.387  0.00  0.00    +0.151 HD
ATOM     27  H   UNL     1      -0.022  -4.622  -1.567  0.00  0.00    +0.159 HD
BRANCH  20  34
ATOM     28  C   UNL     1      -3.054  -1.360   0.228  0.00  0.00    +0.009 C 
ATOM     29  C   UNL     1      -1.809  -0.480   0.099  0.00  0.00    +0.006 C 
ATOM     30  C   UNL     1      -2.223   0.993   0.109  0.00  0.00    +0.005 C 
ATOM     31  C   UNL     1      -0.978   1.873  -0.020  0.00  0.00    +0.000 C 
ATOM     32  C   UNL     1      -0.261   1.553  -1.334  0.00  0.00    +0.002 C 
ATOM     33  C   UNL     1       0.152   0.080  -1.344  0.00  0.00    +0.022 C 
ATOM     34  C   UNL     1      -1.093  -0.800  -1.214  0.00  0.00    +0.077 C 
ENDBRANCH  20  34
ENDBRANCH  19  24
ENDBRANCH   1  19
TORSDOF 7
