REMARK  Name = ZINC01026879
REMARK  7 active torsions:
REMARK  status: ('A' for Active; 'I' for Inactive)
REMARK    1  A    between atoms: C_1  and  C_2
REMARK    2  A    between atoms: C_5  and  N_19
REMARK    3  A    between atoms: C_7  and  N_8
REMARK    4  A    between atoms: C_9  and  C_10
REMARK    5  A    between atoms: C_15  and  O_16
REMARK    6  A    between atoms: N_19  and  S_20
REMARK    7  A    between atoms: S_20  and  C_23
REMARK                            x       y       z     vdW  Elec       q    Type
REMARK                         _______ _______ _______ _____ _____    ______ ____
ROOT
ATOM      1  C   UNL     1      -5.454   0.023   3.817  0.00  0.00    +0.046 C 
ATOM      2  C   UNL     1      -4.132   0.379   3.186  0.00  0.00    -0.025 A 
ATOM      3  C   UNL     1      -4.067   0.670   1.839  0.00  0.00    +0.007 A 
ATOM      4  C   UNL     1      -2.858   1.003   1.256  0.00  0.00    +0.025 A 
ATOM      5  C   UNL     1      -1.698   1.036   2.022  0.00  0.00    +0.050 A 
ATOM      6  C   UNL     1      -1.752   0.746   3.376  0.00  0.00    +0.052 A 
ATOM      7  C   UNL     1      -2.973   0.415   3.965  0.00  0.00    +0.069 A 
ENDROOT
BRANCH   7   8
ATOM      8  N   UNL     1      -3.035   0.126   5.301  0.00  0.00    -0.255 NA
ATOM      9  C   UNL     1      -2.459   0.914   6.166  0.00  0.00    +0.123 C 
BRANCH   9  10
ATOM     10  C   UNL     1      -2.425   0.545   7.589  0.00  0.00    +0.037 A 
ATOM     11  C   UNL     1      -1.808   1.387   8.520  0.00  0.00    +0.033 A 
ATOM     12  C   UNL     1      -1.780   1.034   9.852  0.00  0.00    +0.043 A 
ATOM     13  C   UNL     1      -2.360  -0.152  10.274  0.00  0.00    +0.043 A 
ATOM     14  C   UNL     1      -2.972  -0.993   9.365  0.00  0.00    +0.084 A 
ATOM     15  C   UNL     1      -3.016  -0.652   8.021  0.00  0.00    +0.144 A 
ATOM     16 CL   UNL     1      -3.695  -2.476   9.906  0.00  0.00    -0.080 Cl
ATOM     17 CL   UNL     1      -1.013   2.080  11.007  0.00  0.00    -0.083 Cl
BRANCH  15  18
ATOM     18  O   UNL     1      -3.622  -1.475   7.128  0.00  0.00    -0.505 OA
ATOM     19  H   UNL     1      -3.033  -2.137   6.741  0.00  0.00    +0.292 HD
ENDBRANCH  15  18
ENDBRANCH   9  10
ENDBRANCH   7   8
BRANCH   5  20
ATOM     20  N   UNL     1      -0.478   1.369   1.427  0.00  0.00    -0.221 N 
ATOM     21  H   UNL     1      -0.090   2.245   1.574  0.00  0.00    +0.173 HD
BRANCH  20  22
ATOM     22  S   UNL     1       0.304   0.266   0.471  0.00  0.00    +0.040 S 
ATOM     23  O   UNL     1       1.468   0.942   0.016  0.00  0.00    -0.155 OA
ATOM     24  O   UNL     1      -0.682  -0.179  -0.451  0.00  0.00    -0.155 OA
ATOM     25  C   UNL     1       0.763  -1.083   1.594  0.00  0.00    +0.218 C 
ENDBRANCH  20  22
ENDBRANCH   5  20
TORSDOF 5
