REMARK  Name = ZINC23641977
REMARK  9 active torsions:
REMARK  status: ('A' for Active; 'I' for Inactive)
REMARK    1  A    between atoms: C_1  and  N_2
REMARK    2  A    between atoms: C_6  and  N_7
REMARK    3  A    between atoms: N_7  and  C_8
REMARK    4  A    between atoms: C_8  and  C_9
REMARK    5  A    between atoms: C_9  and  C_11
REMARK    6  A    between atoms: C_9  and  N_18
REMARK    7  A    between atoms: N_18  and  C_19
REMARK    8  A    between atoms: N_18  and  C_20
REMARK    9  A    between atoms: N_23  and  C_26
REMARK                            x       y       z     vdW  Elec       q    Type
REMARK                         _______ _______ _______ _____ _____    ______ ____
ROOT
ATOM      1  N   UNL     1       2.517   5.590   0.501  0.00  0.00    -0.350 N 
ATOM      2  H   UNL     1       2.764   5.594  -0.571  0.00  0.00    +0.145 HD
ENDROOT
BRANCH   1   8
ATOM      3  C   UNL     1       1.858  11.650   0.971  0.00  0.00    +0.143 C 
ATOM      4  N   UNL     1       1.976  10.341   0.325  0.00  0.00    -0.224 N 
ATOM      5  C   UNL     1       2.045   9.232   1.089  0.00  0.00    +0.260 C 
ATOM      6  O   UNL     1       2.011   9.307   2.303  0.00  0.00    -0.269 OA
ATOM      7  C   UNL     1       2.164   7.927   0.415  0.00  0.00    +0.113 C 
ATOM      8  C   UNL     1       2.240   6.748   1.133  0.00  0.00    +0.085 C 
ATOM      9  C   UNL     1       2.203   7.934  -1.058  0.00  0.00    +0.260 C 
ATOM     10  O   UNL     1       2.304   6.896  -1.685  0.00  0.00    -0.269 OA
ATOM     11  N   UNL     1       2.118   9.121  -1.692  0.00  0.00    -0.224 N 
ATOM     12  C   UNL     1       2.012  10.272  -1.014  0.00  0.00    +0.317 C 
ATOM     13  O   UNL     1       1.945  11.308  -1.645  0.00  0.00    -0.252 OA
ATOM     14  C   UNL     1       2.150   9.154  -3.157  0.00  0.00    +0.143 C 
ENDBRANCH   1   8
BRANCH   1  15
ATOM     15  C   UNL     1       2.490   4.326   1.241  0.00  0.00    +0.090 C 
BRANCH  15  16
ATOM     16  C   UNL     1       3.014   3.200   0.347  0.00  0.00    -0.020 C 
BRANCH  16  17
ATOM     17  C   UNL     1       2.852   1.880   1.056  0.00  0.00    -0.041 A 
ATOM     18  C   UNL     1       3.952   1.255   1.613  0.00  0.00    +0.003 A 
ATOM     19  C   UNL     1       3.804   0.044   2.263  0.00  0.00    +0.000 A 
ATOM     20  C   UNL     1       2.557  -0.546   2.351  0.00  0.00    +0.001 A 
ATOM     21  C   UNL     1       1.456   0.081   1.800  0.00  0.00    +0.020 A 
ATOM     22  C   UNL     1       1.603   1.293   1.149  0.00  0.00    +0.043 A 
ATOM     23 CL   UNL     1       0.221   2.077   0.451  0.00  0.00    -0.083 Cl
ENDBRANCH  16  17
BRANCH  16  24
ATOM     24  N   UNL     1       4.435   3.428   0.054  0.00  0.00    +0.382 N 
ATOM     25  C   UNL     1       4.598   4.378  -1.054  0.00  0.00    -0.096 C 
ATOM     26  C   UNL     1       5.152   3.888   1.251  0.00  0.00    -0.096 C 
ATOM     27  H   UNL     1       4.874   2.468  -0.255  0.00  0.00    -0.082 HD
ENDBRANCH  16  24
ENDBRANCH  15  16
ENDBRANCH   1  15
TORSDOF 5
