REMARK  Name = ZINC36531338
REMARK  17 active torsions:
REMARK  status: ('A' for Active; 'I' for Inactive)
REMARK    1  A    between atoms: C_1  and  C_2
REMARK    2  A    between atoms: C_2  and  C_4
REMARK    3  A    between atoms: C_2  and  C_10
REMARK    4  A    between atoms: C_10  and  C_12
REMARK    5  A    between atoms: C_10  and  N_23
REMARK    6  A    between atoms: N_14  and  C_15
REMARK    7  A    between atoms: C_15  and  C_16
REMARK    8  A    between atoms: C_15  and  C_17
REMARK    9  A    between atoms: C_15  and  C_18
REMARK   10  A    between atoms: C_18  and  C_19
REMARK   11  A    between atoms: C_19  and  C_20
REMARK   12  A    between atoms: C_19  and  C_21
REMARK   13  A    between atoms: C_19  and  C_22
REMARK   14  A    between atoms: N_23  and  C_24
REMARK   15  A    between atoms: C_25  and  C_27
REMARK   16  A    between atoms: C_31  and  O_34
REMARK   17  A    between atoms: C_32  and  O_33
REMARK                            x       y       z     vdW  Elec       q    Type
REMARK                         _______ _______ _______ _____ _____    ______ ____
ROOT
ATOM      1  C   UNL     1      -2.662   0.547   0.113  0.00  0.00    +0.169 C 
ENDROOT
BRANCH   1   2
ATOM      2  C   UNL     1      -2.218   0.886  -1.286  0.00  0.00    +0.235 C 
ATOM      3  O   UNL     1      -1.954  -0.000  -2.071  0.00  0.00    -0.274 OA
ATOM      4  N   UNL     1      -2.113   2.175  -1.667  0.00  0.00    -0.309 N 
ATOM      5  H   UNL     1      -2.394   2.882  -1.065  0.00  0.00    +0.149 HD
BRANCH   4   6
ATOM      6  C   UNL     1      -1.575   2.508  -2.988  0.00  0.00    +0.030 C 
ATOM      7  C   UNL     1      -0.056   2.328  -2.980  0.00  0.00    +0.031 C 
ATOM      8  C   UNL     1      -2.192   1.582  -4.038  0.00  0.00    +0.031 C 
BRANCH   6   9
ATOM      9  C   UNL     1      -1.915   3.961  -3.326  0.00  0.00    +0.031 C 
BRANCH   9  10
ATOM     10  C   UNL     1      -3.172   4.382  -2.561  0.00  0.00    -0.036 C 
ATOM     11  C   UNL     1      -2.796   4.747  -1.124  0.00  0.00    +0.010 C 
ATOM     12  C   UNL     1      -3.804   5.594  -3.247  0.00  0.00    +0.010 C 
ATOM     13  C   UNL     1      -4.172   3.224  -2.548  0.00  0.00    +0.010 C 
ENDBRANCH   9  10
ENDBRANCH   6   9
ENDBRANCH   4   6
ENDBRANCH   1   2
BRANCH   1  14
ATOM     14  N   UNL     1      -2.889  -0.897   0.217  0.00  0.00    -0.288 N 
ATOM     15  C   UNL     1      -1.790  -1.831  -0.042  0.00  0.00    +0.133 C 
ATOM     16  C   UNL     1      -4.107  -1.365   0.551  0.00  0.00    +0.251 C 
ATOM     17  O   UNL     1      -5.042  -0.597   0.671  0.00  0.00    -0.270 OA
BRANCH  16  18
ATOM     18  C   UNL     1      -4.307  -2.810   0.771  0.00  0.00    +0.082 A 
ATOM     19  C   UNL     1      -3.482  -3.507   1.659  0.00  0.00    +0.017 A 
ATOM     20  C   UNL     1      -3.672  -4.856   1.861  0.00  0.00    +0.005 A 
ATOM     21  C   UNL     1      -4.678  -5.530   1.190  0.00  0.00    +0.049 A 
ATOM     22  C   UNL     1      -5.504  -4.854   0.307  0.00  0.00    +0.159 A 
ATOM     23  C   UNL     1      -5.328  -3.490   0.096  0.00  0.00    +0.171 A 
BRANCH  23  24
ATOM     24  O   UNL     1      -6.139  -2.823  -0.764  0.00  0.00    -0.503 OA
ATOM     25  H   UNL     1      -5.817  -2.807  -1.676  0.00  0.00    +0.292 HD
ENDBRANCH  23  24
BRANCH  22  26
ATOM     26  O   UNL     1      -6.489  -5.523  -0.349  0.00  0.00    -0.503 OA
ATOM     27  H   UNL     1      -7.335  -5.538   0.120  0.00  0.00    +0.292 HD
ENDBRANCH  22  26
ENDBRANCH  16  18
ENDBRANCH   1  14
BRANCH   1  29
ATOM     28  C   UNL     1      -1.437   2.490   1.097  0.00  0.00    +0.015 C 
ATOM     29  C   UNL     1      -1.578   0.966   1.108  0.00  0.00    +0.045 C 
BRANCH  29  30
ATOM     30  C   UNL     1      -1.961   0.507   2.491  0.00  0.00    -0.042 A 
ATOM     31  C   UNL     1      -3.138   0.951   3.066  0.00  0.00    +0.004 A 
ATOM     32  C   UNL     1      -3.489   0.529   4.335  0.00  0.00    +0.000 A 
ATOM     33  C   UNL     1      -2.664  -0.336   5.029  0.00  0.00    +0.000 A 
ATOM     34  C   UNL     1      -1.488  -0.780   4.454  0.00  0.00    +0.000 A 
ATOM     35  C   UNL     1      -1.139  -0.362   3.183  0.00  0.00    +0.004 A 
ENDBRANCH  29  30
ENDBRANCH   1  29
TORSDOF 10
