REMARK  Name = ZINC38747102
REMARK  5 active torsions:
REMARK  status: ('A' for Active; 'I' for Inactive)
REMARK    1  A    between atoms: C_1  and  C_2
REMARK    2  A    between atoms: C_10  and  S_14
REMARK    3  A    between atoms: S_14  and  C_15
REMARK    4  A    between atoms: C_15  and  C_16
REMARK    5  A    between atoms: N_18  and  C_19
REMARK                            x       y       z     vdW  Elec       q    Type
REMARK                         _______ _______ _______ _____ _____    ______ ____
ROOT
ATOM      1  C   UNL     1      -0.064   1.490   0.003  0.00  0.00    +0.007 C 
ATOM      2  C   UNL     1      -0.035  -0.040   0.000  0.00  0.00    -0.012 C 
ATOM      3  C   UNL     1       0.663  -0.526  -1.268  0.00  0.00    +0.008 C 
ATOM      4  C   UNL     1       0.636  -2.059  -1.339  0.00  0.00    +0.033 C 
ATOM      5  C   UNL     1       1.213  -2.567  -0.020  0.00  0.00    -0.042 C 
ATOM      6  C   UNL     1       2.233  -3.416   0.086  0.00  0.00    +0.071 C 
ATOM      7  C   UNL     1       2.803  -3.667   1.438  0.00  0.00    +0.112 C 
ATOM      8  N   UNL     1       3.833  -4.451   1.631  0.00  0.00    -0.217 NA
ATOM      9  C   UNL     1       4.378  -5.041   0.556  0.00  0.00    +0.182 C 
ATOM     10  N   UNL     1       3.959  -4.891  -0.685  0.00  0.00    -0.151 NA
ATOM     11  C   UNL     1       2.922  -4.121  -1.048  0.00  0.00    +0.272 C 
ATOM     12  O   UNL     1       2.565  -4.004  -2.208  0.00  0.00    -0.268 OA
ATOM     13  S   UNL     1       1.793  -2.721   2.534  0.00  0.00    -0.097 S 
ATOM     14  C   UNL     1       0.616  -2.059   1.294  0.00  0.00    +0.080 C 
ATOM     15  C   UNL     1       0.698  -0.531   1.252  0.00  0.00    +0.022 C 
ENDROOT
BRANCH   9  16
ATOM     16  S   UNL     1       5.761  -6.099   0.824  0.00  0.00    -0.079 S 
BRANCH  16  17
ATOM     17  C   UNL     1       6.192  -6.686  -0.837  0.00  0.00    +0.173 C 
BRANCH  17  18
ATOM     18  C   UNL     1       7.377  -7.614  -0.750  0.00  0.00    +0.227 C 
ATOM     19  O   UNL     1       7.881  -7.855   0.326  0.00  0.00    -0.275 OA
ATOM     20  N   UNL     1       7.877  -8.175  -1.869  0.00  0.00    -0.285 N 
ATOM     21  H   UNL     1       7.434  -8.036  -2.721  0.00  0.00    +0.155 HD
BRANCH  20  22
ATOM     22  C   UNL     1       9.034  -8.958  -1.802  0.00  0.00    +0.036 A 
ATOM     23  C   UNL     1       9.951  -8.936  -2.845  0.00  0.00    +0.043 A 
ATOM     24  C   UNL     1      11.094  -9.710  -2.776  0.00  0.00    +0.044 A 
ATOM     25  C   UNL     1      11.325 -10.507  -1.668  0.00  0.00    +0.040 A 
ATOM     26  C   UNL     1      10.414 -10.531  -0.627  0.00  0.00    +0.044 A 
ATOM     27  C   UNL     1       9.272  -9.754  -0.689  0.00  0.00    +0.043 A 
ATOM     28 CL   UNL     1      10.707 -11.533   0.760  0.00  0.00    -0.083 Cl
ATOM     29 CL   UNL     1      12.240  -9.684  -4.080  0.00  0.00    -0.083 Cl
ENDBRANCH  20  22
ENDBRANCH  17  18
ENDBRANCH  16  17
ENDBRANCH   9  16
TORSDOF 4
