REMARK  Name = ZINC52586729
REMARK  11 active torsions:
REMARK  status: ('A' for Active; 'I' for Inactive)
REMARK    1  A    between atoms: C_1  and  C_2
REMARK    2  A    between atoms: C_2  and  O_3
REMARK    3  A    between atoms: O_3  and  C_4
REMARK    4  A    between atoms: C_7  and  C_10
REMARK    5  A    between atoms: N_12  and  N_13
REMARK    6  A    between atoms: N_16  and  C_17
REMARK    7  A    between atoms: C_17  and  C_18
REMARK    8  A    between atoms: C_18  and  N_26
REMARK    9  A    between atoms: C_22  and  C_25
REMARK   10  A    between atoms: N_26  and  C_27
REMARK   11  A    between atoms: N_26  and  C_28
REMARK                            x       y       z     vdW  Elec       q    Type
REMARK                         _______ _______ _______ _____ _____    ______ ____
ROOT
ATOM      1  N   UNL     1       1.966  -7.598  -2.904  0.00  0.00    -0.218 N 
ATOM      2  C   UNL     1       2.567  -8.153  -3.975  0.00  0.00    +0.316 C 
ATOM      3  O   UNL     1       2.652  -9.363  -4.065  0.00  0.00    -0.251 OA
ATOM      4  N   UNL     1       3.072  -7.368  -4.946  0.00  0.00    -0.300 N 
ATOM      5  H   UNL     1       1.602  -8.163  -2.204  0.00  0.00    +0.174 HD
ATOM      6  H   UNL     1       3.004  -6.403  -4.875  0.00  0.00    +0.150 HD
ENDROOT
BRANCH   1   9
ATOM      7  C   UNL     1       1.267  -5.649  -1.729  0.00  0.00    +0.260 C 
ATOM      8  O   UNL     1       0.811  -6.358  -0.852  0.00  0.00    -0.269 OA
ATOM      9  N   UNL     1       1.867  -6.204  -2.800  0.00  0.00    -0.229 N 
ATOM     10  H   UNL     1       2.231  -5.639  -3.499  0.00  0.00    +0.173 HD
BRANCH   7  14
ATOM     11  C   UNL     1       0.969  -1.425  -1.414  0.00  0.00    +0.121 A 
ATOM     12  C   UNL     1       0.446  -2.233  -0.411  0.00  0.00    +0.046 A 
ATOM     13  C   UNL     1       0.541  -3.603  -0.510  0.00  0.00    +0.016 A 
ATOM     14  C   UNL     1       1.163  -4.181  -1.620  0.00  0.00    +0.038 A 
ATOM     15  C   UNL     1       1.687  -3.365  -2.626  0.00  0.00    +0.016 A 
ATOM     16  C   UNL     1       1.584  -1.995  -2.522  0.00  0.00    +0.046 A 
BRANCH  11  17
ATOM     17  O   UNL     1       0.874  -0.075  -1.313  0.00  0.00    -0.492 OA
BRANCH  17  19
ATOM     18  C   UNL     1       0.217   1.974  -0.212  0.00  0.00    +0.048 C 
ATOM     19  C   UNL     1       0.230   0.445  -0.148  0.00  0.00    +0.225 C 
ENDBRANCH  17  19
ENDBRANCH  11  17
ENDBRANCH   7  14
ENDBRANCH   1   9
BRANCH   4  20
ATOM     20  C   UNL     1       3.725  -7.971  -6.111  0.00  0.00    +0.094 C 
BRANCH  20  21
ATOM     21  C   UNL     1       4.079  -6.878  -7.121  0.00  0.00    -0.050 C 
ATOM     22  C   UNL     1       5.126  -5.942  -6.514  0.00  0.00    -0.010 C 
ATOM     23  C   UNL     1       6.384  -6.742  -6.167  0.00  0.00    -0.001 C 
ATOM     24  C   UNL     1       6.947  -7.383  -7.437  0.00  0.00    +0.003 C 
ATOM     25  C   UNL     1       5.899  -8.319  -8.044  0.00  0.00    -0.015 C 
ATOM     26  C   UNL     1       4.642  -7.519  -8.391  0.00  0.00    -0.007 C 
ATOM     27  C   UNL     1       6.463  -8.960  -9.313  0.00  0.00    +0.007 C 
BRANCH  21  28
ATOM     28  N   UNL     1       2.871  -6.110  -7.454  0.00  0.00    +0.381 N 
ATOM     29  C   UNL     1       3.203  -5.083  -8.451  0.00  0.00    -0.096 C 
ATOM     30  C   UNL     1       1.852  -7.015  -8.004  0.00  0.00    -0.096 C 
ATOM     31  H   UNL     1       2.514  -5.668  -6.621  0.00  0.00    -0.082 HD
ENDBRANCH  21  28
ENDBRANCH  20  21
ENDBRANCH   4  20
TORSDOF 7
