REMARK  Name = ZINC12041915
REMARK  12 active torsions:
REMARK  status: ('A' for Active; 'I' for Inactive)
REMARK    1  A    between atoms: C_1  and  C_2
REMARK    2  A    between atoms: C_3  and  C_7
REMARK    3  A    between atoms: C_7  and  N_8
REMARK    4  A    between atoms: N_8  and  C_9
REMARK    5  A    between atoms: C_10  and  C_12
REMARK    6  A    between atoms: C_13  and  O_34
REMARK    7  A    between atoms: C_23  and  C_24
REMARK    8  A    between atoms: C_23  and  N_67
REMARK    9  A    between atoms: C_29  and  O_30
REMARK   10  A    between atoms: O_30  and  C_31
REMARK   11  A    between atoms: C_31  and  C_32
REMARK   12  A    between atoms: O_34  and  C_35
REMARK                            x       y       z     vdW  Elec       q    Type
REMARK                         _______ _______ _______ _____ _____    ______ ____
ROOT
ATOM      1  C   UNL     1      -0.932  -2.159  -0.485  0.00  0.00    +0.098 A 
ATOM      2  C   UNL     1       0.185  -2.796   0.214  0.00  0.00    +0.139 A 
ATOM      3  C   UNL     1       0.225  -4.176   0.240  0.00  0.00    +0.116 A 
ATOM      4  C   UNL     1      -0.798  -4.894  -0.380  0.00  0.00    +0.255 A 
ATOM      5  O   UNL     1      -0.756  -6.114  -0.364  0.00  0.00    -0.268 OA
ATOM      6  N   UNL     1      -1.836  -4.283  -0.998  0.00  0.00    -0.313 N 
ATOM      7  C   UNL     1      -1.907  -2.949  -1.078  0.00  0.00    +0.036 A 
ATOM      8  C   UNL     1      -2.997  -2.226  -1.830  0.00  0.00    +0.036 C 
ATOM      9  C   UNL     1      -4.299  -3.025  -1.824  0.00  0.00    -0.072 C 
ATOM     10  C   UNL     1      -3.180  -4.810  -3.004  0.00  0.00    -0.056 C 
ATOM     11  C   UNL     1      -2.874  -5.162  -1.547  0.00  0.00    +0.106 C 
ATOM     12  N   UNL     1      -4.341  -3.900  -3.013  0.00  0.00    +0.384 N 
ATOM     13  H   UNL     1      -5.203  -4.458  -2.988  0.00  0.00    -0.081 HD
ENDROOT
BRANCH   1  16
ATOM     14  N   UNL     1      -1.800  -0.023   0.323  0.00  0.00    -0.294 N 
ATOM     15  C   UNL     1      -2.631  -0.761   1.276  0.00  0.00    +0.132 C 
ATOM     16  C   UNL     1      -1.024  -0.691  -0.554  0.00  0.00    +0.252 C 
ATOM     17  O   UNL     1      -0.400  -0.081  -1.401  0.00  0.00    -0.270 OA
BRANCH  14  18
ATOM     18  C   UNL     1      -1.812   1.442   0.322  0.00  0.00    +0.168 C 
BRANCH  18  21
ATOM     19  C   UNL     1      -4.803   2.025   1.120  0.00  0.00    +0.071 C 
ATOM     20  C   UNL     1      -4.221   2.196  -0.259  0.00  0.00    +0.106 A 
ATOM     21  C   UNL     1      -2.883   1.935  -0.616  0.00  0.00    +0.124 A 
ATOM     22  N   UNL     1      -2.715   2.192  -1.879  0.00  0.00    -0.052 NA
ATOM     23  O   UNL     1      -3.964   2.627  -2.393  0.00  0.00    -0.242 OA
ATOM     24  N   UNL     1      -4.874   2.607  -1.305  0.00  0.00    -0.054 NA
ENDBRANCH  18  21
ENDBRANCH  14  18
ENDBRANCH   1  16
BRANCH   2  25
ATOM     25  O   UNL     1       1.146  -2.057   0.814  0.00  0.00    -0.494 OA
ATOM     26  C   UNL     1       2.132  -2.765   1.569  0.00  0.00    +0.277 C 
ENDBRANCH   2  25
BRANCH  12  27
ATOM     27  C   UNL     1      -4.334  -3.082  -4.245  0.00  0.00    -0.039 C 
BRANCH  27  28
ATOM     28  C   UNL     1      -4.589  -3.980  -5.428  0.00  0.00    -0.022 A 
ATOM     29  C   UNL     1      -3.536  -4.395  -6.221  0.00  0.00    +0.005 A 
ATOM     30  C   UNL     1      -3.769  -5.218  -7.307  0.00  0.00    +0.000 A 
ATOM     31  C   UNL     1      -5.056  -5.629  -7.602  0.00  0.00    +0.004 A 
ATOM     32  C   UNL     1      -6.112  -5.217  -6.812  0.00  0.00    +0.046 A 
ATOM     33  C   UNL     1      -5.880  -4.394  -5.719  0.00  0.00    +0.122 A 
BRANCH  33  34
ATOM     34  O   UNL     1      -6.917  -3.992  -4.938  0.00  0.00    -0.488 OA
BRANCH  34  35
ATOM     35  C   UNL     1      -8.219  -4.458  -5.297  0.00  0.00    +0.256 C 
BRANCH  35  36
ATOM     36  C   UNL     1      -9.233  -3.914  -4.324  0.00  0.00    +0.006 C 
ATOM     37  C   UNL     1     -10.360  -3.413  -4.765  0.00  0.00    +0.007 C 
ENDBRANCH  35  36
ENDBRANCH  34  35
ENDBRANCH  33  34
ENDBRANCH  27  28
ENDBRANCH  12  27
TORSDOF 9
