REMARK  Name = ZINC16805049
REMARK  6 active torsions:
REMARK  status: ('A' for Active; 'I' for Inactive)
REMARK    1  A    between atoms: C_1  and  C_2
REMARK    2  A    between atoms: C_2  and  N_3
REMARK    3  A    between atoms: C_11  and  C_12
REMARK    4  A    between atoms: N_13  and  N_14
REMARK    5  A    between atoms: C_15  and  C_17
REMARK    6  A    between atoms: C_22  and  O_23
REMARK                            x       y       z     vdW  Elec       q    Type
REMARK                         _______ _______ _______ _____ _____    ______ ____
ROOT
ATOM      1  C   UNL     1       3.076  -0.416  -0.304  0.00  0.00    +0.176 C 
ATOM      2  N   UNL     1       4.260  -0.927  -0.469  0.00  0.00    -0.184 NA
ENDROOT
BRANCH   1  11
ATOM      3  N   UNL     1       0.916   0.268  -1.412  0.00  0.00    -0.323 N 
ATOM      4  C   UNL     1       0.474   0.395  -2.714  0.00  0.00    +0.069 A 
ATOM      5  C   UNL     1      -0.727   0.784  -3.290  0.00  0.00    +0.028 A 
ATOM      6  C   UNL     1      -0.852   0.806  -4.663  0.00  0.00    +0.002 A 
ATOM      7  C   UNL     1       0.215   0.442  -5.473  0.00  0.00    +0.002 A 
ATOM      8  C   UNL     1       1.405   0.056  -4.926  0.00  0.00    +0.030 A 
ATOM      9  C   UNL     1       1.556   0.026  -3.534  0.00  0.00    +0.090 A 
ATOM     10  N   UNL     1       2.582  -0.302  -2.723  0.00  0.00    -0.227 NA
ATOM     11  C   UNL     1       2.219  -0.158  -1.468  0.00  0.00    +0.154 A 
BRANCH   3  13
ATOM     12  C   UNL     1       0.318   2.007   0.200  0.00  0.00    +0.027 C 
ATOM     13  C   UNL     1       0.141   0.541  -0.199  0.00  0.00    +0.120 C 
ENDBRANCH   3  13
ENDBRANCH   1  11
BRANCH   2  14
ATOM     14  N   UNL     1       4.660  -1.374  -1.736  0.00  0.00    -0.203 N 
ATOM     15  C   UNL     1       5.910  -1.843  -1.921  0.00  0.00    +0.267 C 
ATOM     16  O   UNL     1       6.690  -1.879  -0.989  0.00  0.00    -0.268 OA
ATOM     17  H   UNL     1       4.037  -1.345  -2.479  0.00  0.00    +0.178 HD
BRANCH  15  18
ATOM     18  C   UNL     1       6.330  -2.313  -3.254  0.00  0.00    +0.080 A 
ATOM     19  C   UNL     1       5.439  -2.268  -4.329  0.00  0.00    +0.017 A 
ATOM     20  C   UNL     1       5.839  -2.708  -5.572  0.00  0.00    +0.001 A 
ATOM     21  C   UNL     1       7.122  -3.195  -5.762  0.00  0.00    +0.004 A 
ATOM     22  C   UNL     1       8.013  -3.245  -4.708  0.00  0.00    +0.046 A 
ATOM     23  C   UNL     1       7.629  -2.801  -3.452  0.00  0.00    +0.129 A 
BRANCH  23  24
ATOM     24  O   UNL     1       8.506  -2.844  -2.417  0.00  0.00    -0.506 OA
ATOM     25  H   UNL     1       8.484  -3.672  -1.917  0.00  0.00    +0.292 HD
ENDBRANCH  23  24
ENDBRANCH  15  18
ENDBRANCH   2  14
TORSDOF 5
