REMARK  Name = ZINC37617112
REMARK  9 active torsions:
REMARK  status: ('A' for Active; 'I' for Inactive)
REMARK    1  A    between atoms: C_1  and  C_2
REMARK    2  A    between atoms: C_2  and  C_3
REMARK    3  A    between atoms: C_3  and  C_5
REMARK    4  A    between atoms: C_3  and  N_6
REMARK    5  A    between atoms: N_6  and  C_7
REMARK    6  A    between atoms: C_7  and  C_8
REMARK    7  A    between atoms: N_10  and  C_11
REMARK    8  A    between atoms: C_11  and  C_13
REMARK    9  A    between atoms: C_11  and  C_14
REMARK                            x       y       z     vdW  Elec       q    Type
REMARK                         _______ _______ _______ _____ _____    ______ ____
ROOT
ATOM      1  C   UNL     1      -6.191  -0.041  -3.866  0.00  0.00    +0.100 C 
ATOM      2  C   UNL     1      -5.978  -1.130  -4.920  0.00  0.00    +0.033 C 
ENDROOT
BRANCH   1   3
ATOM      3  C   UNL     1      -7.666   0.128  -3.608  0.00  0.00    -0.025 A 
ATOM      4  C   UNL     1      -8.325  -0.757  -2.771  0.00  0.00    +0.007 A 
ATOM      5  C   UNL     1      -9.677  -0.611  -2.529  0.00  0.00    +0.028 A 
ATOM      6  C   UNL     1     -10.377   0.426  -3.127  0.00  0.00    +0.067 A 
ATOM      7  C   UNL     1      -9.713   1.318  -3.971  0.00  0.00    +0.067 A 
ATOM      8  C   UNL     1      -8.354   1.167  -4.204  0.00  0.00    +0.033 A 
ATOM      9  N   UNL     1     -10.662   2.236  -4.414  0.00  0.00    -0.306 N 
ATOM     10  H   UNL     1     -10.496   2.979  -5.016  0.00  0.00    +0.170 HD
ATOM     11  C   UNL     1     -11.849   1.918  -3.864  0.00  0.00    +0.325 A 
ATOM     12  O   UNL     1     -12.890   2.521  -4.046  0.00  0.00    -0.247 OA
ATOM     13  N   UNL     1     -11.709   0.830  -3.083  0.00  0.00    -0.306 N 
ATOM     14  H   UNL     1     -12.416   0.401  -2.575  0.00  0.00    +0.170 HD
ENDBRANCH   1   3
BRANCH   1  17
ATOM     15  C   UNL     1      -4.210  -0.155  -2.452  0.00  0.00    +0.196 C 
ATOM     16  O   UNL     1      -3.588   0.409  -3.328  0.00  0.00    -0.278 OA
ATOM     17  N   UNL     1      -5.519  -0.426  -2.623  0.00  0.00    -0.310 N 
ATOM     18  H   UNL     1      -6.016  -0.877  -1.922  0.00  0.00    +0.149 HD
BRANCH  15  19
ATOM     19  C   UNL     1      -3.518  -0.551  -1.173  0.00  0.00    +0.015 C 
BRANCH  19  20
ATOM     20  N   UNL     1      -2.107  -0.147  -1.234  0.00  0.00    +0.386 N 
ATOM     21  H   UNL     1      -2.048   0.853  -1.352  0.00  0.00    -0.085 HD
ATOM     22  H   UNL     1      -1.660  -0.605  -2.014  0.00  0.00    -0.085 HD
BRANCH  20  23
ATOM     23  C   UNL     1      -1.433  -0.534   0.013  0.00  0.00    -0.075 C 
ATOM     24  C   UNL     1      -1.413  -2.059   0.130  0.00  0.00    -0.014 C 
BRANCH  23  26
ATOM     25  C   UNL     1      -0.019   1.526   0.010  0.00  0.00    +0.002 C 
ATOM     26  C   UNL     1       0.002  -0.004   0.002  0.00  0.00    -0.019 C 
ENDBRANCH  23  26
ENDBRANCH  20  23
ENDBRANCH  19  20
ENDBRANCH  15  19
ENDBRANCH   1  17
TORSDOF 6
