REMARK  Name = ZINC39670084
REMARK  6 active torsions:
REMARK  status: ('A' for Active; 'I' for Inactive)
REMARK    1  A    between atoms: C_1  and  C_2
REMARK    2  A    between atoms: C_2  and  C_3
REMARK    3  A    between atoms: C_7  and  C_16
REMARK    4  A    between atoms: N_18  and  C_19
REMARK    5  A    between atoms: C_19  and  C_20
REMARK    6  A    between atoms: C_25  and  C_29
REMARK                            x       y       z     vdW  Elec       q    Type
REMARK                         _______ _______ _______ _____ _____    ______ ____
ROOT
ATOM      1  C   UNL     1       0.817  -0.507  -1.360  0.00  0.00    +0.215 C 
ATOM      2  O   UNL     1       1.221   0.267  -2.202  0.00  0.00    -0.276 OA
ATOM      3  N   UNL     1       0.908  -1.836  -1.568  0.00  0.00    -0.300 N 
ATOM      4  C   UNL     1       0.467  -2.928  -0.668  0.00  0.00    +0.121 C 
ATOM      5  C   UNL     1      -0.137  -3.992  -1.612  0.00  0.00    +0.100 C 
ATOM      6  C   UNL     1       0.527  -3.730  -2.974  0.00  0.00    -0.004 C 
ATOM      7  C   UNL     1       1.465  -2.535  -2.750  0.00  0.00    +0.115 C 
ATOM      8  C   UNL     1      -0.528  -3.376  -4.018  0.00  0.00    -0.010 C 
ATOM      9  C   UNL     1       0.151  -3.176  -5.376  0.00  0.00    -0.082 C 
ATOM     10  N   UNL     1       0.854  -4.406  -5.759  0.00  0.00    +0.379 N 
ATOM     11  C   UNL     1       1.928  -4.689  -4.800  0.00  0.00    -0.082 C 
ATOM     12  C   UNL     1       1.325  -4.952  -3.418  0.00  0.00    -0.010 C 
ATOM     13  H   UNL     1       0.201  -5.176  -5.768  0.00  0.00    -0.086 HD
ATOM     14  H   UNL     1       1.248  -4.293  -6.681  0.00  0.00    -0.086 HD
ENDROOT
BRANCH   5  15
ATOM     15  C   UNL     1       0.195  -5.377  -1.122  0.00  0.00    +0.219 C 
ATOM     16  O   UNL     1       1.227  -5.576  -0.517  0.00  0.00    -0.275 OA
ATOM     17  N   UNL     1      -0.656  -6.396  -1.355  0.00  0.00    -0.309 N 
ATOM     18  H   UNL     1      -1.482  -6.238  -1.839  0.00  0.00    +0.149 HD
BRANCH  17  19
ATOM     19  C   UNL     1      -0.334  -7.744  -0.878  0.00  0.00    +0.159 C 
BRANCH  19  20
ATOM     20  C   UNL     1      -1.439  -8.692  -1.266  0.00  0.00    +0.051 A 
ATOM     21  C   UNL     1      -2.485  -9.044  -0.486  0.00  0.00    +0.115 A 
ATOM     22  N   UNL     1      -3.252  -9.916  -1.208  0.00  0.00    -0.308 N 
ATOM     23  C   UNL     1      -4.410 -10.581  -0.925  0.00  0.00    +0.093 A 
ATOM     24  C   UNL     1      -4.973 -11.401  -1.837  0.00  0.00    +0.021 A 
ATOM     25  C   UNL     1      -4.371 -11.582  -3.093  0.00  0.00    -0.046 A 
ATOM     26  C   UNL     1      -3.217 -10.926  -3.389  0.00  0.00    +0.048 A 
ATOM     27  C   UNL     1      -2.642 -10.073  -2.426  0.00  0.00    +0.116 A 
ATOM     28  N   UNL     1      -1.552  -9.319  -2.439  0.00  0.00    -0.342 N 
ATOM     29  C   UNL     1      -5.002 -12.500  -4.109  0.00  0.00    +0.044 C 
ATOM     30  H   UNL     1      -0.933  -9.238  -3.181  0.00  0.00    +0.167 HD
ENDBRANCH  19  20
ENDBRANCH  17  19
ENDBRANCH   5  15
BRANCH   1  32
ATOM     31  C   UNL     1       0.230   1.546  -0.100  0.00  0.00    +0.013 C 
ATOM     32  C   UNL     1       0.213   0.016  -0.083  0.00  0.00    +0.092 C 
ENDBRANCH   1  32
TORSDOF 4
