REMARK  Name = ZINC56372810
REMARK  8 active torsions:
REMARK  status: ('A' for Active; 'I' for Inactive)
REMARK    1  A    between atoms: C_1  and  C_2
REMARK    2  A    between atoms: C_10  and  C_11
REMARK    3  A    between atoms: N_13  and  N_14
REMARK    4  A    between atoms: N_17  and  C_18
REMARK    5  A    between atoms: N_17  and  C_19
REMARK    6  A    between atoms: C_19  and  C_20
REMARK    7  A    between atoms: C_20  and  O_21
REMARK    8  A    between atoms: O_21  and  C_22
REMARK                            x       y       z     vdW  Elec       q    Type
REMARK                         _______ _______ _______ _____ _____    ______ ____
ROOT
ATOM      1  N   UNL     1       0.075  -0.866   4.814  0.00  0.00    -0.218 N 
ATOM      2  C   UNL     1       0.192  -1.773   5.804  0.00  0.00    +0.318 C 
ATOM      3  O   UNL     1       0.197  -1.410   6.965  0.00  0.00    -0.251 OA
ATOM      4  N   UNL     1       0.302  -3.083   5.508  0.00  0.00    -0.284 N 
ATOM      5  C   UNL     1       0.404  -3.512   4.111  0.00  0.00    +0.133 C 
ATOM      6  H   UNL     1      -0.002  -1.160   3.893  0.00  0.00    +0.174 HD
ENDROOT
BRANCH   1   9
ATOM      7  C   UNL     1       0.052   1.412   4.121  0.00  0.00    +0.296 C 
ATOM      8  O   UNL     1       0.047   1.045   2.962  0.00  0.00    -0.265 OA
ATOM      9  N   UNL     1       0.066   0.503   5.116  0.00  0.00    -0.227 N 
ATOM     10  H   UNL     1       0.070   0.795   6.041  0.00  0.00    +0.173 HD
BRANCH   7  20
ATOM     11  C   UNL     1       0.019   3.706   2.021  0.00  0.00    +0.048 C 
ATOM     12  C   UNL     1       0.028   3.849   3.522  0.00  0.00    +0.008 A 
ATOM     13  C   UNL     1       0.017   5.096   4.285  0.00  0.00    +0.024 A 
ATOM     14  C   UNL     1      -0.004   6.450   3.940  0.00  0.00    +0.012 A 
ATOM     15  C   UNL     1      -0.010   7.400   4.922  0.00  0.00    +0.001 A 
ATOM     16  C   UNL     1       0.005   7.028   6.260  0.00  0.00    +0.004 A 
ATOM     17  C   UNL     1       0.025   5.699   6.621  0.00  0.00    +0.047 A 
ATOM     18  C   UNL     1       0.032   4.714   5.640  0.00  0.00    +0.136 A 
ATOM     19  O   UNL     1       0.050   3.368   5.683  0.00  0.00    -0.450 OA
ATOM     20  C   UNL     1       0.043   2.847   4.438  0.00  0.00    +0.195 A 
ENDBRANCH   7  20
ENDBRANCH   1   9
BRANCH   4  21
ATOM     21  C   UNL     1       0.320  -4.078   6.582  0.00  0.00    +0.150 C 
BRANCH  21  22
ATOM     22  C   UNL     1      -1.111  -4.529   6.884  0.00  0.00    +0.248 C 
BRANCH  22  23
ATOM     23  O   UNL     1      -1.645  -5.210   5.747  0.00  0.00    -0.490 OA
BRANCH  23  24
ATOM     24  C   UNL     1      -2.917  -5.679   5.849  0.00  0.00    +0.123 A 
ATOM     25  C   UNL     1      -3.637  -5.482   7.018  0.00  0.00    +0.046 A 
ATOM     26  C   UNL     1      -4.930  -5.959   7.122  0.00  0.00    +0.006 A 
ATOM     27  C   UNL     1      -5.507  -6.632   6.061  0.00  0.00    +0.038 A 
ATOM     28  C   UNL     1      -4.790  -6.831   4.892  0.00  0.00    +0.127 A 
ATOM     29  C   UNL     1      -3.498  -6.349   4.783  0.00  0.00    +0.084 A 
ATOM     30  F   UNL     1      -5.356  -7.489   3.857  0.00  0.00    -0.205 F 
ENDBRANCH  23  24
ENDBRANCH  22  23
ENDBRANCH  21  22
ENDBRANCH   4  21
TORSDOF 6
