REMARK  Name = ZINC61107756
REMARK  6 active torsions:
REMARK  status: ('A' for Active; 'I' for Inactive)
REMARK    1  A    between atoms: C_4  and  N_7
REMARK    2  A    between atoms: C_16  and  C_18
REMARK    3  A    between atoms: C_18  and  O_20
REMARK    4  A    between atoms: O_20  and  C_21
REMARK    5  A    between atoms: C_25  and  C_27
REMARK    6  A    between atoms: C_27  and  C_28
REMARK                            x       y       z     vdW  Elec       q    Type
REMARK                         _______ _______ _______ _____ _____    ______ ____
ROOT
ATOM      1  N   UNL     1       3.624  -0.654  -0.043  0.00  0.00    -0.196 N 
ATOM      2  C   UNL     1       3.608  -1.999   0.063  0.00  0.00    +0.280 A 
ATOM      3  O   UNL     1       2.555  -2.604   0.152  0.00  0.00    -0.265 OA
ATOM      4  C   UNL     1       4.889  -2.717   0.068  0.00  0.00    +0.051 A 
ATOM      5  C   UNL     1       4.980  -4.101   0.173  0.00  0.00    +0.014 A 
ATOM      6  C   UNL     1       6.222  -4.699   0.171  0.00  0.00    +0.001 A 
ATOM      7  C   UNL     1       7.377  -3.936   0.065  0.00  0.00    +0.001 A 
ATOM      8  C   UNL     1       7.309  -2.562  -0.040  0.00  0.00    +0.011 A 
ATOM      9  C   UNL     1       6.066  -1.939  -0.040  0.00  0.00    +0.021 A 
ATOM     10  C   UNL     1       5.905  -0.480  -0.148  0.00  0.00    +0.176 A 
ATOM     11  N   UNL     1       4.698   0.033  -0.145  0.00  0.00    -0.156 NA
ENDROOT
BRANCH   1  15
ATOM     12  C   UNL     1      -0.020   1.365  -0.057  0.00  0.00    +0.000 A 
ATOM     13  C   UNL     1       0.926   1.643  -1.026  0.00  0.00    +0.002 A 
ATOM     14  C   UNL     1       2.135   0.975  -1.025  0.00  0.00    +0.028 A 
ATOM     15  C   UNL     1       2.401   0.024  -0.048  0.00  0.00    +0.069 A 
ATOM     16  C   UNL     1       1.448  -0.252   0.925  0.00  0.00    +0.028 A 
ATOM     17  C   UNL     1       0.241   0.419   0.918  0.00  0.00    +0.002 A 
ENDBRANCH   1  15
BRANCH  10  18
ATOM     18  C   UNL     1       7.088   0.394  -0.264  0.00  0.00    +0.365 C 
ATOM     19  O   UNL     1       8.202  -0.089  -0.271  0.00  0.00    -0.243 OA
BRANCH  18  20
ATOM     20  O   UNL     1       6.931   1.729  -0.362  0.00  0.00    -0.421 OA
BRANCH  20  21
ATOM     21  C   UNL     1       8.039   2.487  -0.574  0.00  0.00    +0.132 A 
ATOM     22  C   UNL     1       8.619   2.534  -1.834  0.00  0.00    +0.046 A 
ATOM     23  C   UNL     1       9.745   3.306  -2.046  0.00  0.00    +0.004 A 
ATOM     24  C   UNL     1      10.294   4.031  -1.005  0.00  0.00    +0.004 A 
ATOM     25  C   UNL     1       9.719   3.986   0.252  0.00  0.00    -0.035 A 
ATOM     26  C   UNL     1       8.589   3.220   0.468  0.00  0.00    +0.050 A 
BRANCH  25  27
ATOM     27  C   UNL     1      10.320   4.777   1.384  0.00  0.00    +0.130 C 
BRANCH  27  28
ATOM     28  C   UNL     1       9.698   6.149   1.425  0.00  0.00    +0.215 C 
ATOM     29  O   UNL     1       8.850   6.454   0.614  0.00  0.00    -0.276 OA
ATOM     30  N   UNL     1      10.085   7.036   2.363  0.00  0.00    -0.329 N 
ATOM     31  H   UNL     1      10.763   6.792   3.011  0.00  0.00    +0.145 HD
ATOM     32  H   UNL     1       9.684   7.919   2.389  0.00  0.00    +0.145 HD
ENDBRANCH  27  28
ENDBRANCH  25  27
ENDBRANCH  20  21
ENDBRANCH  18  20
ENDBRANCH  10  18
TORSDOF 6
