REMARK  Name = ZINC09333740
REMARK  8 active torsions:
REMARK  status: ('A' for Active; 'I' for Inactive)
REMARK    1  A    between atoms: C_1  and  C_2
REMARK    2  A    between atoms: C_5  and  C_18
REMARK    3  A    between atoms: C_7  and  S_8
REMARK    4  A    between atoms: S_8  and  N_11
REMARK    5  A    between atoms: N_11  and  C_12
REMARK    6  A    between atoms: C_12  and  C_13
REMARK    7  A    between atoms: N_28  and  C_29
REMARK    8  A    between atoms: C_29  and  C_30
REMARK                            x       y       z     vdW  Elec       q    Type
REMARK                         _______ _______ _______ _____ _____    ______ ____
ROOT
ATOM      1  C   UNL     1       0.530  -4.357   0.351  0.00  0.00    +0.099 A 
ATOM      2  C   UNL     1       1.411  -5.056  -0.512  0.00  0.00    +0.013 A 
ATOM      3  C   UNL     1       2.193  -4.412  -1.476  0.00  0.00    +0.011 A 
ATOM      4  C   UNL     1       3.019  -5.152  -2.271  0.00  0.00    +0.001 A 
ATOM      5  C   UNL     1       3.095  -6.536  -2.136  0.00  0.00    +0.001 A 
ATOM      6  C   UNL     1       2.344  -7.194  -1.206  0.00  0.00    +0.012 A 
ATOM      7  C   UNL     1       1.488  -6.465  -0.375  0.00  0.00    +0.023 A 
ATOM      8  C   UNL     1       0.680  -7.074   0.613  0.00  0.00    +0.121 A 
ATOM      9  N   UNL     1      -0.104  -6.314   1.358  0.00  0.00    -0.263 N 
ATOM     10  N   UNL     1      -0.170  -5.040   1.239  0.00  0.00    -0.172 NA
ATOM     11  N   UNL     1       0.709  -8.447   0.796  0.00  0.00    -0.325 N 
ATOM     12  H   UNL     1       1.286  -8.997   0.245  0.00  0.00    +0.148 HD
ATOM     13  H   UNL     1      -0.654  -6.742   2.033  0.00  0.00    +0.190 HD
ENDROOT
BRANCH   1  18
ATOM     14  C   UNL     1       0.025   1.367   0.005  0.00  0.00    +0.046 C 
ATOM     15  C   UNL     1       0.157  -0.131   0.096  0.00  0.00    -0.024 A 
ATOM     16  C   UNL     1       0.176  -0.892  -1.060  0.00  0.00    +0.006 A 
ATOM     17  C   UNL     1       0.297  -2.264  -0.984  0.00  0.00    +0.010 A 
ATOM     18  C   UNL     1       0.400  -2.884   0.262  0.00  0.00    +0.005 A 
ATOM     19  C   UNL     1       0.381  -2.112   1.423  0.00  0.00    +0.039 A 
ATOM     20  C   UNL     1       0.265  -0.740   1.333  0.00  0.00    +0.109 A 
BRANCH  20  21
ATOM     21  S   UNL     1       0.247   0.239   2.799  0.00  0.00    +0.059 S 
ATOM     22  O   UNL     1       0.329  -0.665   3.892  0.00  0.00    -0.153 OA
ATOM     23  O   UNL     1       1.190   1.283   2.601  0.00  0.00    -0.153 OA
BRANCH  21  24
ATOM     24  N   UNL     1      -1.243   0.957   2.890  0.00  0.00    -0.187 NA
ATOM     25  H   UNL     1      -1.319   1.923   2.847  0.00  0.00    +0.148 HD
BRANCH  24  26
ATOM     26  C   UNL     1      -2.445   0.133   3.035  0.00  0.00    +0.137 C 
BRANCH  26  27
ATOM     27  C   UNL     1      -3.609   1.008   3.504  0.00  0.00    +0.134 C 
ATOM     28  C   UNL     1      -4.875   0.143   3.732  0.00  0.00    +0.035 C 
ATOM     29  C   UNL     1      -5.648   1.016   4.758  0.00  0.00    +0.031 C 
ATOM     30  C   UNL     1      -4.503   1.645   5.582  0.00  0.00    +0.160 C 
ATOM     31  O   UNL     1      -3.314   1.586   4.785  0.00  0.00    -0.375 OA
ENDBRANCH  26  27
ENDBRANCH  24  26
ENDBRANCH  21  24
ENDBRANCH  20  21
ENDBRANCH   1  18
BRANCH  11  32
ATOM     32  C   UNL     1      -0.133  -9.066   1.823  0.00  0.00    +0.138 C 
BRANCH  32  33
ATOM     33  C   UNL     1       0.084 -10.557   1.818  0.00  0.00    -0.030 A 
ATOM     34  C   UNL     1      -0.695 -11.366   1.012  0.00  0.00    +0.005 A 
ATOM     35  C   UNL     1      -0.496 -12.734   1.007  0.00  0.00    +0.000 A 
ATOM     36  C   UNL     1       0.482 -13.293   1.807  0.00  0.00    +0.000 A 
ATOM     37  C   UNL     1       1.262 -12.484   2.612  0.00  0.00    +0.000 A 
ATOM     38  C   UNL     1       1.066 -11.116   2.614  0.00  0.00    +0.005 A 
ENDBRANCH  32  33
ENDBRANCH  11  32
TORSDOF 7
