REMARK  Name = ZINC04767791
REMARK  6 active torsions:
REMARK  status: ('A' for Active; 'I' for Inactive)
REMARK    1  A    between atoms: C_5  and  C_6
REMARK    2  A    between atoms: C_6  and  O_8
REMARK    3  A    between atoms: O_8  and  C_9
REMARK    4  A    between atoms: C_9  and  C_10
REMARK    5  A    between atoms: N_12  and  C_13
REMARK    6  A    between atoms: C_14  and  C_21
REMARK                            x       y       z     vdW  Elec       q    Type
REMARK                         _______ _______ _______ _____ _____    ______ ____
ROOT
ATOM      1  C   UNL     1      -1.579  -4.568  -0.008  0.00  0.00    +0.255 C 
ATOM      2  O   UNL     1      -0.395  -4.832  -0.020  0.00  0.00    -0.272 OA
ATOM      3  N   UNL     1      -2.491  -5.561  -0.005  0.00  0.00    -0.277 N 
ATOM      4  H   UNL     1      -3.437  -5.350   0.004  0.00  0.00    +0.155 HD
ENDROOT
BRANCH   3   5
ATOM      5  C   UNL     1      -2.075  -6.884  -0.016  0.00  0.00    +0.084 A 
ATOM      6  C   UNL     1      -2.860  -8.022  -0.021  0.00  0.00    +0.068 A 
ATOM      7  C   UNL     1      -2.171  -9.311  -0.033  0.00  0.00    -0.023 A 
ATOM      8  C   UNL     1      -0.829  -9.216  -0.037  0.00  0.00    -0.004 A 
ATOM      9  S   UNL     1      -0.504  -7.471  -0.034  0.00  0.00    -0.077 S 
ATOM     10  C   UNL     1      -0.171 -10.569  -0.046  0.00  0.00    +0.043 C 
ATOM     11  C   UNL     1      -1.286 -11.548   0.386  0.00  0.00    +0.010 C 
ATOM     12  C   UNL     1      -2.557 -10.789  -0.046  0.00  0.00    +0.037 C 
BRANCH   6  13
ATOM     13  C   UNL     1      -4.324  -7.939  -0.013  0.00  0.00    +0.244 C 
ATOM     14  O   UNL     1      -4.937  -7.897  -1.064  0.00  0.00    -0.270 OA
ATOM     15  N   UNL     1      -4.991  -7.909   1.157  0.00  0.00    -0.325 N 
ATOM     16  H   UNL     1      -4.503  -7.942   1.995  0.00  0.00    +0.145 HD
ATOM     17  H   UNL     1      -5.960  -7.854   1.163  0.00  0.00    +0.145 HD
ENDBRANCH   6  13
ENDBRANCH   3   5
BRANCH   1  18
ATOM     18  C   UNL     1      -2.031  -3.131   0.004  0.00  0.00    +0.328 C 
BRANCH  18  19
ATOM     19  O   UNL     1      -0.888  -2.272  -0.002  0.00  0.00    -0.451 OA
BRANCH  19  20
ATOM     20  C   UNL     1      -1.121  -0.944   0.007  0.00  0.00    +0.346 C 
ATOM     21  O   UNL     1      -2.263  -0.526   0.020  0.00  0.00    -0.244 OA
BRANCH  20  26
ATOM     22  C   UNL     1      -0.017   1.378   0.010  0.00  0.00    +0.026 A 
ATOM     23  C   UNL     1       1.214   2.026   0.001  0.00  0.00    -0.036 A 
ATOM     24  C   UNL     1       2.318   1.232  -0.015  0.00  0.00    -0.006 A 
ATOM     25  S   UNL     1       1.752  -0.342  -0.015  0.00  0.00    -0.086 S 
ATOM     26  C   UNL     1       0.002  -0.004   0.002  0.00  0.00    +0.097 A 
ATOM     27  C   UNL     1       3.756   1.658  -0.035  0.00  0.00    +0.043 C 
ATOM     28  C   UNL     1       3.896   3.018   0.657  0.00  0.00    +0.005 C 
ATOM     29  C   UNL     1       3.707   4.116  -0.385  0.00  0.00    +0.001 C 
ATOM     30  C   UNL     1       2.319   4.028  -1.014  0.00  0.00    +0.005 C 
ATOM     31  C   UNL     1       1.298   3.549   0.013  0.00  0.00    +0.036 C 
ENDBRANCH  20  26
ENDBRANCH  19  20
ENDBRANCH  18  19
ENDBRANCH   1  18
TORSDOF 6
