REMARK  Name = ZINC13298537
REMARK  13 active torsions:
REMARK  status: ('A' for Active; 'I' for Inactive)
REMARK    1  A    between atoms: C_1  and  C_2
REMARK    2  A    between atoms: C_2  and  C_4
REMARK    3  A    between atoms: C_2  and  C_10
REMARK    4  A    between atoms: C_4  and  C_5
REMARK    5  A    between atoms: C_5  and  C_6
REMARK    6  A    between atoms: C_6  and  C_7
REMARK    7  A    between atoms: C_7  and  C_8
REMARK    8  A    between atoms: C_7  and  C_9
REMARK    9  A    between atoms: C_16  and  C_37
REMARK   10  A    between atoms: C_24  and  O_36
REMARK   11  A    between atoms: C_26  and  O_35
REMARK   12  A    between atoms: C_27  and  C_34
REMARK   13  A    between atoms: C_30  and  O_33
REMARK                            x       y       z     vdW  Elec       q    Type
REMARK                         _______ _______ _______ _____ _____    ______ ____
ROOT
ATOM      1  C   UNL     1       0.843  -0.505   1.167  0.00  0.00    -0.002 C 
ATOM      2  C   UNL     1       1.007  -2.039   1.109  0.00  0.00    +0.004 C 
ATOM      3  C   UNL     1       0.947  -2.506   2.583  0.00  0.00    +0.004 C 
ATOM      4  C   UNL     1      -0.046  -1.511   3.239  0.00  0.00    -0.001 C 
ATOM      5  C   UNL     1       0.261  -0.182   2.539  0.00  0.00    -0.026 C 
ATOM      6  C   UNL     1      -0.860   0.821   2.576  0.00  0.00    +0.007 C 
ATOM      7  C   UNL     1      -2.231   0.210   2.293  0.00  0.00    +0.005 C 
ATOM      8  C   UNL     1      -2.481  -0.900   3.313  0.00  0.00    +0.001 C 
ATOM      9  C   UNL     1      -1.467  -2.018   3.085  0.00  0.00    -0.001 C 
ATOM     10  C   UNL     1      -1.710  -2.698   1.745  0.00  0.00    +0.038 C 
ATOM     11  C   UNL     1      -3.122  -3.295   1.714  0.00  0.00    +0.147 C 
ATOM     12  C   UNL     1      -4.154  -2.202   1.946  0.00  0.00    +0.100 C 
ATOM     13  C   UNL     1      -3.910  -1.426   3.234  0.00  0.00    +0.002 C 
ATOM     14  C   UNL     1      -4.900  -0.252   3.277  0.00  0.00    +0.012 C 
ATOM     15  C   UNL     1      -6.336  -0.769   3.247  0.00  0.00    +0.032 C 
ATOM     16  C   UNL     1      -6.581  -1.643   2.019  0.00  0.00    +0.117 C 
ATOM     17  C   UNL     1      -5.569  -2.789   1.956  0.00  0.00    +0.069 C 
ATOM     18  C   UNL     1      -4.169  -2.302   4.467  0.00  0.00    +0.014 C 
ATOM     19  C   UNL     1       1.420   0.466   3.349  0.00  0.00    +0.012 C 
ENDROOT
BRANCH   1  21
ATOM     20  C   UNL     1       0.297   1.478  -0.240  0.00  0.00    +0.008 C 
ATOM     21  C   UNL     1       0.002  -0.004   0.002  0.00  0.00    -0.010 C 
BRANCH  21  22
ATOM     22  C   UNL     1       0.345  -0.804  -1.256  0.00  0.00    +0.003 C 
BRANCH  22  23
ATOM     23  C   UNL     1      -0.587  -0.387  -2.396  0.00  0.00    +0.001 C 
BRANCH  23  24
ATOM     24  C   UNL     1      -0.244  -1.187  -3.654  0.00  0.00    +0.003 C 
BRANCH  24  25
ATOM     25  C   UNL     1      -1.175  -0.769  -4.793  0.00  0.00    -0.017 C 
ATOM     26  C   UNL     1      -0.910   0.693  -5.159  0.00  0.00    +0.007 C 
ATOM     27  C   UNL     1      -0.917  -1.655  -6.014  0.00  0.00    +0.007 C 
ENDBRANCH  24  25
ENDBRANCH  23  24
ENDBRANCH  22  23
ENDBRANCH  21  22
ENDBRANCH   1  21
BRANCH  16  28
ATOM     28  O   UNL     1      -7.904  -2.187   2.082  0.00  0.00    -0.392 OA
ATOM     29  H   UNL     1      -8.603  -1.519   2.102  0.00  0.00    +0.210 HD
ENDBRANCH  16  28
BRANCH  12  30
ATOM     30  O   UNL     1      -4.091  -1.287   0.833  0.00  0.00    -0.385 OA
ATOM     31  H   UNL     1      -4.277  -1.696  -0.023  0.00  0.00    +0.210 HD
ENDBRANCH  12  30
BRANCH  11  32
ATOM     32  O   UNL     1      -3.233  -4.345   2.669  0.00  0.00    -0.389 OA
ATOM     33  H   UNL     1      -2.618  -5.076   2.522  0.00  0.00    +0.210 HD
ENDBRANCH  11  32
TORSDOF 8
