REMARK  Name = ZINC64479934
REMARK  5 active torsions:
REMARK  status: ('A' for Active; 'I' for Inactive)
REMARK    1  A    between atoms: C_7  and  C_10
REMARK    2  A    between atoms: C_10  and  C_11
REMARK    3  A    between atoms: C_11  and  N_12
REMARK    4  A    between atoms: C_13  and  N_22
REMARK    5  A    between atoms: C_16  and  O_21
REMARK                            x       y       z     vdW  Elec       q    Type
REMARK                         _______ _______ _______ _____ _____    ______ ____
ROOT
ATOM      1  N   UNL     1      -0.458  -4.798  -1.460  0.00  0.00    -0.300 N 
ATOM      2  C   UNL     1       0.088  -6.152  -1.357  0.00  0.00    +0.021 C 
ATOM      3  C   UNL     1      -0.853  -7.129  -2.071  0.00  0.00    +0.054 C 
ATOM      4  C   UNL     1      -2.256  -6.981  -1.472  0.00  0.00    +0.203 C 
ATOM      5  N   UNL     1      -2.674  -5.582  -1.569  0.00  0.00    -0.274 N 
ATOM      6  C   UNL     1      -1.779  -4.583  -1.548  0.00  0.00    +0.303 C 
ATOM      7  O   UNL     1      -2.181  -3.437  -1.616  0.00  0.00    -0.253 OA
ATOM      8  H   UNL     1      -3.618  -5.373  -1.647  0.00  0.00    +0.153 HD
ENDROOT
BRANCH   2   9
ATOM      9  N   UNL     1       1.414  -6.196  -1.986  0.00  0.00    +0.390 N 
ATOM     10  H   UNL     1       2.030  -5.549  -1.518  0.00  0.00    -0.087 HD
ATOM     11  H   UNL     1       1.790  -7.130  -1.915  0.00  0.00    -0.087 HD
ATOM     12  H   UNL     1       1.333  -5.940  -2.959  0.00  0.00    -0.087 HD
ENDBRANCH   2   9
BRANCH   4  13
ATOM     13  O   UNL     1      -2.234  -7.380  -0.100  0.00  0.00    -0.374 OA
ATOM     14  H   UNL     1      -3.091  -7.312   0.343  0.00  0.00    +0.212 HD
ENDBRANCH   4  13
BRANCH   1  15
ATOM     15  C   UNL     1       0.457  -3.653  -1.462  0.00  0.00    +0.112 C 
BRANCH  15  16
ATOM     16  C   UNL     1       0.691  -3.186  -0.024  0.00  0.00    +0.052 C 
BRANCH  16  23
ATOM     17  C   UNL     1      -0.016   1.348   0.009  0.00  0.00    +0.001 A 
ATOM     18  C   UNL     1       1.166   2.101   0.002  0.00  0.00    +0.002 A 
ATOM     19  C   UNL     1       2.391   1.535  -0.013  0.00  0.00    +0.026 A 
ATOM     20  C   UNL     1       2.529   0.120  -0.022  0.00  0.00    +0.043 A 
ATOM     21  N   UNL     1       3.587  -0.654  -0.037  0.00  0.00    -0.380 N 
ATOM     22  C   UNL     1       3.143  -2.053  -0.041  0.00  0.00    +0.144 C 
ATOM     23  C   UNL     1       1.631  -2.008  -0.025  0.00  0.00    -0.040 C 
ATOM     24  C   UNL     1       1.295  -0.698  -0.014  0.00  0.00    -0.001 A 
ATOM     25  C   UNL     1       0.002  -0.004   0.002  0.00  0.00    +0.010 A 
ATOM     26  H   UNL     1       4.509  -0.353  -0.045  0.00  0.00    +0.160 HD
ENDBRANCH  16  23
ENDBRANCH  15  16
ENDBRANCH   1  15
TORSDOF 5
