REMARK  Name = ZINC40921062
REMARK  9 active torsions:
REMARK  status: ('A' for Active; 'I' for Inactive)
REMARK    1  A    between atoms: C_1  and  C_2
REMARK    2  A    between atoms: C_2  and  O_3
REMARK    3  A    between atoms: O_3  and  C_4
REMARK    4  A    between atoms: C_4  and  C_6
REMARK    5  A    between atoms: C_7  and  C_32
REMARK    6  A    between atoms: C_14  and  C_16
REMARK    7  A    between atoms: C_19  and  O_22
REMARK    8  A    between atoms: O_22  and  C_23
REMARK    9  A    between atoms: C_23  and  C_24
REMARK                            x       y       z     vdW  Elec       q    Type
REMARK                         _______ _______ _______ _____ _____    ______ ____
ROOT
ATOM      1  C   UNL     1      -2.795  -2.429   0.223  0.00  0.00    +0.082 C 
ATOM      2  C   UNL     1      -2.919  -3.729  -0.087  0.00  0.00    +0.020 C 
ATOM      3  N   UNL     1      -4.141  -4.321  -0.287  0.00  0.00    -0.286 N 
ATOM      4  C   UNL     1      -5.267  -3.604   0.091  0.00  0.00    +0.240 A 
ATOM      5  N   UNL     1      -6.510  -3.972   0.222  0.00  0.00    -0.092 NA
ATOM      6  N   UNL     1      -7.233  -2.975   0.602  0.00  0.00    -0.021 NA
ATOM      7  N   UNL     1      -6.505  -1.914   0.736  0.00  0.00    -0.042 NA
ATOM      8  N   UNL     1      -5.202  -2.284   0.405  0.00  0.00    -0.201 N 
ATOM      9  C   UNL     1      -3.973  -1.503   0.374  0.00  0.00    +0.181 C 
ATOM     10  C   UNL     1      -1.674  -4.567  -0.222  0.00  0.00    +0.061 C 
ATOM     11  H   UNL     1      -4.215  -5.207  -0.677  0.00  0.00    +0.155 HD
ENDROOT
BRANCH   9  12
ATOM     12  C   UNL     1      -4.017  -0.551  -0.793  0.00  0.00    -0.018 A 
ATOM     13  C   UNL     1      -4.146  -1.042  -2.080  0.00  0.00    +0.009 A 
ATOM     14  C   UNL     1      -4.187  -0.171  -3.151  0.00  0.00    +0.046 A 
ATOM     15  C   UNL     1      -4.098   1.197  -2.936  0.00  0.00    +0.121 A 
ATOM     16  C   UNL     1      -3.969   1.686  -1.645  0.00  0.00    +0.046 A 
ATOM     17  C   UNL     1      -3.934   0.812  -0.576  0.00  0.00    +0.009 A 
BRANCH  15  18
ATOM     18  O   UNL     1      -4.137   2.055  -3.989  0.00  0.00    -0.487 OA
BRANCH  18  19
ATOM     19  C   UNL     1      -4.040   3.450  -3.693  0.00  0.00    +0.264 C 
BRANCH  19  20
ATOM     20  C   UNL     1      -4.101   4.241  -4.974  0.00  0.00    -0.009 A 
ATOM     21  C   UNL     1      -2.937   4.536  -5.659  0.00  0.00    +0.008 A 
ATOM     22  C   UNL     1      -2.991   5.262  -6.834  0.00  0.00    +0.022 A 
ATOM     23  C   UNL     1      -4.211   5.693  -7.325  0.00  0.00    +0.059 A 
ATOM     24  C   UNL     1      -5.376   5.397  -6.639  0.00  0.00    +0.060 A 
ATOM     25  C   UNL     1      -5.321   4.666  -5.466  0.00  0.00    +0.028 A 
ATOM     26 CL   UNL     1      -6.907   5.938  -7.254  0.00  0.00    -0.082 Cl
ATOM     27 CL   UNL     1      -4.280   6.605  -8.801  0.00  0.00    -0.082 Cl
ENDBRANCH  19  20
ENDBRANCH  18  19
ENDBRANCH  15  18
ENDBRANCH   9  12
BRANCH   1  28
ATOM     28  C   UNL     1      -1.498  -1.906   0.422  0.00  0.00    +0.339 C 
ATOM     29  O   UNL     1      -1.065  -1.767   1.551  0.00  0.00    -0.245 OA
BRANCH  28  30
ATOM     30  O   UNL     1      -0.739  -1.561  -0.639  0.00  0.00    -0.462 OA
BRANCH  30  32
ATOM     31  C   UNL     1       1.268  -0.707  -1.681  0.00  0.00    +0.048 C 
ATOM     32  C   UNL     1       0.563  -1.039  -0.364  0.00  0.00    +0.229 C 
ENDBRANCH  30  32
ENDBRANCH  28  30
ENDBRANCH   1  28
TORSDOF 7
