REMARK  Name = ZINC61864742
REMARK  9 active torsions:
REMARK  status: ('A' for Active; 'I' for Inactive)
REMARK    1  A    between atoms: C_1  and  C_2
REMARK    2  A    between atoms: C_2  and  C_3
REMARK    3  A    between atoms: C_3  and  C_4
REMARK    4  A    between atoms: N_13  and  C_14
REMARK    5  A    between atoms: N_17  and  C_20
REMARK    6  A    between atoms: C_20  and  C_21
REMARK    7  A    between atoms: N_23  and  C_24
REMARK    8  A    between atoms: C_24  and  C_25
REMARK    9  A    between atoms: C_25  and  C_26
REMARK                            x       y       z     vdW  Elec       q    Type
REMARK                         _______ _______ _______ _____ _____    ______ ____
ROOT
ATOM      1  C   UNL     1      -4.271  -5.561   4.112  0.00  0.00    +0.071 C 
ATOM      2  C   UNL     1      -3.862  -6.928   4.668  0.00  0.00    +0.004 C 
ATOM      3  C   UNL     1      -4.514  -7.130   6.037  0.00  0.00    -0.076 C 
ATOM      4  N   UNL     1      -5.974  -7.073   5.901  0.00  0.00    +0.385 N 
ATOM      5  C   UNL     1      -6.379  -5.740   5.436  0.00  0.00    -0.076 C 
ATOM      6  C   UNL     1      -5.799  -5.484   4.044  0.00  0.00    +0.004 C 
ATOM      7  H   UNL     1      -6.277  -7.767   5.234  0.00  0.00    -0.081 HD
ENDROOT
BRANCH   1  17
ATOM      8  C   UNL     1      -1.169  -6.553  -0.818  0.00  0.00    -0.009 C 
ATOM      9  C   UNL     1      -0.018  -6.200   0.119  0.00  0.00    +0.005 C 
ATOM     10  C   UNL     1       0.184  -4.705   0.121  0.00  0.00    +0.019 C 
ATOM     11  C   UNL     1      -0.641  -4.061   1.250  0.00  0.00    +0.109 C 
ATOM     12  N   UNL     1      -1.979  -4.672   1.379  0.00  0.00    -0.286 N 
ATOM     13  C   UNL     1      -2.797  -5.010   0.236  0.00  0.00    +0.109 C 
ATOM     14  C   UNL     1      -2.501  -6.466  -0.202  0.00  0.00    +0.022 C 
ATOM     15  C   UNL     1      -2.457  -4.925   2.614  0.00  0.00    +0.302 C 
ATOM     16  O   UNL     1      -1.756  -4.733   3.589  0.00  0.00    -0.253 OA
ATOM     17  N   UNL     1      -3.712  -5.391   2.768  0.00  0.00    -0.297 N 
ATOM     18  H   UNL     1      -4.245  -5.615   1.989  0.00  0.00    +0.151 HD
BRANCH   8  19
ATOM     19  C   UNL     1      -0.961  -7.981  -1.326  0.00  0.00    +0.003 C 
BRANCH  19  21
ATOM     20  C   UNL     1      -1.751  -9.703  -2.955  0.00  0.00    +0.004 C 
ATOM     21  C   UNL     1      -1.959  -8.274  -2.448  0.00  0.00    -0.003 C 
ENDBRANCH  19  21
ENDBRANCH   8  19
ENDBRANCH   1  17
BRANCH   4  22
ATOM     22  C   UNL     1      -6.597  -7.345   7.204  0.00  0.00    +0.019 C 
BRANCH  22  23
ATOM     23  C   UNL     1      -8.094  -7.408   7.041  0.00  0.00    +0.196 C 
ATOM     24  O   UNL     1      -8.593  -7.242   5.949  0.00  0.00    -0.278 OA
ATOM     25  N   UNL     1      -8.878  -7.648   8.111  0.00  0.00    -0.317 N 
ATOM     26  H   UNL     1      -8.479  -7.781   8.985  0.00  0.00    +0.149 HD
BRANCH  25  27
ATOM     27  C   UNL     1     -10.334  -7.709   7.953  0.00  0.00    +0.104 C 
BRANCH  27  28
ATOM     28  C   UNL     1     -10.982  -7.993   9.309  0.00  0.00    +0.015 C 
ATOM     29  C   UNL     1     -12.502  -8.056   9.145  0.00  0.00    +0.005 C 
ENDBRANCH  27  28
ENDBRANCH  25  27
ENDBRANCH  22  23
ENDBRANCH   4  22
TORSDOF 7
