REMARK  Name = ZINC40373223
REMARK  7 active torsions:
REMARK  status: ('A' for Active; 'I' for Inactive)
REMARK    1  A    between atoms: C_1  and  C_2
REMARK    2  A    between atoms: C_2  and  C_3
REMARK    3  A    between atoms: C_3  and  C_4
REMARK    4  A    between atoms: C_3  and  C_5
REMARK    5  A    between atoms: C_3  and  N_9
REMARK    6  A    between atoms: N_6  and  O_7
REMARK    7  A    between atoms: C_10  and  C_12
REMARK                            x       y       z     vdW  Elec       q    Type
REMARK                         _______ _______ _______ _____ _____    ______ ____
ROOT
ATOM      1  N   UNL     1       0.081   0.085  -2.441  0.00  0.00    -0.299 N 
ATOM      2  C   UNL     1      -1.221  -0.155  -2.692  0.00  0.00    +0.251 C 
ATOM      3  O   UNL     1      -1.868  -0.855  -1.935  0.00  0.00    -0.270 OA
ATOM      4  H   UNL     1       0.597   0.642  -3.044  0.00  0.00    +0.150 HD
ENDROOT
BRANCH   2   5
ATOM      5  C   UNL     1      -1.858   0.427  -3.877  0.00  0.00    +0.074 A 
ATOM      6  C   UNL     1      -3.165   0.313  -4.309  0.00  0.00    +0.024 A 
ATOM      7  C   UNL     1      -3.503   0.978  -5.484  0.00  0.00    -0.036 A 
ATOM      8  C   UNL     1      -2.508   1.676  -6.092  0.00  0.00    -0.006 A 
ATOM      9  S   UNL     1      -1.152   1.476  -5.133  0.00  0.00    -0.088 S 
ATOM     10  C   UNL     1      -2.588   2.472  -7.361  0.00  0.00    +0.043 C 
ATOM     11  C   UNL     1      -4.014   3.003  -7.543  0.00  0.00    +0.005 C 
ATOM     12  C   UNL     1      -4.825   1.966  -8.313  0.00  0.00    +0.001 C 
ATOM     13  C   UNL     1      -4.887   0.650  -7.541  0.00  0.00    +0.005 C 
ATOM     14  C   UNL     1      -4.921   0.916  -6.040  0.00  0.00    +0.036 C 
ENDBRANCH   2   5
BRANCH   1  15
ATOM     15  C   UNL     1       0.718  -0.497  -1.257  0.00  0.00    +0.090 C 
ATOM     16  C   UNL     1       0.630  -2.023  -1.329  0.00  0.00    +0.040 C 
BRANCH  15  17
ATOM     17  C   UNL     1       2.165  -0.079  -1.208  0.00  0.00    +0.155 C 
ATOM     18  N   UNL     1       2.633   0.507  -0.156  0.00  0.00    -0.075 NA
ATOM     19  N   UNL     1       2.989  -0.323  -2.285  0.00  0.00    -0.342 N 
ATOM     20  H   UNL     1       2.638  -0.763  -3.074  0.00  0.00    +0.144 HD
ATOM     21  H   UNL     1       3.920  -0.053  -2.253  0.00  0.00    +0.144 HD
BRANCH  18  22
ATOM     22  O   UNL     1       3.993   0.900  -0.110  0.00  0.00    -0.408 OA
ATOM     23  H   UNL     1       4.250   1.331   0.716  0.00  0.00    +0.328 HD
ENDBRANCH  18  22
ENDBRANCH  15  17
BRANCH  15  25
ATOM     24  C   UNL     1      -0.019   1.526   0.010  0.00  0.00    +0.006 C 
ATOM     25  C   UNL     1       0.002  -0.004   0.002  0.00  0.00    +0.030 C 
ENDBRANCH  15  25
ENDBRANCH   1  15
TORSDOF 5
