REMARK  Name = ZINC28054986
REMARK  5 active torsions:
REMARK  status: ('A' for Active; 'I' for Inactive)
REMARK    1  A    between atoms: C_1  and  C_2
REMARK    2  A    between atoms: C_10  and  C_18
REMARK    3  A    between atoms: C_25  and  C_28
REMARK    4  A    between atoms: C_33  and  O_34
REMARK    5  A    between atoms: O_34  and  C_35
REMARK                            x       y       z     vdW  Elec       q    Type
REMARK                         _______ _______ _______ _____ _____    ______ ____
ROOT
ATOM      1  C   UNL     1       7.275   3.458  -3.241  0.00  0.00    +0.044 C 
ATOM      2  C   UNL     1       6.179   3.536  -2.210  0.00  0.00    -0.050 A 
ATOM      3  C   UNL     1       6.419   3.108  -0.915  0.00  0.00    +0.007 A 
ATOM      4  C   UNL     1       5.423   3.173   0.042  0.00  0.00    +0.046 A 
ATOM      5  C   UNL     1       4.178   3.669  -0.296  0.00  0.00    +0.131 A 
ATOM      6  C   UNL     1       3.933   4.102  -1.606  0.00  0.00    +0.038 A 
ATOM      7  C   UNL     1       4.939   4.033  -2.562  0.00  0.00    +0.016 A 
ATOM      8  C   UNL     1       2.587   4.631  -1.931  0.00  0.00    +0.050 C 
ATOM      9  C   UNL     1       1.581   4.363  -1.097  0.00  0.00    +0.026 C 
ATOM     10  C   UNL     1       0.176   4.859  -1.338  0.00  0.00    +0.174 C 
ATOM     11  N   UNL     1       0.175   5.870  -2.386  0.00  0.00    -0.201 N 
ATOM     12  C   UNL     1       1.230   6.108  -3.209  0.00  0.00    +0.240 A 
ATOM     13  N   UNL     1       0.877   7.059  -4.027  0.00  0.00    -0.092 NA
ATOM     14  N   UNL     1      -0.327   7.443  -3.771  0.00  0.00    -0.021 NA
ATOM     15  N   UNL     1      -0.817   6.766  -2.784  0.00  0.00    -0.042 NA
ATOM     16  N   UNL     1       2.412   5.397  -3.091  0.00  0.00    -0.282 N 
ATOM     17  C   UNL     1       1.847   3.528   0.135  0.00  0.00    +0.238 C 
ATOM     18  O   UNL     1       3.174   3.749   0.613  0.00  0.00    -0.479 OA
ATOM     19  H   UNL     1       3.197   5.415  -3.861  0.00  0.00    +0.155 HD
ENDROOT
BRANCH  10  20
ATOM     20  C   UNL     1      -0.697   3.705  -1.757  0.00  0.00    -0.019 A 
ATOM     21  C   UNL     1      -0.275   2.846  -2.754  0.00  0.00    +0.009 A 
ATOM     22  C   UNL     1      -1.072   1.783  -3.135  0.00  0.00    +0.039 A 
ATOM     23  C   UNL     1      -2.299   1.586  -2.525  0.00  0.00    +0.123 A 
ATOM     24  C   UNL     1      -2.724   2.450  -1.530  0.00  0.00    +0.039 A 
ATOM     25  C   UNL     1      -1.922   3.508  -1.147  0.00  0.00    +0.009 A 
ATOM     26  F   UNL     1      -3.082   0.551  -2.901  0.00  0.00    -0.205 F 
ENDBRANCH  10  20
BRANCH  17  27
ATOM     27  C   UNL     1       1.678   2.070  -0.206  0.00  0.00    +0.039 A 
ATOM     28  C   UNL     1       2.681   1.396  -0.875  0.00  0.00    +0.011 A 
ATOM     29  C   UNL     1       2.526   0.059  -1.189  0.00  0.00    +0.001 A 
ATOM     30  C   UNL     1       1.368  -0.608  -0.835  0.00  0.00    +0.004 A 
ATOM     31  C   UNL     1       0.361   0.062  -0.166  0.00  0.00    +0.046 A 
ATOM     32  C   UNL     1       0.514   1.404   0.150  0.00  0.00    +0.127 A 
BRANCH  32  33
ATOM     33  O   UNL     1      -0.476   2.067   0.803  0.00  0.00    -0.495 OA
ATOM     34  C   UNL     1      -1.593   1.293   1.244  0.00  0.00    +0.277 C 
ENDBRANCH  32  33
ENDBRANCH  17  27
TORSDOF 3
