REMARK  Name = ZINC59922127
REMARK  6 active torsions:
REMARK  status: ('A' for Active; 'I' for Inactive)
REMARK    1  A    between atoms: C_1  and  C_2
REMARK    2  A    between atoms: C_2  and  C_15
REMARK    3  A    between atoms: N_3  and  N_4
REMARK    4  A    between atoms: C_5  and  C_7
REMARK    5  A    between atoms: C_12  and  O_13
REMARK    6  A    between atoms: C_19  and  N_21
REMARK                            x       y       z     vdW  Elec       q    Type
REMARK                         _______ _______ _______ _____ _____    ______ ____
ROOT
ATOM      1  N   UNL     1       0.024   0.035   2.339  0.00  0.00    -0.203 N 
ATOM      2  C   UNL     1       0.044  -0.645   3.503  0.00  0.00    +0.267 C 
ATOM      3  O   UNL     1       0.060  -1.861   3.496  0.00  0.00    -0.268 OA
ATOM      4  H   UNL     1       0.011   1.005   2.345  0.00  0.00    +0.178 HD
ENDROOT
BRANCH   2   5
ATOM      5  C   UNL     1       0.046   0.085   4.784  0.00  0.00    +0.081 A 
ATOM      6  C   UNL     1       0.021   1.482   4.796  0.00  0.00    +0.032 A 
ATOM      7  C   UNL     1       0.024   2.159   5.997  0.00  0.00    +0.019 A 
ATOM      8  C   UNL     1       0.050   1.460   7.194  0.00  0.00    +0.019 A 
ATOM      9  C   UNL     1       0.075   0.079   7.195  0.00  0.00    +0.047 A 
ATOM     10  C   UNL     1       0.067  -0.618   5.996  0.00  0.00    +0.129 A 
ATOM     11 BR   UNL     1      -0.009   4.050   6.013  0.00  0.00    -0.050 Br
BRANCH  10  12
ATOM     12  O   UNL     1       0.086  -1.974   5.997  0.00  0.00    -0.506 OA
ATOM     13  H   UNL     1       0.974  -2.356   5.988  0.00  0.00    +0.292 HD
ENDBRANCH  10  12
ENDBRANCH   2   5
BRANCH   1  16
ATOM     14  C   UNL     1      -0.018   1.503   0.010  0.00  0.00    +0.068 C 
ATOM     15  C   UNL     1       0.002  -0.004   0.002  0.00  0.00    +0.063 C 
ATOM     16  N   UNL     1       0.022  -0.659   1.122  0.00  0.00    -0.184 NA
BRANCH  15  17
ATOM     17  C   UNL     1      -0.000  -0.735  -1.279  0.00  0.00    -0.000 A 
ATOM     18  C   UNL     1      -0.015  -0.033  -2.487  0.00  0.00    +0.010 A 
ATOM     19  C   UNL     1      -0.017  -0.722  -3.681  0.00  0.00    +0.003 A 
ATOM     20  C   UNL     1      -0.004  -2.106  -3.685  0.00  0.00    +0.033 A 
ATOM     21  C   UNL     1       0.011  -2.808  -2.493  0.00  0.00    +0.127 A 
ATOM     22  C   UNL     1       0.019  -2.131  -1.291  0.00  0.00    +0.042 A 
BRANCH  21  23
ATOM     23  N   UNL     1       0.025  -4.288  -2.507  0.00  0.00    +0.056 N 
ATOM     24  O   UNL     1       0.023  -4.882  -3.560  0.00  0.00    -0.126 OA
ATOM     25  O   UNL     1       0.038  -4.902  -1.466  0.00  0.00    -0.126 OA
ENDBRANCH  21  23
ENDBRANCH  15  17
ENDBRANCH   1  16
TORSDOF 5
