REMARK  Name = ZINC67451734
REMARK  8 active torsions:
REMARK  status: ('A' for Active; 'I' for Inactive)
REMARK    1  A    between atoms: C_1  and  C_2
REMARK    2  A    between atoms: C_15  and  C_17
REMARK    3  A    between atoms: C_17  and  N_18
REMARK    4  A    between atoms: N_18  and  C_19
REMARK    5  A    between atoms: C_23  and  C_25
REMARK    6  A    between atoms: C_25  and  C_27
REMARK    7  A    between atoms: C_25  and  S_28
REMARK    8  A    between atoms: S_28  and  C_29
REMARK                            x       y       z     vdW  Elec       q    Type
REMARK                         _______ _______ _______ _____ _____    ______ ____
ROOT
ATOM      1  C   UNL     1      -0.019   1.526   0.010  0.00  0.00    +0.029 C 
ATOM      2  C   UNL     1       0.002  -0.004   0.002  0.00  0.00    +0.087 C 
ATOM      3  C   UNL     1       0.715  -0.496  -1.259  0.00  0.00    +0.118 C 
ATOM      4  C   UNL     1       1.097  -1.944  -1.106  0.00  0.00    +0.219 C 
ATOM      5  O   UNL     1       0.459  -2.800  -1.683  0.00  0.00    -0.275 OA
ATOM      6  N   UNL     1       2.146  -2.297  -0.332  0.00  0.00    -0.284 N 
ATOM      7  C   UNL     1       2.832  -1.333   0.416  0.00  0.00    +0.055 A 
ATOM      8  C   UNL     1       4.214  -1.255   0.377  0.00  0.00    +0.025 A 
ATOM      9  C   UNL     1       4.871  -0.309   1.143  0.00  0.00    +0.002 A 
ATOM     10  C   UNL     1       4.154   0.557   1.947  0.00  0.00    +0.002 A 
ATOM     11  C   UNL     1       2.773   0.492   1.984  0.00  0.00    +0.025 A 
ATOM     12  C   UNL     1       2.107  -0.445   1.211  0.00  0.00    +0.058 A 
ATOM     13  N   UNL     1       0.707  -0.488   1.190  0.00  0.00    -0.265 N 
ATOM     14  C   UNL     1       0.022  -0.966   2.248  0.00  0.00    +0.237 C 
ATOM     15  O   UNL     1      -1.190  -0.998   2.221  0.00  0.00    -0.274 OA
ATOM     16  H   UNL     1       2.425  -3.225  -0.293  0.00  0.00    +0.155 HD
ENDROOT
BRANCH  14  17
ATOM     17  C   UNL     1       0.762  -1.460   3.464  0.00  0.00    +0.198 C 
BRANCH  17  18
ATOM     18  N   UNL     1      -0.201  -1.924   4.466  0.00  0.00    -0.335 N 
ATOM     19  H   UNL     1      -1.152  -1.879   4.282  0.00  0.00    +0.147 HD
BRANCH  18  20
ATOM     20  C   UNL     1       0.251  -2.430   5.687  0.00  0.00    +0.028 A 
ATOM     21  C   UNL     1       1.613  -2.489   5.955  0.00  0.00    +0.023 A 
ATOM     22  C   UNL     1       2.057  -2.990   7.163  0.00  0.00    +0.002 A 
ATOM     23  C   UNL     1       1.147  -3.433   8.105  0.00  0.00    +0.005 A 
ATOM     24  C   UNL     1      -0.210  -3.376   7.842  0.00  0.00    -0.033 A 
ATOM     25  C   UNL     1      -0.660  -2.871   6.638  0.00  0.00    +0.027 A 
BRANCH  24  26
ATOM     26  C   UNL     1      -1.197  -3.861   8.872  0.00  0.00    +0.073 C 
ATOM     27  C   UNL     1      -0.940  -5.340   9.169  0.00  0.00    +0.024 C 
BRANCH  26  28
ATOM     28  S   UNL     1      -1.006  -2.896  10.395  0.00  0.00    -0.156 S 
ATOM     29  C   UNL     1      -2.347  -3.489  11.463  0.00  0.00    +0.085 C 
ENDBRANCH  26  28
ENDBRANCH  24  26
ENDBRANCH  18  20
ENDBRANCH  17  18
ENDBRANCH  14  17
TORSDOF 5
