REMARK  Name = ZINC10026102
REMARK  8 active torsions:
REMARK  status: ('A' for Active; 'I' for Inactive)
REMARK    1  A    between atoms: C_1  and  C_2
REMARK    2  A    between atoms: C_2  and  C_4
REMARK    3  A    between atoms: C_2  and  N_57
REMARK    4  A    between atoms: C_16  and  C_17
REMARK    5  A    between atoms: C_16  and  C_18
REMARK    6  A    between atoms: C_19  and  C_20
REMARK    7  A    between atoms: C_19  and  C_26
REMARK    8  A    between atoms: C_19  and  N_57
REMARK                            x       y       z     vdW  Elec       q    Type
REMARK                         _______ _______ _______ _____ _____    ______ ____
ROOT
ATOM      1  C   UNL     1      -1.856   2.558  -2.751  0.00  0.00    -0.004 C 
ATOM      2  C   UNL     1      -3.096   2.397  -1.870  0.00  0.00    +0.015 C 
ENDROOT
BRANCH   2   3
ATOM      3  C   UNL     1      -3.219   3.586  -0.952  0.00  0.00    +0.206 C 
ATOM      4  O   UNL     1      -4.273   4.179  -0.865  0.00  0.00    -0.277 OA
ATOM      5  N   UNL     1      -2.156   3.991  -0.228  0.00  0.00    -0.257 N 
ATOM      6  C   UNL     1      -0.955   3.264  -0.236  0.00  0.00    +0.058 A 
ATOM      7  C   UNL     1      -0.949   1.897  -0.445  0.00  0.00    +0.025 A 
ATOM      8  C   UNL     1       0.251   1.207  -0.435  0.00  0.00    +0.002 A 
ATOM      9  C   UNL     1       1.440   1.883  -0.230  0.00  0.00    +0.002 A 
ATOM     10  C   UNL     1       1.441   3.251  -0.029  0.00  0.00    +0.025 A 
ATOM     11  C   UNL     1       0.244   3.949  -0.032  0.00  0.00    +0.055 A 
ATOM     12  N   UNL     1       0.223   5.335   0.163  0.00  0.00    -0.282 N 
ATOM     13  C   UNL     1      -0.930   5.974   0.437  0.00  0.00    +0.241 C 
ATOM     14  O   UNL     1      -0.931   7.181   0.559  0.00  0.00    -0.273 OA
ATOM     15  C   UNL     1      -2.218   5.208   0.595  0.00  0.00    +0.113 C 
ATOM     16  C   UNL     1      -2.409   4.823   2.063  0.00  0.00    +0.042 C 
ATOM     17  C   UNL     1      -3.390   6.077   0.135  0.00  0.00    +0.042 C 
ATOM     18  H   UNL     1       1.049   5.840   0.101  0.00  0.00    +0.155 HD
ENDBRANCH   2   3
BRANCH   2  19
ATOM     19  N   UNL     1      -4.298   2.316  -2.721  0.00  0.00    +0.394 N 
ATOM     20  H   UNL     1      -4.175   2.924  -3.539  0.00  0.00    -0.083 HD
ATOM     21  H   UNL     1      -5.116   2.628  -2.183  0.00  0.00    -0.083 HD
BRANCH  19  22
ATOM     22  C   UNL     1      -4.513   0.929  -3.174  0.00  0.00    -0.009 C 
BRANCH  22  23
ATOM     23  C   UNL     1      -5.974   0.732  -3.487  0.00  0.00    -0.057 A 
ATOM     24  C   UNL     1      -6.687   1.734  -4.119  0.00  0.00    +0.002 A 
ATOM     25  C   UNL     1      -8.025   1.552  -4.412  0.00  0.00    +0.000 A 
ATOM     26  C   UNL     1      -8.654   0.371  -4.063  0.00  0.00    +0.000 A 
ATOM     27  C   UNL     1      -7.943  -0.629  -3.426  0.00  0.00    +0.000 A 
ATOM     28  C   UNL     1      -6.603  -0.449  -3.139  0.00  0.00    +0.002 A 
ENDBRANCH  22  23
BRANCH  22  29
ATOM     29  C   UNL     1      -3.694   0.671  -4.412  0.00  0.00    -0.057 A 
ATOM     30  C   UNL     1      -3.587   1.647  -5.385  0.00  0.00    +0.002 A 
ATOM     31  C   UNL     1      -2.831   1.412  -6.519  0.00  0.00    +0.000 A 
ATOM     32  C   UNL     1      -2.192   0.197  -6.684  0.00  0.00    +0.000 A 
ATOM     33  C   UNL     1      -2.304  -0.780  -5.713  0.00  0.00    +0.000 A 
ATOM     34  C   UNL     1      -3.055  -0.544  -4.577  0.00  0.00    +0.002 A 
ENDBRANCH  22  29
ENDBRANCH  19  22
ENDBRANCH   2  19
TORSDOF 5
