REMARK  Name = ZINC48435646
REMARK  8 active torsions:
REMARK  status: ('A' for Active; 'I' for Inactive)
REMARK    1  A    between atoms: C_1  and  C_2
REMARK    2  A    between atoms: C_2  and  C_3
REMARK    3  A    between atoms: C_3  and  C_4
REMARK    4  A    between atoms: C_4  and  C_5
REMARK    5  A    between atoms: C_11  and  C_13
REMARK    6  A    between atoms: C_16  and  C_19
REMARK    7  A    between atoms: C_19  and  N_20
REMARK    8  A    between atoms: C_25  and  C_27
REMARK                            x       y       z     vdW  Elec       q    Type
REMARK                         _______ _______ _______ _____ _____    ______ ____
ROOT
ATOM      1  C   UNL     1      -5.389  -3.309   2.518  0.00  0.00    +0.017 A 
ATOM      2  C   UNL     1      -6.698  -3.793   2.582  0.00  0.00    +0.012 A 
ATOM      3  C   UNL     1      -7.325  -3.917   3.804  0.00  0.00    +0.002 A 
ATOM      4  C   UNL     1      -6.662  -3.561   4.965  0.00  0.00    -0.064 A 
ATOM      5  C   UNL     1      -5.365  -3.081   4.909  0.00  0.00    +0.002 A 
ATOM      6  C   UNL     1      -4.724  -2.958   3.694  0.00  0.00    +0.012 A 
ENDROOT
BRANCH   1  13
ATOM      7  C   UNL     1      -2.826  -2.585   0.015  0.00  0.00    +0.049 A 
ATOM      8  C   UNL     1      -3.438  -2.916  -1.158  0.00  0.00    +0.093 A 
ATOM      9  C   UNL     1      -4.760  -3.402  -1.122  0.00  0.00    +0.252 A 
ATOM     10  O   UNL     1      -5.339  -3.708  -2.152  0.00  0.00    -0.268 OA
ATOM     11  N   UNL     1      -5.375  -3.523   0.074  0.00  0.00    -0.307 N 
ATOM     12  H   UNL     1      -6.285  -3.855   0.123  0.00  0.00    +0.170 HD
ATOM     13  C   UNL     1      -4.711  -3.175   1.213  0.00  0.00    +0.141 A 
ATOM     14  N   UNL     1      -3.474  -2.727   1.170  0.00  0.00    -0.234 NA
BRANCH   7  15
ATOM     15  C   UNL     1      -1.413  -2.063   0.004  0.00  0.00    +0.055 C 
BRANCH  15  16
ATOM     16  C   UNL     1      -1.433  -0.534   0.013  0.00  0.00    +0.006 C 
BRANCH  16  18
ATOM     17  C   UNL     1      -0.019   1.526   0.010  0.00  0.00    +0.004 C 
ATOM     18  C   UNL     1       0.002  -0.004   0.002  0.00  0.00    -0.003 C 
ENDBRANCH  16  18
ENDBRANCH  15  16
ENDBRANCH   7  15
ENDBRANCH   1  13
BRANCH   4  19
ATOM     19  C   UNL     1      -7.354  -3.697   6.297  0.00  0.00    -0.043 C 
BRANCH  19  20
ATOM     20  N   UNL     1      -7.096  -5.034   6.849  0.00  0.00    +0.384 N 
ATOM     21  C   UNL     1      -7.705  -6.047   5.979  0.00  0.00    -0.078 C 
ATOM     22  C   UNL     1      -7.370  -7.445   6.505  0.00  0.00    -0.019 C 
ATOM     23  C   UNL     1      -7.918  -7.594   7.927  0.00  0.00    -0.003 C 
ATOM     24  C   UNL     1      -7.333  -6.486   8.808  0.00  0.00    -0.016 C 
ATOM     25  C   UNL     1      -7.669  -5.125   8.197  0.00  0.00    -0.071 C 
ATOM     26  C   UNL     1      -7.086  -4.015   9.074  0.00  0.00    -0.013 C 
ATOM     27  H   UNL     1      -6.100  -5.190   6.897  0.00  0.00    -0.081 HD
ENDBRANCH  19  20
ENDBRANCH   4  19
TORSDOF 6
