REMARK  Name = ZINC08031611
REMARK  8 active torsions:
REMARK  status: ('A' for Active; 'I' for Inactive)
REMARK    1  A    between atoms: C_1  and  C_2
REMARK    2  A    between atoms: C_5  and  C_30
REMARK    3  A    between atoms: C_6  and  S_8
REMARK    4  A    between atoms: S_8  and  C_11
REMARK    5  A    between atoms: C_11  and  C_13
REMARK    6  A    between atoms: C_11  and  C_25
REMARK    7  A    between atoms: C_13  and  N_14
REMARK    8  A    between atoms: C_15  and  C_17
REMARK                            x       y       z     vdW  Elec       q    Type
REMARK                         _______ _______ _______ _____ _____    ______ ____
ROOT
ATOM      1  C   UNL     1      -2.423   0.716   0.400  0.00  0.00    +0.218 C 
ENDROOT
BRANCH   1   2
ATOM      2  C   UNL     1      -3.742   1.442   0.327  0.00  0.00    +0.131 A 
ATOM      3  C   UNL     1      -4.627   1.568   1.331  0.00  0.00    +0.047 A 
ATOM      4  C   UNL     1      -5.713   2.321   0.828  0.00  0.00    +0.041 A 
ATOM      5  C   UNL     1      -5.431   2.602  -0.457  0.00  0.00    +0.195 A 
ATOM      6  O   UNL     1      -4.235   2.066  -0.755  0.00  0.00    -0.466 OA
ENDBRANCH   1   2
BRANCH   1   7
ATOM      7  S   UNL     1      -2.409  -0.636  -0.810  0.00  0.00    +0.008 S 
ATOM      8  O   UNL     1      -2.647  -0.126  -2.115  0.00  0.00    -0.169 OA
ATOM      9  O   UNL     1      -1.312  -1.505  -0.560  0.00  0.00    -0.169 OA
BRANCH   7  15
ATOM     10  C   UNL     1      -7.119  -2.532  -2.051  0.00  0.00    +0.044 C 
ATOM     11  C   UNL     1      -5.992  -2.436  -1.055  0.00  0.00    -0.049 A 
ATOM     12  C   UNL     1      -6.080  -3.102   0.154  0.00  0.00    +0.004 A 
ATOM     13  C   UNL     1      -5.047  -3.014   1.068  0.00  0.00    +0.005 A 
ATOM     14  C   UNL     1      -3.923  -2.265   0.771  0.00  0.00    -0.026 A 
ATOM     15  C   UNL     1      -3.838  -1.595  -0.435  0.00  0.00    +0.092 A 
ATOM     16  C   UNL     1      -4.872  -1.683  -1.349  0.00  0.00    +0.030 A 
ATOM     17  C   UNL     1      -2.794  -2.175   1.765  0.00  0.00    +0.046 C 
ENDBRANCH   7  15
ENDBRANCH   1   7
BRANCH   1  18
ATOM     18  C   UNL     1      -1.286   1.691   0.089  0.00  0.00    +0.139 C 
BRANCH  18  19
ATOM     19  N   UNL     1      -0.004   0.985   0.161  0.00  0.00    -0.305 N 
ATOM     20  C   UNL     1       1.144   1.647  -0.083  0.00  0.00    +0.299 C 
ATOM     21  O   UNL     1       1.116   2.829  -0.357  0.00  0.00    -0.265 OA
ATOM     22  H   UNL     1       0.018   0.041   0.380  0.00  0.00    +0.149 HD
BRANCH  20  23
ATOM     23  C   UNL     1       2.451   0.926  -0.016  0.00  0.00    +0.301 C 
ATOM     24  O   UNL     1       2.473  -0.278   0.136  0.00  0.00    -0.265 OA
ATOM     25  N   UNL     1       3.606   1.612  -0.125  0.00  0.00    -0.294 N 
ATOM     26  C   UNL     1       3.606   3.082  -0.125  0.00  0.00    +0.108 C 
ATOM     27  C   UNL     1       4.577   3.570   0.961  0.00  0.00    +0.019 C 
ATOM     28  C   UNL     1       5.952   2.941   0.728  0.00  0.00    +0.003 C 
ATOM     29  C   UNL     1       5.843   1.418   0.829  0.00  0.00    +0.019 C 
ATOM     30  C   UNL     1       4.888   0.906  -0.253  0.00  0.00    +0.108 C 
ENDBRANCH  20  23
ENDBRANCH  18  19
ENDBRANCH   1  18
TORSDOF 6
