REMARK  Name = ZINC08798834
REMARK  10 active torsions:
REMARK  status: ('A' for Active; 'I' for Inactive)
REMARK    1  A    between atoms: C_1  and  N_2
REMARK    2  A    between atoms: C_10  and  C_12
REMARK    3  A    between atoms: C_12  and  C_14
REMARK    4  A    between atoms: C_12  and  N_55
REMARK    5  A    between atoms: C_14  and  N_15
REMARK    6  A    between atoms: N_15  and  S_16
REMARK    7  A    between atoms: S_16  and  C_19
REMARK    8  A    between atoms: C_22  and  N_25
REMARK    9  A    between atoms: C_28  and  N_55
REMARK   10  A    between atoms: C_29  and  N_55
REMARK                            x       y       z     vdW  Elec       q    Type
REMARK                         _______ _______ _______ _____ _____    ______ ____
ROOT
ATOM      1  C   UNL     1      -1.854   1.036  -2.651  0.00  0.00    -0.023 C 
ENDROOT
BRANCH   1  11
ATOM      2  C   UNL     1       2.299  -2.760  -5.524  0.00  0.00    +0.129 C 
ATOM      3  N   UNL     1       2.163  -1.341  -5.880  0.00  0.00    -0.333 N 
ATOM      4  C   UNL     1       1.980  -1.178  -7.323  0.00  0.00    +0.105 C 
ATOM      5  C   UNL     1       1.817   0.316  -7.631  0.00  0.00    +0.024 C 
ATOM      6  C   UNL     1       0.480   0.774  -7.045  0.00  0.00    +0.038 C 
ATOM      7  C   UNL     1       0.347   0.271  -5.629  0.00  0.00    -0.026 A 
ATOM      8  C   UNL     1       1.158  -0.732  -5.128  0.00  0.00    +0.033 A 
ATOM      9  C   UNL     1       0.981  -1.164  -3.813  0.00  0.00    +0.023 A 
ATOM     10  C   UNL     1       0.015  -0.590  -3.015  0.00  0.00    +0.004 A 
ATOM     11  C   UNL     1      -0.794   0.410  -3.521  0.00  0.00    -0.059 A 
ATOM     12  C   UNL     1      -0.626   0.839  -4.822  0.00  0.00    +0.007 A 
ENDBRANCH   1  11
BRANCH   1  15
ATOM     13  C   UNL     1      -3.759   0.019  -3.745  0.00  0.00    -0.096 C 
ATOM     14  C   UNL     1      -2.512  -1.224  -2.084  0.00  0.00    -0.096 C 
ATOM     15  N   UNL     1      -2.997   0.114  -2.483  0.00  0.00    +0.381 N 
ATOM     16  H   UNL     1      -3.614   0.478  -1.747  0.00  0.00    -0.082 HD
ENDBRANCH   1  15
BRANCH   1  17
ATOM     17  C   UNL     1      -1.265   1.347  -1.274  0.00  0.00    +0.095 C 
BRANCH  17  18
ATOM     18  N   UNL     1      -2.324   1.844  -0.391  0.00  0.00    -0.191 NA
ATOM     19  H   UNL     1      -3.170   2.135  -0.765  0.00  0.00    +0.148 HD
BRANCH  18  20
ATOM     20  S   UNL     1      -2.075   1.910   1.245  0.00  0.00    +0.058 S 
ATOM     21  O   UNL     1      -3.258   2.454   1.814  0.00  0.00    -0.153 OA
ATOM     22  O   UNL     1      -1.557   0.644   1.628  0.00  0.00    -0.153 OA
BRANCH  20  23
ATOM     23  C   UNL     1      -0.793   3.086   1.530  0.00  0.00    +0.105 A 
ATOM     24  C   UNL     1       0.527   2.675   1.558  0.00  0.00    +0.031 A 
ATOM     25  C   UNL     1       1.533   3.598   1.777  0.00  0.00    +0.034 A 
ATOM     26  C   UNL     1       1.218   4.929   1.977  0.00  0.00    +0.126 A 
ATOM     27  C   UNL     1      -0.102   5.338   1.954  0.00  0.00    +0.034 A 
ATOM     28  C   UNL     1      -1.108   4.417   1.731  0.00  0.00    +0.031 A 
BRANCH  26  29
ATOM     29  N   UNL     1       2.295   5.916   2.217  0.00  0.00    +0.056 N 
ATOM     30  O   UNL     1       2.017   7.089   2.393  0.00  0.00    -0.126 OA
ATOM     31  O   UNL     1       3.458   5.556   2.237  0.00  0.00    -0.126 OA
ENDBRANCH  26  29
ENDBRANCH  20  23
ENDBRANCH  18  20
ENDBRANCH  17  18
ENDBRANCH   1  17
TORSDOF 7
