REMARK  Name = ZINC12309528
REMARK  8 active torsions:
REMARK  status: ('A' for Active; 'I' for Inactive)
REMARK    1  A    between atoms: C_1  and  C_2
REMARK    2  A    between atoms: C_2  and  C_3
REMARK    3  A    between atoms: C_9  and  N_10
REMARK    4  A    between atoms: N_10  and  O_11
REMARK    5  A    between atoms: O_11  and  C_12
REMARK    6  A    between atoms: C_12  and  C_13
REMARK    7  A    between atoms: N_22  and  C_27
REMARK    8  A    between atoms: N_25  and  C_26
REMARK                            x       y       z     vdW  Elec       q    Type
REMARK                         _______ _______ _______ _____ _____    ______ ____
ROOT
ATOM      1  C   UNL     1       1.258   6.049  -0.314  0.00  0.00    -0.006 A 
ATOM      2  C   UNL     1       2.371   5.298  -0.307  0.00  0.00    +0.090 A 
ATOM      3  N   UNL     1       2.341   3.965   0.004  0.00  0.00    -0.347 N 
ATOM      4  H   UNL     1       3.276   3.432   0.229  0.00  0.00    +0.167 HD
ATOM      5  C   UNL     1       1.180   3.259   0.048  0.00  0.00    +0.129 A 
ATOM      6  C   UNL     1      -0.040   3.931   0.062  0.00  0.00    +0.106 A 
ATOM      7  C   UNL     1      -0.029   5.406   0.019  0.00  0.00    +0.082 A 
ATOM      8  C   UNL     1      -1.243   3.190   0.117  0.00  0.00    +0.268 A 
ATOM      9  O   UNL     1      -2.320   3.757   0.135  0.00  0.00    -0.267 OA
ATOM     10  N   UNL     1      -1.174   1.841   0.145  0.00  0.00    -0.263 N 
ATOM     11  C   UNL     1       0.015   1.213   0.131  0.00  0.00    +0.333 A 
ATOM     12  O   UNL     1       0.039  -0.002   0.160  0.00  0.00    -0.246 OA
ATOM     13  N   UNL     1       1.177   1.889   0.082  0.00  0.00    -0.282 N 
ATOM     14  C   UNL     1       2.446   1.157   0.065  0.00  0.00    +0.155 C 
ATOM     15  C   UNL     1      -2.408   1.054   0.195  0.00  0.00    +0.157 C 
ENDROOT
BRANCH   1  17
ATOM     16  C   UNL     1       1.138   7.698  -2.162  0.00  0.00    +0.009 C 
ATOM     17  C   UNL     1       1.320   7.516  -0.654  0.00  0.00    +0.035 C 
ENDBRANCH   1  17
BRANCH   7  18
ATOM     18  N   UNL     1      -1.110   6.111   0.265  0.00  0.00    -0.264 N 
ATOM     19  H   UNL     1      -1.198   7.136  -0.125  0.00  0.00    +0.194 HD
BRANCH  18  20
ATOM     20  O   UNL     1      -2.162   5.552   1.030  0.00  0.00    -0.269 OA
BRANCH  20  21
ATOM     21  C   UNL     1      -3.274   6.429   1.219  0.00  0.00    +0.228 C 
BRANCH  21  22
ATOM     22  C   UNL     1      -4.327   5.735   2.043  0.00  0.00    -0.019 A 
ATOM     23  C   UNL     1      -5.317   4.998   1.420  0.00  0.00    +0.009 A 
ATOM     24  C   UNL     1      -6.281   4.357   2.175  0.00  0.00    +0.038 A 
ATOM     25  C   UNL     1      -6.261   4.462   3.555  0.00  0.00    +0.123 A 
ATOM     26  C   UNL     1      -5.272   5.204   4.178  0.00  0.00    +0.038 A 
ATOM     27  C   UNL     1      -4.306   5.840   3.421  0.00  0.00    +0.009 A 
ATOM     28  F   UNL     1      -7.206   3.839   4.294  0.00  0.00    -0.205 F 
ENDBRANCH  21  22
ENDBRANCH  20  21
ENDBRANCH  18  20
ENDBRANCH   7  18
TORSDOF 5
