REMARK  Name = ZINC21238781
REMARK  4 active torsions:
REMARK  status: ('A' for Active; 'I' for Inactive)
REMARK    1  A    between atoms: C_8  and  C_24
REMARK    2  A    between atoms: C_14  and  C_19
REMARK    3  A    between atoms: C_27  and  O_33
REMARK    4  A    between atoms: C_28  and  N_30
REMARK                            x       y       z     vdW  Elec       q    Type
REMARK                         _______ _______ _______ _____ _____    ______ ____
ROOT
ATOM      1  C   UNL     1       1.293   1.848   0.045  0.00  0.00    +0.002 A 
ATOM      2  C   UNL     1       0.121   1.114   0.076  0.00  0.00    +0.002 A 
ATOM      3  C   UNL     1      -1.106   1.757   0.088  0.00  0.00    +0.025 A 
ATOM      4  C   UNL     1      -1.147   3.140   0.080  0.00  0.00    +0.052 A 
ATOM      5  C   UNL     1       0.026   3.877   0.017  0.00  0.00    +0.049 A 
ATOM      6  C   UNL     1       1.252   3.232   0.015  0.00  0.00    +0.025 A 
ATOM      7  N   UNL     1      -0.067   5.262  -0.109  0.00  0.00    -0.331 N 
ATOM      8  C   UNL     1      -0.644   5.870  -1.289  0.00  0.00    +0.136 C 
ATOM      9  C   UNL     1      -2.111   5.572  -1.492  0.00  0.00    +0.036 C 
ATOM     10  C   UNL     1      -2.827   4.650  -0.827  0.00  0.00    +0.017 C 
ATOM     11  N   UNL     1      -2.341   3.848   0.154  0.00  0.00    -0.316 N 
ATOM     12  C   UNL     1      -4.294   4.431  -1.160  0.00  0.00    +0.060 C 
ATOM     13  C   UNL     1      -4.934   5.755  -1.575  0.00  0.00    +0.039 C 
ATOM     14  C   UNL     1      -4.184   6.268  -2.811  0.00  0.00    +0.088 C 
ATOM     15  C   UNL     1      -2.727   6.378  -2.477  0.00  0.00    +0.163 C 
ATOM     16  O   UNL     1      -2.050   7.191  -3.075  0.00  0.00    -0.292 OA
ATOM     17  H   UNL     1       0.307   5.895   0.709  0.00  0.00    +0.147 HD
ATOM     18  H   UNL     1      -2.966   3.779   1.056  0.00  0.00    +0.152 HD
ENDROOT
BRANCH   8  19
ATOM     19  C   UNL     1       0.115   5.383  -2.497  0.00  0.00    -0.020 A 
ATOM     20  C   UNL     1       0.790   6.286  -3.298  0.00  0.00    +0.009 A 
ATOM     21  C   UNL     1       1.490   5.841  -4.402  0.00  0.00    +0.048 A 
ATOM     22  C   UNL     1       1.507   4.489  -4.714  0.00  0.00    +0.147 A 
ATOM     23  C   UNL     1       0.824   3.587  -3.912  0.00  0.00    +0.168 A 
ATOM     24  C   UNL     1       0.130   4.035  -2.805  0.00  0.00    +0.042 A 
BRANCH  23  25
ATOM     25  N   UNL     1       0.839   2.144  -4.242  0.00  0.00    +0.060 N 
ATOM     26  O   UNL     1       0.239   1.352  -3.538  0.00  0.00    -0.126 OA
ATOM     27  O   UNL     1       1.452   1.749  -5.218  0.00  0.00    -0.126 OA
ENDBRANCH  23  25
BRANCH  22  28
ATOM     28  O   UNL     1       2.191   4.050  -5.803  0.00  0.00    -0.504 OA
ATOM     29  H   UNL     1       2.203   2.978  -6.049  0.00  0.00    +0.292 HD
ENDBRANCH  22  28
ENDBRANCH   8  19
BRANCH  13  30
ATOM     30  C   UNL     1      -6.386   5.537  -1.913  0.00  0.00    -0.006 A 
ATOM     31  C   UNL     1      -7.485   6.112  -1.367  0.00  0.00    +0.011 A 
ATOM     32  C   UNL     1      -8.734   5.756  -1.841  0.00  0.00    +0.008 A 
ATOM     33  C   UNL     1      -8.822   4.842  -2.838  0.00  0.00    +0.045 A 
ATOM     34  S   UNL     1      -7.105   4.459  -3.141  0.00  0.00    -0.101 S 
ENDBRANCH  13  30
TORSDOF 4
