REMARK  Name = ZINC01341560
REMARK  6 active torsions:
REMARK  status: ('A' for Active; 'I' for Inactive)
REMARK    1  A    between atoms: C_1  and  O_2
REMARK    2  A    between atoms: O_2  and  C_3
REMARK    3  A    between atoms: C_6  and  C_9
REMARK    4  A    between atoms: C_15  and  N_18
REMARK    5  A    between atoms: N_18  and  C_19
REMARK    6  A    between atoms: C_19  and  C_20
REMARK                            x       y       z     vdW  Elec       q    Type
REMARK                         _______ _______ _______ _____ _____    ______ ____
ROOT
ATOM      1  C   UNL     1      -0.088   8.645   1.877  0.00  0.00    +0.095 A 
ATOM      2  C   UNL     1      -0.111   9.765   1.040  0.00  0.00    +0.078 A 
ATOM      3  C   UNL     1      -0.120   9.309  -0.269  0.00  0.00    +0.158 A 
ATOM      4  N   UNL     1      -0.142   9.943  -1.448  0.00  0.00    -0.232 NA
ATOM      5  C   UNL     1      -0.145   9.279  -2.591  0.00  0.00    +0.050 A 
ATOM      6  C   UNL     1      -0.117   7.890  -2.585  0.00  0.00    +0.014 A 
ATOM      7  C   UNL     1      -0.104   7.223  -1.384  0.00  0.00    +0.128 A 
ATOM      8  N   UNL     1      -0.102   7.939  -0.218  0.00  0.00    -0.200 N 
ATOM      9  N   UNL     1      -0.083   7.557   1.128  0.00  0.00    -0.163 NA
ATOM     10  C   UNL     1      -0.111   7.073  -3.849  0.00  0.00    +0.040 C 
ATOM     11  C   UNL     1      -0.564   7.920  -5.037  0.00  0.00    +0.005 C 
ATOM     12  C   UNL     1       0.258   9.214  -5.051  0.00  0.00    +0.006 C 
ATOM     13  C   UNL     1      -0.178  10.077  -3.868  0.00  0.00    +0.056 C 
ENDROOT
BRANCH   1  17
ATOM     14  C   UNL     1      -0.042   8.726   6.130  0.00  0.00    +0.120 A 
ATOM     15  C   UNL     1      -0.035   7.510   5.461  0.00  0.00    +0.046 A 
ATOM     16  C   UNL     1      -0.050   7.481   4.082  0.00  0.00    +0.013 A 
ATOM     17  C   UNL     1      -0.072   8.673   3.361  0.00  0.00    +0.002 A 
ATOM     18  C   UNL     1      -0.074   9.892   4.036  0.00  0.00    +0.013 A 
ATOM     19  C   UNL     1      -0.064   9.915   5.415  0.00  0.00    +0.046 A 
BRANCH  14  21
ATOM     20  C   UNL     1      -0.035  10.037   8.113  0.00  0.00    +0.277 C 
ATOM     21  O   UNL     1      -0.026   8.752   7.489  0.00  0.00    -0.495 OA
ENDBRANCH  14  21
ENDBRANCH   1  17
BRANCH   7  22
ATOM     22  N   UNL     1      -0.087   5.845  -1.354  0.00  0.00    -0.325 N 
ATOM     23  H   UNL     1       0.695   5.481  -1.879  0.00  0.00    +0.148 HD
BRANCH  22  24
ATOM     24  C   UNL     1      -0.068   5.349   0.029  0.00  0.00    +0.138 C 
BRANCH  24  25
ATOM     25  C   UNL     1      -0.050   3.842   0.022  0.00  0.00    -0.028 A 
ATOM     26  C   UNL     1       1.156   3.166   0.007  0.00  0.00    +0.005 A 
ATOM     27  C   UNL     1       1.175   1.783   0.000  0.00  0.00    +0.003 A 
ATOM     28  C   UNL     1      -0.013   1.076   0.008  0.00  0.00    +0.038 A 
ATOM     29  C   UNL     1      -1.221   1.752   0.017  0.00  0.00    +0.124 A 
ATOM     30  C   UNL     1      -1.238   3.137   0.029  0.00  0.00    +0.043 A 
ATOM     31  F   UNL     1      -2.382   1.061   0.019  0.00  0.00    -0.205 F 
ENDBRANCH  24  25
ENDBRANCH  22  24
ENDBRANCH   7  22
TORSDOF 5
