REMARK  Name = ZINC65802685
REMARK  7 active torsions:
REMARK  status: ('A' for Active; 'I' for Inactive)
REMARK    1  A    between atoms: C_1  and  C_2
REMARK    2  A    between atoms: N_5  and  C_8
REMARK    3  A    between atoms: C_8  and  C_9
REMARK    4  A    between atoms: C_8  and  C_23
REMARK    5  A    between atoms: C_9  and  N_10
REMARK    6  A    between atoms: C_11  and  C_13
REMARK    7  A    between atoms: C_13  and  C_14
REMARK                            x       y       z     vdW  Elec       q    Type
REMARK                         _______ _______ _______ _____ _____    ______ ____
ROOT
ATOM      1  C   UNL     1      -0.749  -3.951   1.434  0.00  0.00    -0.020 C 
ENDROOT
BRANCH   1   6
ATOM      2  C   UNL     1      -0.069   1.426  -0.340  0.00  0.00    +0.007 C 
ATOM      3  C   UNL     1      -0.042  -0.101  -0.250  0.00  0.00    -0.018 C 
ATOM      4  C   UNL     1      -1.475  -0.634  -0.164  0.00  0.00    -0.015 C 
ATOM      5  C   UNL     1      -1.439  -2.154   0.005  0.00  0.00    -0.078 C 
ATOM      6  N   UNL     1      -0.714  -2.496   1.235  0.00  0.00    +0.385 N 
ATOM      7  C   UNL     1       0.681  -2.051   1.131  0.00  0.00    -0.078 C 
ATOM      8  C   UNL     1       0.727  -0.527   1.004  0.00  0.00    -0.015 C 
ATOM      9  H   UNL     1      -1.153  -2.040   2.021  0.00  0.00    -0.081 HD
ENDBRANCH   1   6
BRANCH   1  10
ATOM     10  C   UNL     1       0.036  -4.308   2.670  0.00  0.00    -0.059 A 
ATOM     11  C   UNL     1      -0.053  -3.514   3.799  0.00  0.00    +0.002 A 
ATOM     12  C   UNL     1       0.666  -3.841   4.933  0.00  0.00    +0.000 A 
ATOM     13  C   UNL     1       1.475  -4.962   4.938  0.00  0.00    +0.000 A 
ATOM     14  C   UNL     1       1.564  -5.756   3.810  0.00  0.00    +0.000 A 
ATOM     15  C   UNL     1       0.841  -5.431   2.678  0.00  0.00    +0.002 A 
ENDBRANCH   1  10
BRANCH   1  16
ATOM     16  C   UNL     1      -2.199  -4.408   1.601  0.00  0.00    +0.093 C 
BRANCH  16  17
ATOM     17  N   UNL     1      -2.242  -5.869   1.705  0.00  0.00    -0.316 N 
ATOM     18  C   UNL     1      -3.428  -6.505   1.770  0.00  0.00    +0.220 C 
ATOM     19  O   UNL     1      -4.460  -5.869   1.742  0.00  0.00    -0.275 OA
ATOM     20  H   UNL     1      -1.417  -6.378   1.727  0.00  0.00    +0.149 HD
BRANCH  18  21
ATOM     21  C   UNL     1      -3.472  -8.008   1.877  0.00  0.00    +0.173 C 
BRANCH  21  22
ATOM     22  C   UNL     1      -4.907  -8.466   1.933  0.00  0.00    +0.162 A 
ATOM     23  N   UNL     1      -5.618  -8.616   3.042  0.00  0.00    -0.193 NA
ATOM     24  C   UNL     1      -6.842  -9.032   2.738  0.00  0.00    +0.253 A 
ATOM     25  N   UNL     1      -7.911  -9.322   3.489  0.00  0.00    -0.219 NA
ATOM     26  C   UNL     1      -9.034  -9.722   2.937  0.00  0.00    +0.116 A 
ATOM     27  C   UNL     1      -9.130  -9.852   1.546  0.00  0.00    +0.040 A 
ATOM     28  C   UNL     1      -8.051  -9.559   0.776  0.00  0.00    +0.118 A 
ATOM     29  N   UNL     1      -6.903  -9.148   1.378  0.00  0.00    -0.204 N 
ATOM     30  N   UNL     1      -5.644  -8.771   0.892  0.00  0.00    -0.148 NA
ENDBRANCH  21  22
ENDBRANCH  18  21
ENDBRANCH  16  17
ENDBRANCH   1  16
TORSDOF 6
