REMARK  Name = ZINC02256588
REMARK  4 active torsions:
REMARK  status: ('A' for Active; 'I' for Inactive)
REMARK    1  A    between atoms: C_1  and  S_2
REMARK    2  A    between atoms: S_2  and  C_3
REMARK    3  A    between atoms: C_9  and  C_13
REMARK    4  A    between atoms: C_20  and  C_30
REMARK                            x       y       z     vdW  Elec       q    Type
REMARK                         _______ _______ _______ _____ _____    ______ ____
ROOT
ATOM      1  C   UNL     1       0.536  -0.742   1.409  0.00  0.00    +0.174 C 
ATOM      2  N   UNL     1       1.040   0.215   2.161  0.00  0.00    -0.192 NA
ATOM      3  C   UNL     1       1.760  -0.312   3.168  0.00  0.00    +0.216 C 
ATOM      4  N   UNL     1       2.433   0.251   4.149  0.00  0.00    -0.326 N 
ATOM      5  C   UNL     1       3.116  -0.434   5.099  0.00  0.00    +0.058 C 
ATOM      6  C   UNL     1       3.160  -1.782   5.101  0.00  0.00    +0.025 C 
ATOM      7  C   UNL     1       2.414  -2.521   4.012  0.00  0.00    +0.162 C 
ATOM      8  N   UNL     1       1.704  -1.685   3.036  0.00  0.00    -0.209 N 
ATOM      9  N   UNL     1       0.915  -1.957   1.916  0.00  0.00    -0.239 N 
ATOM     10  C   UNL     1       3.936  -2.519   6.153  0.00  0.00    +0.235 C 
ATOM     11  O   UNL     1       3.939  -1.782   7.377  0.00  0.00    -0.479 OA
ATOM     12  C   UNL     1       4.230  -0.458   7.312  0.00  0.00    +0.131 A 
ATOM     13  C   UNL     1       3.837   0.276   6.186  0.00  0.00    +0.042 A 
ATOM     14  C   UNL     1       4.121   1.632   6.101  0.00  0.00    +0.033 A 
ATOM     15  C   UNL     1       4.796   2.254   7.137  0.00  0.00    +0.042 A 
ATOM     16  C   UNL     1       5.186   1.528   8.249  0.00  0.00    +0.023 A 
ATOM     17  C   UNL     1       4.905   0.176   8.340  0.00  0.00    +0.048 A 
ATOM     18 CL   UNL     1       5.156   3.949   7.040  0.00  0.00    -0.084 Cl
ATOM     19  H   UNL     1       2.441   1.220   4.196  0.00  0.00    +0.169 HD
ATOM     20  H   UNL     1       0.684  -2.832   1.566  0.00  0.00    +0.172 HD
ENDROOT
BRANCH   7  21
ATOM     21  C   UNL     1       3.404  -3.375   3.262  0.00  0.00    +0.014 A 
ATOM     22  C   UNL     1       4.032  -2.878   2.136  0.00  0.00    +0.008 A 
ATOM     23  C   UNL     1       4.940  -3.661   1.448  0.00  0.00    +0.001 A 
ATOM     24  C   UNL     1       5.219  -4.943   1.884  0.00  0.00    +0.003 A 
ATOM     25  C   UNL     1       4.592  -5.442   3.009  0.00  0.00    +0.039 A 
ATOM     26  C   UNL     1       3.687  -4.657   3.703  0.00  0.00    +0.129 A 
ATOM     27  F   UNL     1       3.077  -5.143   4.806  0.00  0.00    -0.205 F 
ENDBRANCH   7  21
BRANCH  10  28
ATOM     28  C   UNL     1       5.356  -2.707   5.685  0.00  0.00    +0.015 A 
ATOM     29  C   UNL     1       5.933  -1.781   4.836  0.00  0.00    +0.009 A 
ATOM     30  C   UNL     1       7.235  -1.953   4.406  0.00  0.00    +0.000 A 
ATOM     31  C   UNL     1       7.962  -3.052   4.826  0.00  0.00    +0.001 A 
ATOM     32  C   UNL     1       7.387  -3.978   5.675  0.00  0.00    +0.020 A 
ATOM     33  C   UNL     1       6.085  -3.804   6.109  0.00  0.00    +0.048 A 
ATOM     34 CL   UNL     1       5.364  -4.964   7.181  0.00  0.00    -0.083 Cl
ENDBRANCH  10  28
BRANCH   1  36
ATOM     35  C   UNL     1      -0.605   1.304  -0.157  0.00  0.00    +0.093 C 
ATOM     36  S   UNL     1      -0.472  -0.499  -0.016  0.00  0.00    -0.092 S 
ENDBRANCH   1  36
TORSDOF 3
