REMARK  Name = ZINC66687541
REMARK  6 active torsions:
REMARK  status: ('A' for Active; 'I' for Inactive)
REMARK    1  A    between atoms: C_1  and  C_2
REMARK    2  A    between atoms: C_2  and  N_3
REMARK    3  A    between atoms: C_9  and  C_11
REMARK    4  A    between atoms: C_11  and  C_12
REMARK    5  A    between atoms: N_20  and  C_21
REMARK    6  A    between atoms: C_21  and  C_22
REMARK                            x       y       z     vdW  Elec       q    Type
REMARK                         _______ _______ _______ _____ _____    ______ ____
ROOT
ATOM      1  C   UNL     1       0.742  -4.966   5.747  0.00  0.00    +0.001 C 
ATOM      2  C   UNL     1      -0.777  -4.901   5.926  0.00  0.00    +0.023 C 
ATOM      3  C   UNL     1      -1.163  -5.587   7.240  0.00  0.00    +0.109 C 
ATOM      4  N   UNL     1      -0.613  -6.949   7.241  0.00  0.00    -0.286 N 
ATOM      5  C   UNL     1       0.823  -7.132   6.989  0.00  0.00    +0.109 C 
ATOM      6  C   UNL     1       1.187  -6.429   5.677  0.00  0.00    +0.023 C 
ATOM      7  C   UNL     1      -1.410  -8.012   7.470  0.00  0.00    +0.302 C 
ATOM      8  O   UNL     1      -2.576  -7.843   7.769  0.00  0.00    -0.253 OA
ATOM      9  N   UNL     1      -0.914  -9.261   7.369  0.00  0.00    -0.297 N 
ATOM     10  H   UNL     1       0.032  -9.395   7.203  0.00  0.00    +0.150 HD
ENDROOT
BRANCH   1  11
ATOM     11  C   UNL     1       1.134  -4.251   4.453  0.00  0.00    +0.099 C 
BRANCH  11  18
ATOM     12  N   UNL     1       0.707  -0.495   1.184  0.00  0.00    +0.382 N 
ATOM     13  C   UNL     1      -0.040  -0.113   2.389  0.00  0.00    -0.060 C 
ATOM     14  C   UNL     1       0.757  -0.518   3.633  0.00  0.00    +0.089 C 
ATOM     15  N   UNL     1       1.067  -1.953   3.542  0.00  0.00    -0.305 N 
ATOM     16  C   UNL     1       1.671  -2.453   2.297  0.00  0.00    +0.089 C 
ATOM     17  C   UNL     1       0.831  -1.957   1.116  0.00  0.00    -0.060 C 
ATOM     18  C   UNL     1       0.807  -2.785   4.569  0.00  0.00    +0.216 C 
ATOM     19  O   UNL     1       0.309  -2.354   5.588  0.00  0.00    -0.276 OA
ATOM     20  H   UNL     1       1.627  -0.082   1.217  0.00  0.00    -0.082 HD
BRANCH  12  22
ATOM     21  C   UNL     1      -0.026   1.520   0.002  0.00  0.00    -0.017 C 
ATOM     22  C   UNL     1      -0.005  -0.010  -0.006  0.00  0.00    -0.082 C 
ENDBRANCH  12  22
ENDBRANCH  11  18
ENDBRANCH   1  11
BRANCH   9  23
ATOM     23  C   UNL     1      -1.805 -10.416   7.508  0.00  0.00    +0.137 C 
BRANCH  23  24
ATOM     24  C   UNL     1      -0.996 -11.705   7.351  0.00  0.00    +0.135 C 
ATOM     25  C   UNL     1      -1.943 -12.924   7.376  0.00  0.00    +0.035 C 
ATOM     26  C   UNL     1      -1.127 -13.959   8.198  0.00  0.00    +0.031 C 
ATOM     27  C   UNL     1      -0.395 -13.029   9.197  0.00  0.00    +0.160 C 
ATOM     28  O   UNL     1      -0.083 -11.842   8.447  0.00  0.00    -0.375 OA
ENDBRANCH  23  24
ENDBRANCH   9  23
TORSDOF 5
