REMARK  Name = ZINC12833239
REMARK  9 active torsions:
REMARK  status: ('A' for Active; 'I' for Inactive)
REMARK    1  A    between atoms: C_1  and  C_2
REMARK    2  A    between atoms: C_4  and  C_32
REMARK    3  A    between atoms: C_7  and  C_14
REMARK    4  A    between atoms: C_14  and  N_60
REMARK    5  A    between atoms: C_15  and  C_16
REMARK    6  A    between atoms: C_15  and  N_60
REMARK    7  A    between atoms: C_21  and  C_22
REMARK    8  A    between atoms: C_21  and  N_60
REMARK    9  A    between atoms: N_26  and  C_27
REMARK                            x       y       z     vdW  Elec       q    Type
REMARK                         _______ _______ _______ _____ _____    ______ ____
ROOT
ATOM      1  N   UNL     1       5.077   4.629  -1.450  0.00  0.00    +0.392 N 
ATOM      2  H   UNL     1       4.231   5.093  -1.802  0.00  0.00    -0.080 HD
ENDROOT
BRANCH   1   3
ATOM      3  C   UNL     1       4.881   4.292  -0.024  0.00  0.00    -0.036 C 
BRANCH   3  10
ATOM      4  C   UNL     1       0.428   9.963   3.384  0.00  0.00    +0.044 C 
ATOM      5  C   UNL     1       1.067   8.785   2.696  0.00  0.00    -0.048 A 
ATOM      6  C   UNL     1       0.267   7.768   2.192  0.00  0.00    +0.007 A 
ATOM      7  C   UNL     1       0.826   6.691   1.564  0.00  0.00    -0.041 A 
ATOM      8  C   UNL     1       2.216   6.612   1.428  0.00  0.00    +0.002 A 
ATOM      9  C   UNL     1       2.848   5.472   0.761  0.00  0.00    +0.017 A 
ATOM     10  C   UNL     1       4.199   5.450   0.657  0.00  0.00    +0.001 A 
ATOM     11  C   UNL     1       4.970   6.508   1.186  0.00  0.00    +0.251 A 
ATOM     12  O   UNL     1       6.184   6.468   1.083  0.00  0.00    -0.268 OA
ATOM     13  N   UNL     1       4.399   7.558   1.801  0.00  0.00    -0.322 N 
ATOM     14  H   UNL     1       4.958   8.268   2.152  0.00  0.00    +0.169 HD
ATOM     15  C   UNL     1       3.030   7.641   1.938  0.00  0.00    +0.050 A 
ATOM     16  C   UNL     1       2.438   8.728   2.573  0.00  0.00    +0.029 A 
ATOM     17  C   UNL     1      -0.051   5.592   1.022  0.00  0.00    +0.044 C 
ENDBRANCH   3  10
ENDBRANCH   1   3
BRANCH   1  18
ATOM     18  C   UNL     1       5.309   3.398  -2.233  0.00  0.00    -0.002 C 
BRANCH  18  19
ATOM     19  C   UNL     1       3.990   2.699  -2.438  0.00  0.00    +0.089 A 
ATOM     20  C   UNL     1       3.098   2.971  -3.407  0.00  0.00    +0.042 A 
ATOM     21  C   UNL     1       2.013   2.083  -3.226  0.00  0.00    +0.041 A 
ATOM     22  C   UNL     1       2.307   1.321  -2.157  0.00  0.00    +0.195 A 
ATOM     23  O   UNL     1       3.509   1.695  -1.687  0.00  0.00    -0.470 OA
ENDBRANCH  18  19
ENDBRANCH   1  18
BRANCH   1  24
ATOM     24  C   UNL     1       6.225   5.548  -1.599  0.00  0.00    +0.001 C 
BRANCH  24  25
ATOM     25  C   UNL     1       6.266   6.048  -3.020  0.00  0.00    +0.135 A 
ATOM     26  N   UNL     1       6.919   5.509  -4.021  0.00  0.00    -0.115 NA
ATOM     27  N   UNL     1       6.703   6.226  -5.069  0.00  0.00    -0.023 NA
ATOM     28  N   UNL     1       5.936   7.213  -4.761  0.00  0.00    -0.044 NA
ATOM     29  N   UNL     1       5.645   7.138  -3.507  0.00  0.00    -0.228 N 
BRANCH  29  30
ATOM     30  C   UNL     1       4.797   8.065  -2.753  0.00  0.00    +0.111 C 
ATOM     31  C   UNL     1       3.393   8.133  -3.390  0.00  0.00    +0.027 C 
ATOM     32  C   UNL     1       2.981   9.620  -3.242  0.00  0.00    +0.002 C 
ATOM     33  C   UNL     1       4.312  10.371  -3.497  0.00  0.00    +0.002 C 
ATOM     34  C   UNL     1       5.381   9.487  -2.821  0.00  0.00    +0.027 C 
ENDBRANCH  29  30
ENDBRANCH  24  25
ENDBRANCH   1  24
TORSDOF 7
