REMARK  Name = ZINC35646971
REMARK  11 active torsions:
REMARK  status: ('A' for Active; 'I' for Inactive)
REMARK    1  A    between atoms: C_1  and  C_2
REMARK    2  A    between atoms: C_2  and  N_3
REMARK    3  A    between atoms: N_9  and  C_14
REMARK    4  A    between atoms: C_11  and  C_13
REMARK    5  A    between atoms: C_14  and  C_15
REMARK    6  A    between atoms: C_16  and  C_32
REMARK    7  A    between atoms: C_17  and  C_24
REMARK    8  A    between atoms: N_22  and  C_23
REMARK    9  A    between atoms: C_32  and  O_34
REMARK   10  A    between atoms: O_34  and  C_35
REMARK   11  A    between atoms: C_35  and  C_36
REMARK                            x       y       z     vdW  Elec       q    Type
REMARK                         _______ _______ _______ _____ _____    ______ ____
ROOT
ATOM      1  C   UNL     1       2.130  -2.698  -7.486  0.00  0.00    +0.041 C 
ATOM      2  C   UNL     1       2.882  -3.495  -8.274  0.00  0.00    +0.080 C 
ATOM      3  C   UNL     1       3.674  -2.841  -9.389  0.00  0.00    +0.144 C 
ATOM      4  N   UNL     1       3.557  -1.379  -9.521  0.00  0.00    -0.288 N 
ATOM      5  C   UNL     1       2.763  -0.718  -8.655  0.00  0.00    +0.307 C 
ATOM      6  O   UNL     1       2.660   0.489  -8.756  0.00  0.00    -0.252 OA
ATOM      7  N   UNL     1       2.081  -1.348  -7.691  0.00  0.00    -0.260 N 
ATOM      8  C   UNL     1       1.239  -0.544  -6.801  0.00  0.00    +0.139 C 
ATOM      9  H   UNL     1       4.040  -0.903 -10.215  0.00  0.00    +0.151 HD
ENDROOT
BRANCH   3  10
ATOM     10  C   UNL     1       5.129  -3.173  -9.181  0.00  0.00    -0.021 A 
ATOM     11  C   UNL     1       5.873  -2.469  -8.252  0.00  0.00    +0.007 A 
ATOM     12  C   UNL     1       7.208  -2.772  -8.062  0.00  0.00    +0.022 A 
ATOM     13  C   UNL     1       7.801  -3.781  -8.799  0.00  0.00    +0.059 A 
ATOM     14  C   UNL     1       7.056  -4.486  -9.729  0.00  0.00    +0.060 A 
ATOM     15  C   UNL     1       5.718  -4.185  -9.915  0.00  0.00    +0.027 A 
ATOM     16 CL   UNL     1       7.798  -5.752 -10.656  0.00  0.00    -0.082 Cl
ATOM     17 CL   UNL     1       9.477  -4.161  -8.560  0.00  0.00    -0.082 Cl
ENDBRANCH   3  10
BRANCH   2  18
ATOM     18  C   UNL     1       2.930  -4.894  -8.067  0.00  0.00    +0.339 C 
ATOM     19  O   UNL     1       2.257  -5.402  -7.189  0.00  0.00    -0.245 OA
BRANCH  18  20
ATOM     20  O   UNL     1       3.722  -5.664  -8.842  0.00  0.00    -0.462 OA
BRANCH  20  21
ATOM     21  C   UNL     1       3.721  -7.068  -8.576  0.00  0.00    +0.229 C 
ATOM     22  C   UNL     1       4.671  -7.772  -9.548  0.00  0.00    +0.048 C 
ENDBRANCH  20  21
ENDBRANCH  18  20
ENDBRANCH   2  18
BRANCH   1  23
ATOM     23  C   UNL     1       1.327  -3.307  -6.366  0.00  0.00    +0.136 C 
BRANCH  23  30
ATOM     24  N   UNL     1       3.706  -2.250  -0.811  0.00  0.00    -0.299 N 
ATOM     25  C   UNL     1       3.223  -3.416  -1.283  0.00  0.00    +0.303 C 
ATOM     26  O   UNL     1       2.832  -4.269  -0.511  0.00  0.00    -0.253 OA
ATOM     27  N   UNL     1       3.174  -3.637  -2.612  0.00  0.00    -0.280 N 
ATOM     28  C   UNL     1       3.753  -2.672  -3.559  0.00  0.00    +0.125 C 
ATOM     29  C   UNL     1       2.700  -2.341  -4.622  0.00  0.00    +0.104 C 
ATOM     30  N   UNL     1       2.210  -3.587  -5.226  0.00  0.00    -0.294 NA
ATOM     31  C   UNL     1       1.535  -4.432  -4.232  0.00  0.00    +0.107 C 
ATOM     32  C   UNL     1       2.546  -4.851  -3.153  0.00  0.00    +0.088 C 
ATOM     33  C   UNL     1       1.823  -5.599  -2.031  0.00  0.00    +0.029 C 
ATOM     34  H   UNL     1       4.086  -1.599  -1.422  0.00  0.00    +0.150 HD
BRANCH  24  36
ATOM     35  C   UNL     1       4.264  -0.586   0.892  0.00  0.00    +0.024 C 
ATOM     36  C   UNL     1       3.657  -1.965   0.625  0.00  0.00    +0.102 C 
ENDBRANCH  24  36
ENDBRANCH  23  30
ENDBRANCH   1  23
TORSDOF 7
