REMARK  Name = ZINC09446936
REMARK  2 active torsions:
REMARK  status: ('A' for Active; 'I' for Inactive)
REMARK    1  A    between atoms: C_4  and  N_8
REMARK    2  A    between atoms: C_19  and  C_21
REMARK                            x       y       z     vdW  Elec       q    Type
REMARK                         _______ _______ _______ _____ _____    ______ ____
ROOT
ATOM      1  N   UNL     1      -0.004  -0.004  -0.011  0.00  0.00    -0.265 N 
ATOM      2  C   UNL     1      -1.083  -0.694   0.408  0.00  0.00    +0.307 C 
ATOM      3  O   UNL     1      -2.104  -0.105   0.706  0.00  0.00    -0.252 OA
ATOM      4  N   UNL     1      -1.030  -2.038   0.496  0.00  0.00    -0.271 N 
ATOM      5  C   UNL     1       0.226  -2.764   0.255  0.00  0.00    +0.132 C 
ATOM      6  C   UNL     1       0.656  -3.466   1.553  0.00  0.00    +0.140 C 
ATOM      7  N   UNL     1      -0.501  -4.153   2.137  0.00  0.00    -0.347 N 
ATOM      8  C   UNL     1      -0.479  -5.152   3.061  0.00  0.00    +0.086 A 
ATOM      9  C   UNL     1      -1.753  -5.499   3.341  0.00  0.00    +0.019 A 
ATOM     10  C   UNL     1      -2.595  -4.683   2.557  0.00  0.00    +0.025 A 
ATOM     11  C   UNL     1      -1.806  -3.876   1.831  0.00  0.00    +0.044 A 
ATOM     12  C   UNL     1      -2.232  -2.825   0.832  0.00  0.00    +0.156 C 
ATOM     13  H   UNL     1       0.781  -0.476  -0.329  0.00  0.00    +0.157 HD
ENDROOT
BRANCH   1  17
ATOM     14  C   UNL     1      -0.039   4.167   0.065  0.00  0.00    +0.006 A 
ATOM     15  C   UNL     1       1.054   3.478   0.558  0.00  0.00    +0.040 A 
ATOM     16  C   UNL     1       1.069   2.095   0.534  0.00  0.00    +0.147 A 
ATOM     17  C   UNL     1      -0.016   1.398   0.015  0.00  0.00    +0.106 A 
ATOM     18  C   UNL     1      -1.109   2.095  -0.485  0.00  0.00    +0.147 A 
ATOM     19  C   UNL     1      -1.120   3.478  -0.453  0.00  0.00    +0.040 A 
ATOM     20  F   UNL     1      -2.163   1.422  -0.996  0.00  0.00    -0.203 F 
ATOM     21  F   UNL     1       2.137   1.422   1.016  0.00  0.00    -0.203 F 
ENDBRANCH   1  17
BRANCH  12  22
ATOM     22  C   UNL     1      -2.779  -3.483  -0.408  0.00  0.00    -0.003 A 
ATOM     23  C   UNL     1      -2.508  -4.815  -0.661  0.00  0.00    +0.009 A 
ATOM     24  C   UNL     1      -3.009  -5.419  -1.798  0.00  0.00    +0.020 A 
ATOM     25  C   UNL     1      -3.782  -4.691  -2.685  0.00  0.00    +0.042 A 
ATOM     26  C   UNL     1      -4.054  -3.358  -2.433  0.00  0.00    +0.040 A 
ATOM     27  C   UNL     1      -3.557  -2.756  -1.291  0.00  0.00    +0.048 A 
ATOM     28 CL   UNL     1      -3.903  -1.085  -0.970  0.00  0.00    -0.083 Cl
ATOM     29 CL   UNL     1      -4.412  -5.450  -4.114  0.00  0.00    -0.083 Cl
ENDBRANCH  12  22
TORSDOF 2
