REMARK  Name = ZINC16284591
REMARK  10 active torsions:
REMARK  status: ('A' for Active; 'I' for Inactive)
REMARK    1  A    between atoms: C_1  and  C_2
REMARK    2  A    between atoms: C_7  and  O_8
REMARK    3  A    between atoms: O_8  and  C_9
REMARK    4  A    between atoms: C_9  and  C_10
REMARK    5  A    between atoms: C_10  and  C_12
REMARK    6  A    between atoms: C_10  and  O_22
REMARK    7  A    between atoms: C_12  and  N_48
REMARK    8  A    between atoms: C_13  and  C_14
REMARK    9  A    between atoms: C_13  and  N_48
REMARK   10  A    between atoms: C_23  and  C_28
REMARK                            x       y       z     vdW  Elec       q    Type
REMARK                         _______ _______ _______ _____ _____    ______ ____
ROOT
ATOM      1  C   UNL     1      -2.483  -2.725   0.011  0.00  0.00    +0.135 C 
ENDROOT
BRANCH   1   2
ATOM      2  O   UNL     1      -3.156  -2.382  -1.202  0.00  0.00    -0.390 OA
ATOM      3  H   UNL     1      -2.715  -2.702  -2.001  0.00  0.00    +0.210 HD
ENDBRANCH   1   2
BRANCH   1   4
ATOM      4  C   UNL     1      -1.076  -2.123   0.001  0.00  0.00    +0.258 C 
BRANCH   4   5
ATOM      5  O   UNL     1      -1.167  -0.698   0.009  0.00  0.00    -0.489 OA
BRANCH   5  12
ATOM      6  C   UNL     1      -1.336   2.116   0.020  0.00  0.00    +0.047 C 
ATOM      7  C   UNL     1      -0.017   1.388   0.010  0.00  0.00    -0.005 A 
ATOM      8  C   UNL     1       1.160   2.106   0.002  0.00  0.00    +0.054 A 
ATOM      9  C   UNL     1       2.380   1.442  -0.013  0.00  0.00    +0.140 A 
ATOM     10  C   UNL     1       2.403   0.036  -0.021  0.00  0.00    +0.024 A 
ATOM     11  C   UNL     1       1.205  -0.683  -0.014  0.00  0.00    +0.057 A 
ATOM     12  C   UNL     1       0.002  -0.004   0.002  0.00  0.00    +0.124 A 
ATOM     13  C   UNL     1       3.697  -0.653  -0.037  0.00  0.00    -0.033 A 
ATOM     14  C   UNL     1       4.825   0.101  -0.043  0.00  0.00    +0.096 A 
ATOM     15  C   UNL     1       4.728   1.509  -0.034  0.00  0.00    +0.337 A 
ATOM     16  O   UNL     1       5.748   2.175  -0.040  0.00  0.00    -0.245 OA
ATOM     17  O   UNL     1       3.540   2.134  -0.019  0.00  0.00    -0.422 OA
ATOM     18  C   UNL     1       3.772  -2.158  -0.046  0.00  0.00    +0.045 C 
ENDBRANCH   5  12
ENDBRANCH   4   5
ENDBRANCH   1   4
BRANCH   1  19
ATOM     19  C   UNL     1      -2.386  -4.247   0.128  0.00  0.00    -0.047 C 
BRANCH  19  20
ATOM     20  N   UNL     1      -3.746  -4.819   0.137  0.00  0.00    +0.383 N 
ATOM     21  H   UNL     1      -4.226  -4.566  -0.735  0.00  0.00    -0.085 HD
ATOM     22  H   UNL     1      -4.267  -4.440   0.936  0.00  0.00    -0.085 HD
BRANCH  20  23
ATOM     23  C   UNL     1      -3.683  -6.288   0.249  0.00  0.00    -0.045 C 
BRANCH  23  24
ATOM     24  C   UNL     1      -5.084  -6.843   0.256  0.00  0.00    -0.046 A 
ATOM     25  C   UNL     1      -5.584  -7.471  -0.870  0.00  0.00    +0.004 A 
ATOM     26  C   UNL     1      -6.869  -7.981  -0.864  0.00  0.00    +0.020 A 
ATOM     27  C   UNL     1      -7.655  -7.863   0.268  0.00  0.00    +0.042 A 
ATOM     28  C   UNL     1      -7.156  -7.234   1.394  0.00  0.00    +0.040 A 
ATOM     29  C   UNL     1      -5.868  -6.729   1.390  0.00  0.00    +0.044 A 
ATOM     30 CL   UNL     1      -5.237  -5.946   2.805  0.00  0.00    -0.083 Cl
ATOM     31 CL   UNL     1      -9.269  -8.503   0.275  0.00  0.00    -0.083 Cl
ENDBRANCH  23  24
ENDBRANCH  20  23
ENDBRANCH  19  20
ENDBRANCH   1  19
TORSDOF 8
