REMARK  Name = ZINC39595979
REMARK  11 active torsions:
REMARK  status: ('A' for Active; 'I' for Inactive)
REMARK    1  A    between atoms: C_1  and  C_2
REMARK    2  A    between atoms: C_2  and  C_3
REMARK    3  A    between atoms: C_3  and  C_4
REMARK    4  A    between atoms: C_3  and  C_6
REMARK    5  A    between atoms: C_4  and  C_5
REMARK    6  A    between atoms: C_10  and  C_19
REMARK    7  A    between atoms: N_21  and  C_22
REMARK    8  A    between atoms: C_22  and  C_23
REMARK    9  A    between atoms: C_23  and  C_25
REMARK   10  A    between atoms: C_23  and  O_26
REMARK   11  A    between atoms: O_26  and  C_27
REMARK                            x       y       z     vdW  Elec       q    Type
REMARK                         _______ _______ _______ _____ _____    ______ ____
ROOT
ATOM      1  C   UNL     1       0.013  -2.493  -1.032  0.00  0.00    +0.219 C 
ATOM      2  O   UNL     1       0.939  -3.268  -1.144  0.00  0.00    -0.275 OA
ATOM      3  N   UNL     1      -1.250  -2.917  -1.234  0.00  0.00    -0.300 N 
ATOM      4  C   UNL     1      -2.500  -2.125  -1.150  0.00  0.00    +0.121 C 
ATOM      5  C   UNL     1      -3.369  -2.643  -2.317  0.00  0.00    +0.100 C 
ATOM      6  C   UNL     1      -2.844  -4.060  -2.600  0.00  0.00    -0.004 C 
ATOM      7  C   UNL     1      -1.703  -4.282  -1.596  0.00  0.00    +0.115 C 
ATOM      8  C   UNL     1      -2.308  -4.150  -4.026  0.00  0.00    -0.010 C 
ATOM      9  C   UNL     1      -1.844  -5.583  -4.301  0.00  0.00    -0.082 C 
ATOM     10  N   UNL     1      -2.969  -6.508  -4.120  0.00  0.00    +0.379 N 
ATOM     11  C   UNL     1      -3.418  -6.483  -2.723  0.00  0.00    -0.082 C 
ATOM     12  C   UNL     1      -3.949  -5.088  -2.381  0.00  0.00    -0.010 C 
ATOM     13  H   UNL     1      -3.731  -6.231  -4.722  0.00  0.00    -0.086 HD
ATOM     14  H   UNL     1      -2.677  -7.443  -4.362  0.00  0.00    -0.086 HD
ENDROOT
BRANCH   5  15
ATOM     15  C   UNL     1      -3.197  -1.765  -3.530  0.00  0.00    +0.218 C 
ATOM     16  O   UNL     1      -2.121  -1.255  -3.761  0.00  0.00    -0.275 OA
ATOM     17  N   UNL     1      -4.238  -1.547  -4.358  0.00  0.00    -0.312 N 
ATOM     18  H   UNL     1      -5.098  -1.955  -4.173  0.00  0.00    +0.149 HD
BRANCH  17  19
ATOM     19  C   UNL     1      -4.070  -0.693  -5.537  0.00  0.00    +0.148 C 
BRANCH  19  20
ATOM     20  C   UNL     1      -5.393  -0.612  -6.300  0.00  0.00    +0.187 C 
ATOM     21  C   UNL     1      -5.218   0.280  -7.531  0.00  0.00    +0.053 C 
BRANCH  20  22
ATOM     22  O   UNL     1      -5.787  -1.922  -6.713  0.00  0.00    -0.488 OA
BRANCH  22  23
ATOM     23  C   UNL     1      -7.114  -2.131  -6.922  0.00  0.00    +0.121 A 
ATOM     24  C   UNL     1      -7.580  -3.406  -7.206  0.00  0.00    +0.048 A 
ATOM     25  C   UNL     1      -8.929  -3.616  -7.419  0.00  0.00    +0.042 A 
ATOM     26  C   UNL     1      -9.815  -2.555  -7.348  0.00  0.00    +0.124 A 
ATOM     27  C   UNL     1      -9.351  -1.282  -7.065  0.00  0.00    +0.042 A 
ATOM     28  C   UNL     1      -8.004  -1.069  -6.846  0.00  0.00    +0.048 A 
ATOM     29  F   UNL     1     -11.134  -2.762  -7.557  0.00  0.00    -0.205 F 
ENDBRANCH  22  23
ENDBRANCH  20  22
ENDBRANCH  19  20
ENDBRANCH  17  19
ENDBRANCH   5  15
BRANCH   1  30
ATOM     30  C   UNL     1       0.275  -1.054  -0.667  0.00  0.00    +0.075 C 
BRANCH  30  32
ATOM     31  C   UNL     1      -0.293   0.771   0.942  0.00  0.00    +0.004 C 
ATOM     32  C   UNL     1      -0.441  -0.722   0.644  0.00  0.00    +0.009 C 
ENDBRANCH  30  32
BRANCH  30  33
ATOM     33  C   UNL     1       1.779  -0.837  -0.496  0.00  0.00    +0.009 C 
ATOM     34  C   UNL     1       2.477  -1.009  -1.847  0.00  0.00    +0.004 C 
ENDBRANCH  30  33
ENDBRANCH   1  30
TORSDOF 8
