REMARK  Name = ZINC39864277
REMARK  5 active torsions:
REMARK  status: ('A' for Active; 'I' for Inactive)
REMARK    1  A    between atoms: C_1  and  C_2
REMARK    2  A    between atoms: C_2  and  C_18
REMARK    3  A    between atoms: N_6  and  C_17
REMARK    4  A    between atoms: N_8  and  C_9
REMARK    5  A    between atoms: C_21  and  N_24
REMARK                            x       y       z     vdW  Elec       q    Type
REMARK                         _______ _______ _______ _____ _____    ______ ____
ROOT
ATOM      1  C   UNL     1      -0.231   1.577  -0.095  0.00  0.00    +0.045 C 
ATOM      2  C   UNL     1       0.004   0.089  -0.064  0.00  0.00    -0.024 C 
ATOM      3  C   UNL     1      -0.059  -0.583   1.115  0.00  0.00    +0.081 C 
ATOM      4  C   UNL     1      -0.344  -0.074   2.469  0.00  0.00    +0.259 C 
ATOM      5  O   UNL     1      -0.570   1.105   2.670  0.00  0.00    -0.269 OA
ATOM      6  N   UNL     1      -0.344  -0.956   3.454  0.00  0.00    -0.249 N 
ATOM      7  C   UNL     1      -0.086  -2.285   3.206  0.00  0.00    +0.168 C 
ATOM      8  N   UNL     1      -0.047  -3.284   4.061  0.00  0.00    -0.224 NA
ATOM      9  S   UNL     1       0.174  -2.325   1.440  0.00  0.00    -0.048 S 
ATOM     10  C   UNL     1      -0.621  -0.514   4.823  0.00  0.00    +0.140 C 
ENDROOT
BRANCH   8  11
ATOM     11  C   UNL     1      -0.163  -3.042   5.400  0.00  0.00    +0.088 A 
ATOM     12  C   UNL     1      -1.415  -3.058   6.030  0.00  0.00    +0.049 A 
ATOM     13  C   UNL     1      -1.485  -2.808   7.383  0.00  0.00    +0.113 A 
ATOM     14  N   UNL     1      -0.394  -2.556   8.084  0.00  0.00    -0.262 NA
ATOM     15  C   UNL     1       0.805  -2.531   7.531  0.00  0.00    +0.132 A 
ATOM     16  C   UNL     1       0.970  -2.776   6.185  0.00  0.00    +0.084 A 
ATOM     17 CL   UNL     1       2.552  -2.749   5.471  0.00  0.00    -0.080 Cl
ENDBRANCH   8  11
BRANCH   2  18
ATOM     18  C   UNL     1       0.302  -0.633  -1.306  0.00  0.00    -0.021 A 
ATOM     19  C   UNL     1       1.548  -1.250  -1.479  0.00  0.00    +0.010 A 
ATOM     20  C   UNL     1       1.821  -1.924  -2.641  0.00  0.00    +0.023 A 
ATOM     21  C   UNL     1       0.863  -1.996  -3.648  0.00  0.00    +0.025 A 
ATOM     22  C   UNL     1      -0.377  -1.386  -3.481  0.00  0.00    +0.023 A 
ATOM     23  C   UNL     1      -0.661  -0.714  -2.320  0.00  0.00    +0.010 A 
BRANCH  21  24
ATOM     24  N   UNL     1       1.145  -2.682  -4.827  0.00  0.00    -0.358 N 
ATOM     25  H   UNL     1       2.009  -3.107  -4.946  0.00  0.00    +0.142 HD
ATOM     26  H   UNL     1       0.478  -2.733  -5.530  0.00  0.00    +0.142 HD
ENDBRANCH  21  24
ENDBRANCH   2  18
TORSDOF 3
