REMARK  Name = ZINC36316140
REMARK  16 active torsions:
REMARK  status: ('A' for Active; 'I' for Inactive)
REMARK    1  A    between atoms: C_1  and  C_2
REMARK    2  A    between atoms: C_2  and  C_3
REMARK    3  A    between atoms: C_2  and  C_4
REMARK    4  A    between atoms: C_2  and  O_5
REMARK    5  A    between atoms: O_5  and  C_6
REMARK    6  A    between atoms: C_6  and  C_7
REMARK    7  A    between atoms: C_7  and  C_9
REMARK    8  A    between atoms: C_7  and  O_36
REMARK    9  A    between atoms: C_9  and  N_10
REMARK   10  A    between atoms: N_10  and  C_11
REMARK   11  A    between atoms: N_10  and  C_33
REMARK   12  A    between atoms: C_11  and  C_12
REMARK   13  A    between atoms: C_13  and  C_27
REMARK   14  A    between atoms: N_15  and  C_26
REMARK   15  A    between atoms: C_16  and  O_17
REMARK   16  A    between atoms: O_17  and  C_18
REMARK                            x       y       z     vdW  Elec       q    Type
REMARK                         _______ _______ _______ _____ _____    ______ ____
ROOT
ATOM      1  C   UNL     1       6.073  -0.364  -5.848  0.00  0.00    +0.025 A 
ATOM      2  C   UNL     1       7.016  -1.347  -6.202  0.00  0.00    +0.098 A 
ATOM      3  N   UNL     1       7.224  -1.268  -7.499  0.00  0.00    -0.168 NA
ATOM      4  N   UNL     1       6.424  -0.238  -8.009  0.00  0.00    -0.235 N 
ATOM      5  C   UNL     1       5.722   0.300  -6.979  0.00  0.00    +0.221 A 
ATOM      6  C   UNL     1       6.353   0.183  -9.411  0.00  0.00    +0.176 C 
ENDROOT
BRANCH   2   7
ATOM      7  C   UNL     1       7.664  -2.307  -5.273  0.00  0.00    +0.002 A 
ATOM      8  C   UNL     1       7.810  -3.644  -5.638  0.00  0.00    +0.010 A 
ATOM      9  C   UNL     1       8.413  -4.532  -4.771  0.00  0.00    +0.001 A 
ATOM     10  C   UNL     1       8.873  -4.097  -3.541  0.00  0.00    +0.000 A 
ATOM     11  C   UNL     1       8.731  -2.772  -3.173  0.00  0.00    +0.001 A 
ATOM     12  C   UNL     1       8.135  -1.873  -4.036  0.00  0.00    +0.010 A 
ENDBRANCH   2   7
BRANCH   1  13
ATOM     13  C   UNL     1       5.543  -0.100  -4.462  0.00  0.00    -0.035 C 
BRANCH  13  14
ATOM     14  N   UNL     1       4.257  -0.789  -4.290  0.00  0.00    +0.386 N 
ATOM     15  H   UNL     1       3.624  -0.507  -5.024  0.00  0.00    -0.081 HD
BRANCH  14  16
ATOM     16  C   UNL     1       4.467  -2.242  -4.356  0.00  0.00    -0.068 C 
ATOM     17  C   UNL     1       4.014  -2.964  -5.626  0.00  0.00    -0.017 C 
ATOM     18  C   UNL     1       3.227  -3.137  -4.325  0.00  0.00    -0.017 C 
ENDBRANCH  14  16
BRANCH  14  19
ATOM     19  C   UNL     1       3.683  -0.436  -2.985  0.00  0.00    -0.044 C 
BRANCH  19  20
ATOM     20  C   UNL     1       3.324   1.051  -2.971  0.00  0.00    +0.124 C 
BRANCH  20  21
ATOM     21  O   UNL     1       2.364   1.319  -3.996  0.00  0.00    -0.391 OA
ATOM     22  H   UNL     1       1.538   0.825  -3.901  0.00  0.00    +0.210 HD
ENDBRANCH  20  21
BRANCH  20  23
ATOM     23  C   UNL     1       2.732   1.420  -1.610  0.00  0.00    +0.189 C 
BRANCH  23  24
ATOM     24  O   UNL     1       2.504   2.830  -1.556  0.00  0.00    -0.372 OA
BRANCH  24  26
ATOM     25  C   UNL     1       2.904   2.935   0.825  0.00  0.00    +0.041 C 
ATOM     26  C   UNL     1       1.950   3.283  -0.319  0.00  0.00    +0.061 C 
ATOM     27  C   UNL     1       0.602   2.598  -0.084  0.00  0.00    +0.041 C 
ATOM     28  C   UNL     1       1.750   4.798  -0.374  0.00  0.00    +0.041 C 
ENDBRANCH  24  26
ENDBRANCH  23  24
ENDBRANCH  20  23
ENDBRANCH  19  20
ENDBRANCH  14  19
ENDBRANCH  13  14
ENDBRANCH   1  13
BRANCH   5  29
ATOM     29  O   UNL     1       4.830   1.320  -7.063  0.00  0.00    -0.435 OA
BRANCH  29  30
ATOM     30  C   UNL     1       5.308   2.592  -7.000  0.00  0.00    +0.166 A 
ATOM     31  C   UNL     1       6.675   2.819  -6.957  0.00  0.00    +0.052 A 
ATOM     32  C   UNL     1       7.159   4.111  -6.893  0.00  0.00    +0.042 A 
ATOM     33  C   UNL     1       6.279   5.181  -6.872  0.00  0.00    +0.126 A 
ATOM     34  C   UNL     1       4.914   4.958  -6.914  0.00  0.00    +0.080 A 
ATOM     35  C   UNL     1       4.426   3.665  -6.984  0.00  0.00    +0.168 A 
ATOM     36  F   UNL     1       3.094   3.447  -7.032  0.00  0.00    -0.202 F 
ATOM     37  F   UNL     1       6.755   6.444  -6.809  0.00  0.00    -0.205 F 
ENDBRANCH  29  30
ENDBRANCH   5  29
TORSDOF 12
