REMARK  Name = ZINC00360966
REMARK  7 active torsions:
REMARK  status: ('A' for Active; 'I' for Inactive)
REMARK    1  A    between atoms: C_1  and  N_2
REMARK    2  A    between atoms: C_3  and  C_18
REMARK    3  A    between atoms: C_6  and  S_7
REMARK    4  A    between atoms: S_7  and  C_8
REMARK    5  A    between atoms: C_8  and  C_9
REMARK    6  A    between atoms: C_12  and  N_15
REMARK    7  A    between atoms: C_22  and  N_24
REMARK                            x       y       z     vdW  Elec       q    Type
REMARK                         _______ _______ _______ _____ _____    ______ ____
ROOT
ATOM      1  C   UNL     1      -2.557   5.687   0.481  0.00  0.00    +0.153 C 
ATOM      2  N   UNL     1      -1.181   6.125   0.233  0.00  0.00    -0.305 N 
ATOM      3  C   UNL     1      -0.045   5.348   0.246  0.00  0.00    +0.165 A 
ATOM      4  N   UNL     1       0.966   6.138  -0.031  0.00  0.00    -0.128 NA
ATOM      5  N   UNL     1       0.547   7.340  -0.208  0.00  0.00    -0.122 NA
ATOM      6  C   UNL     1      -0.757   7.391  -0.055  0.00  0.00    +0.192 A 
ENDROOT
BRANCH   3   7
ATOM      7  C   UNL     1       0.022   3.895   0.515  0.00  0.00    +0.021 A 
ATOM      8  C   UNL     1      -1.023   3.258   1.186  0.00  0.00    +0.012 A 
ATOM      9  C   UNL     1      -0.961   1.901   1.431  0.00  0.00    +0.002 A 
ATOM     10  C   UNL     1       0.141   1.171   1.023  0.00  0.00    +0.023 A 
ATOM     11  C   UNL     1       1.186   1.796   0.355  0.00  0.00    +0.025 A 
ATOM     12  C   UNL     1       1.130   3.158   0.099  0.00  0.00    +0.034 A 
BRANCH  11  13
ATOM     13  N   UNL     1       2.294   1.053  -0.060  0.00  0.00    -0.358 N 
ATOM     14  H   UNL     1       2.333   0.100   0.118  0.00  0.00    +0.142 HD
ATOM     15  H   UNL     1       3.024   1.489  -0.527  0.00  0.00    +0.142 HD
ENDBRANCH  11  13
ENDBRANCH   3   7
BRANCH   6  16
ATOM     16  S   UNL     1      -1.772   8.824  -0.203  0.00  0.00    -0.081 S 
BRANCH  16  17
ATOM     17  C   UNL     1      -0.511  10.062  -0.597  0.00  0.00    +0.112 C 
BRANCH  17  18
ATOM     18  C   UNL     1      -1.167  11.408  -0.773  0.00  0.00    -0.037 A 
ATOM     19  C   UNL     1      -1.607  11.804  -2.022  0.00  0.00    +0.007 A 
ATOM     20  C   UNL     1      -2.212  13.036  -2.183  0.00  0.00    +0.033 A 
ATOM     21  C   UNL     1      -2.368  13.877  -1.096  0.00  0.00    +0.126 A 
ATOM     22  C   UNL     1      -1.923  13.482   0.152  0.00  0.00    +0.033 A 
ATOM     23  C   UNL     1      -1.322  12.248   0.313  0.00  0.00    +0.007 A 
BRANCH  21  24
ATOM     24  N   UNL     1      -3.012  15.198  -1.269  0.00  0.00    +0.056 N 
ATOM     25  O   UNL     1      -3.149  15.938  -0.312  0.00  0.00    -0.126 OA
ATOM     26  O   UNL     1      -3.404  15.546  -2.369  0.00  0.00    -0.126 OA
ENDBRANCH  21  24
ENDBRANCH  17  18
ENDBRANCH  16  17
ENDBRANCH   6  16
TORSDOF 6
