REMARK  Name = ZINC63932813
REMARK  7 active torsions:
REMARK  status: ('A' for Active; 'I' for Inactive)
REMARK    1  A    between atoms: C_1  and  C_2
REMARK    2  A    between atoms: C_7  and  C_14
REMARK    3  A    between atoms: C_14  and  N_15
REMARK    4  A    between atoms: N_15  and  C_16
REMARK    5  A    between atoms: N_15  and  S_22
REMARK    6  A    between atoms: C_16  and  C_17
REMARK    7  A    between atoms: S_22  and  C_25
REMARK                            x       y       z     vdW  Elec       q    Type
REMARK                         _______ _______ _______ _____ _____    ______ ____
ROOT
ATOM      1  N   UNL     1      -1.041  -6.678   2.477  0.00  0.00    -0.168 NA
ENDROOT
BRANCH   1   2
ATOM      2  S   UNL     1      -0.208  -8.104   2.357  0.00  0.00    +0.061 S 
ATOM      3  O   UNL     1      -0.660  -8.929   3.422  0.00  0.00    -0.153 OA
ATOM      4  O   UNL     1      -0.285  -8.506   0.996  0.00  0.00    -0.153 OA
BRANCH   2   5
ATOM      5  C   UNL     1       1.486  -7.747   2.681  0.00  0.00    +0.105 A 
ATOM      6  C   UNL     1       2.330  -7.398   1.644  0.00  0.00    +0.028 A 
ATOM      7  C   UNL     1       3.660  -7.118   1.898  0.00  0.00    +0.002 A 
ATOM      8  C   UNL     1       4.145  -7.186   3.191  0.00  0.00    +0.000 A 
ATOM      9  C   UNL     1       3.301  -7.534   4.229  0.00  0.00    +0.002 A 
ATOM     10  C   UNL     1       1.971  -7.810   3.975  0.00  0.00    +0.028 A 
ENDBRANCH   2   5
ENDBRANCH   1   2
BRANCH   1  11
ATOM     11  C   UNL     1      -1.218  -5.832   1.294  0.00  0.00    +0.126 C 
BRANCH  11  18
ATOM     12  C   UNL     1      -0.142   1.522   0.304  0.00  0.00    +0.044 C 
ATOM     13  C   UNL     1      -0.151   0.018   0.200  0.00  0.00    -0.049 A 
ATOM     14  C   UNL     1      -0.327  -0.564  -1.056  0.00  0.00    +0.004 A 
ATOM     15  C   UNL     1      -0.344  -1.913  -1.213  0.00  0.00    +0.010 A 
ATOM     16  C   UNL     1      -0.173  -2.763  -0.034  0.00  0.00    -0.007 A 
ATOM     17  C   UNL     1      -0.183  -4.122  -0.144  0.00  0.00    -0.003 C 
ATOM     18  C   UNL     1       0.003  -4.924   1.129  0.00  0.00    +0.114 C 
ATOM     19  C   UNL     1       0.183  -4.152   2.417  0.00  0.00    +0.225 C 
ATOM     20  O   UNL     1       0.336  -4.745   3.468  0.00  0.00    -0.275 OA
ATOM     21  N   UNL     1       0.174  -2.829   2.395  0.00  0.00    -0.284 N 
ATOM     22  C   UNL     1       0.012  -2.121   1.278  0.00  0.00    +0.041 A 
ATOM     23  C   UNL     1       0.019  -0.715   1.331  0.00  0.00    +0.027 A 
ATOM     24  H   UNL     1       0.292  -2.353   3.232  0.00  0.00    +0.155 HD
ENDBRANCH  11  18
ENDBRANCH   1  11
BRANCH   1  25
ATOM     25  C   UNL     1      -1.601  -6.262   3.765  0.00  0.00    +0.183 C 
BRANCH  25  26
ATOM     26  C   UNL     1      -3.033  -6.721   3.862  0.00  0.00    +0.120 A 
ATOM     27  C   UNL     1      -3.449  -7.897   4.364  0.00  0.00    +0.046 A 
ATOM     28  C   UNL     1      -4.859  -7.911   4.261  0.00  0.00    +0.041 A 
ATOM     29  C   UNL     1      -5.220  -6.742   3.701  0.00  0.00    +0.195 A 
ATOM     30  O   UNL     1      -4.110  -6.023   3.467  0.00  0.00    -0.466 OA
ENDBRANCH  25  26
ENDBRANCH   1  25
TORSDOF 6
