REMARK  Name = ZINC02361640
REMARK  8 active torsions:
REMARK  status: ('A' for Active; 'I' for Inactive)
REMARK    1  A    between atoms: C_1  and  C_2
REMARK    2  A    between atoms: C_4  and  N_16
REMARK    3  A    between atoms: N_8  and  C_9
REMARK    4  A    between atoms: C_9  and  C_11
REMARK    5  A    between atoms: C_9  and  O_15
REMARK    6  A    between atoms: N_16  and  N_17
REMARK    7  A    between atoms: N_17  and  C_18
REMARK    8  A    between atoms: C_18  and  S_20
REMARK                            x       y       z     vdW  Elec       q    Type
REMARK                         _______ _______ _______ _____ _____    ______ ____
ROOT
ATOM      1  C   UNL     1      -4.932   0.936   0.030  0.00  0.00    +0.066 C 
ATOM      2  C   UNL     1      -3.607   1.654   0.028  0.00  0.00    +0.045 A 
ATOM      3  C   UNL     1      -2.426   0.938   0.019  0.00  0.00    +0.068 A 
ATOM      4  C   UNL     1      -1.220   1.642   0.017  0.00  0.00    +0.140 A 
ATOM      5  N   UNL     1      -1.249   2.971   0.030  0.00  0.00    -0.198 NA
ATOM      6  C   UNL     1      -2.404   3.620   0.033  0.00  0.00    +0.219 A 
ATOM      7  N   UNL     1      -3.562   2.978   0.035  0.00  0.00    -0.220 NA
ATOM      8  N   UNL     1      -2.400   5.004   0.041  0.00  0.00    -0.285 N 
ATOM      9  H   UNL     1      -3.238   5.492   0.047  0.00  0.00    +0.151 HD
ENDROOT
BRANCH   4  10
ATOM     10  N   UNL     1      -0.011   0.966   0.007  0.00  0.00    -0.250 N 
ATOM     11  H   UNL     1       0.002  -0.004   0.002  0.00  0.00    +0.171 HD
BRANCH  10  12
ATOM     12  N   UNL     1       1.193   1.683  -0.000  0.00  0.00    -0.253 N 
ATOM     13  H   UNL     1       1.179   2.653   0.005  0.00  0.00    +0.171 HD
BRANCH  12  14
ATOM     14  C   UNL     1       2.369   1.025  -0.015  0.00  0.00    +0.120 C 
ATOM     15  S   UNL     1       3.840   1.901  -0.024  0.00  0.00    -0.027 S 
BRANCH  14  16
ATOM     16  S   UNL     1       2.393  -0.737  -0.025  0.00  0.00    -0.119 S 
ATOM     17  H   UNL     1       3.784  -0.963  -0.039  0.00  0.00    +0.109 HD
ENDBRANCH  14  16
ENDBRANCH  12  14
ENDBRANCH  10  12
ENDBRANCH   4  10
BRANCH   8  18
ATOM     18  C   UNL     1      -1.129   5.733   0.038  0.00  0.00    +0.254 C 
BRANCH  18  19
ATOM     19  C   UNL     1      -1.231   6.940   0.973  0.00  0.00    +0.232 C 
ATOM     20 CL   UNL     1      -2.550   8.030   0.403  0.00  0.00    -0.079 Cl
ATOM     21 CL   UNL     1      -1.598   6.376   2.646  0.00  0.00    -0.079 Cl
ATOM     22 CL   UNL     1       0.333   7.837   0.970  0.00  0.00    -0.079 Cl
ENDBRANCH  18  19
BRANCH  18  23
ATOM     23  O   UNL     1      -0.838   6.180  -1.287  0.00  0.00    -0.370 OA
ATOM     24  H   UNL     1      -1.507   6.772  -1.658  0.00  0.00    +0.212 HD
ENDBRANCH  18  23
ENDBRANCH   8  18
TORSDOF 7
