REMARK  Name = ZINC36604948
REMARK  15 active torsions:
REMARK  status: ('A' for Active; 'I' for Inactive)
REMARK    1  A    between atoms: C_1  and  C_2
REMARK    2  A    between atoms: C_5  and  S_8
REMARK    3  A    between atoms: S_8  and  C_11
REMARK    4  A    between atoms: C_11  and  N_12
REMARK    5  A    between atoms: C_13  and  C_15
REMARK    6  A    between atoms: C_15  and  C_17
REMARK    7  A    between atoms: C_15  and  N_26
REMARK    8  A    between atoms: C_18  and  O_25
REMARK    9  A    between atoms: C_20  and  O_24
REMARK   10  A    between atoms: C_22  and  O_23
REMARK   11  A    between atoms: N_26  and  C_27
REMARK   12  A    between atoms: C_33  and  C_35
REMARK   13  A    between atoms: C_35  and  C_36
REMARK   14  A    between atoms: C_36  and  C_37
REMARK   15  A    between atoms: C_36  and  C_38
REMARK                            x       y       z     vdW  Elec       q    Type
REMARK                         _______ _______ _______ _____ _____    ______ ____
ROOT
ATOM      1  C   UNL     1       3.082  -5.069   3.540  0.00  0.00    +0.204 C 
ENDROOT
BRANCH   1   2
ATOM      2  C   UNL     1       2.011  -4.421   4.379  0.00  0.00    +0.065 A 
ATOM      3  C   UNL     1       1.157  -5.204   5.141  0.00  0.00    +0.129 A 
ATOM      4  C   UNL     1       0.172  -4.608   5.913  0.00  0.00    +0.091 A 
ATOM      5  C   UNL     1       0.040  -3.227   5.923  0.00  0.00    +0.124 A 
ATOM      6  C   UNL     1       0.894  -2.443   5.162  0.00  0.00    +0.091 A 
ATOM      7  C   UNL     1       1.882  -3.040   4.393  0.00  0.00    +0.129 A 
BRANCH   7   8
ATOM      8  O   UNL     1       2.722  -2.272   3.651  0.00  0.00    -0.506 OA
ATOM      9  H   UNL     1       2.405  -2.095   2.755  0.00  0.00    +0.292 HD
ENDBRANCH   7   8
BRANCH   5  10
ATOM     10  O   UNL     1      -0.926  -2.642   6.679  0.00  0.00    -0.507 OA
ATOM     11  H   UNL     1      -0.644  -2.425   7.578  0.00  0.00    +0.292 HD
ENDBRANCH   5  10
BRANCH   3  12
ATOM     12  O   UNL     1       1.286  -6.557   5.131  0.00  0.00    -0.506 OA
ATOM     13  H   UNL     1       1.927  -6.896   5.772  0.00  0.00    +0.292 HD
ENDBRANCH   3  12
ENDBRANCH   1   2
BRANCH   1  15
ATOM     14  N   UNL     1       1.516  -5.463   1.666  0.00  0.00    -0.294 N 
ATOM     15  C   UNL     1       2.440  -5.963   2.510  0.00  0.00    +0.240 C 
ATOM     16  O   UNL     1       2.756  -7.132   2.441  0.00  0.00    -0.273 OA
ATOM     17  H   UNL     1       1.264  -4.528   1.721  0.00  0.00    +0.150 HD
BRANCH  14  18
ATOM     18  C   UNL     1       0.893  -6.331   0.664  0.00  0.00    +0.278 C 
BRANCH  18  19
ATOM     19  S   UNL     1      -0.675  -6.972   1.312  0.00  0.00    +0.013 S 
ATOM     20  O   UNL     1      -0.496  -7.461   2.634  0.00  0.00    -0.168 OA
ATOM     21  O   UNL     1      -1.323  -7.767   0.328  0.00  0.00    -0.168 OA
BRANCH  19  26
ATOM     22  C   UNL     1      -4.201  -2.115   1.935  0.00  0.00    +0.044 C 
ATOM     23  C   UNL     1      -3.320  -3.328   1.779  0.00  0.00    -0.050 A 
ATOM     24  C   UNL     1      -3.317  -4.032   0.589  0.00  0.00    +0.005 A 
ATOM     25  C   UNL     1      -2.509  -5.145   0.447  0.00  0.00    +0.027 A 
ATOM     26  C   UNL     1      -1.704  -5.553   1.494  0.00  0.00    +0.090 A 
ATOM     27  C   UNL     1      -1.707  -4.849   2.683  0.00  0.00    +0.027 A 
ATOM     28  C   UNL     1      -2.511  -3.734   2.824  0.00  0.00    +0.005 A 
ENDBRANCH  19  26
ENDBRANCH  18  19
ENDBRANCH  14  18
ENDBRANCH   1  15
BRANCH   1  29
ATOM     29  N   UNL     1       3.959  -5.867   4.400  0.00  0.00    -0.255 N 
ATOM     30  C   UNL     1       3.889  -5.738   5.740  0.00  0.00    +0.221 C 
ATOM     31  O   UNL     1       3.193  -4.873   6.230  0.00  0.00    -0.275 OA
BRANCH  29  32
ATOM     32  C   UNL     1       4.870  -6.764   3.830  0.00  0.00    +0.037 A 
ATOM     33  C   UNL     1       5.021  -6.821   2.451  0.00  0.00    +0.023 A 
ATOM     34  C   UNL     1       5.921  -7.706   1.892  0.00  0.00    +0.002 A 
ATOM     35  C   UNL     1       6.672  -8.536   2.704  0.00  0.00    +0.000 A 
ATOM     36  C   UNL     1       6.524  -8.482   4.078  0.00  0.00    +0.002 A 
ATOM     37  C   UNL     1       5.629  -7.595   4.644  0.00  0.00    +0.023 A 
ENDBRANCH  29  32
BRANCH  30  38
ATOM     38  C   UNL     1       4.676  -6.666   6.629  0.00  0.00    +0.099 C 
BRANCH  38  39
ATOM     39  C   UNL     1       4.339  -6.378   8.093  0.00  0.00    -0.008 C 
ATOM     40  C   UNL     1       5.040  -7.400   8.989  0.00  0.00    +0.008 C 
ATOM     41  C   UNL     1       4.814  -4.970   8.458  0.00  0.00    +0.008 C 
ENDBRANCH  38  39
ENDBRANCH  30  38
ENDBRANCH   1  29
TORSDOF 12
