REMARK  Name = ZINC08157238
REMARK  9 active torsions:
REMARK  status: ('A' for Active; 'I' for Inactive)
REMARK    1  A    between atoms: C_1  and  O_2
REMARK    2  A    between atoms: O_2  and  C_3
REMARK    3  A    between atoms: C_6  and  C_9
REMARK    4  A    between atoms: C_16  and  C_17
REMARK    5  A    between atoms: C_16  and  N_59
REMARK    6  A    between atoms: N_19  and  C_20
REMARK    7  A    between atoms: C_25  and  S_26
REMARK    8  A    between atoms: S_26  and  C_27
REMARK    9  A    between atoms: C_27  and  C_28
REMARK                            x       y       z     vdW  Elec       q    Type
REMARK                         _______ _______ _______ _____ _____    ______ ____
ROOT
ATOM      1  C   UNL     1       1.279   2.114   0.013  0.00  0.00    +0.020 C 
ENDROOT
BRANCH   1   8
ATOM      2  C   UNL     1       2.155   4.296   0.252  0.00  0.00    -0.037 C 
ATOM      3  C   UNL     1       1.844   5.789   0.494  0.00  0.00    -0.011 C 
ATOM      4  C   UNL     1       1.553   6.451  -0.829  0.00  0.00    -0.001 C 
ATOM      5  C   UNL     1       0.049   6.466  -1.165  0.00  0.00    -0.002 C 
ATOM      6  C   UNL     1      -0.634   5.134  -0.810  0.00  0.00    -0.019 C 
ATOM      7  C   UNL     1       0.229   3.953  -1.175  0.00  0.00    -0.077 C 
ATOM      8  N   UNL     1       0.959   3.553   0.069  0.00  0.00    +0.390 N 
ATOM      9  H   UNL     1       0.345   3.725   0.874  0.00  0.00    -0.080 HD
BRANCH   2  13
ATOM     10  C   UNL     1       4.165   2.719   3.678  0.00  0.00    +0.120 A 
ATOM     11  C   UNL     1       4.894   3.126   2.570  0.00  0.00    +0.046 A 
ATOM     12  C   UNL     1       4.242   3.635   1.464  0.00  0.00    +0.005 A 
ATOM     13  C   UNL     1       2.863   3.740   1.460  0.00  0.00    -0.061 A 
ATOM     14  C   UNL     1       2.134   3.340   2.565  0.00  0.00    +0.005 A 
ATOM     15  C   UNL     1       2.781   2.824   3.671  0.00  0.00    +0.046 A 
BRANCH  10  17
ATOM     16  C   UNL     1       3.989   1.817   5.871  0.00  0.00    +0.277 C 
ATOM     17  O   UNL     1       4.804   2.217   4.767  0.00  0.00    -0.495 OA
ENDBRANCH  10  17
ENDBRANCH   2  13
ENDBRANCH   1   8
BRANCH   1  18
ATOM     18  C   UNL     1      -0.016   1.343   0.013  0.00  0.00    +0.201 C 
ATOM     19  O   UNL     1      -1.074   1.936   0.017  0.00  0.00    -0.278 OA
ATOM     20  N   UNL     1       0.002  -0.004   0.002  0.00  0.00    -0.286 N 
ATOM     21  H   UNL     1       0.845  -0.477  -0.084  0.00  0.00    +0.155 HD
BRANCH  20  22
ATOM     22  C   UNL     1      -1.196  -0.722   0.115  0.00  0.00    +0.047 A 
ATOM     23  C   UNL     1      -2.296  -0.146   0.734  0.00  0.00    +0.024 A 
ATOM     24  C   UNL     1      -3.478  -0.854   0.841  0.00  0.00    +0.002 A 
ATOM     25  C   UNL     1      -3.567  -2.141   0.341  0.00  0.00    +0.001 A 
ATOM     26  C   UNL     1      -2.475  -2.725  -0.273  0.00  0.00    +0.016 A 
ATOM     27  C   UNL     1      -1.285  -2.020  -0.389  0.00  0.00    +0.030 A 
BRANCH  27  28
ATOM     28  S   UNL     1       0.109  -2.761  -1.170  0.00  0.00    -0.114 S 
BRANCH  28  29
ATOM     29  C   UNL     1      -0.480  -4.409  -1.647  0.00  0.00    +0.169 C 
BRANCH  29  30
ATOM     30  C   UNL     1       0.630  -5.160  -2.335  0.00  0.00    +0.221 C 
ATOM     31  O   UNL     1       1.713  -4.636  -2.488  0.00  0.00    -0.275 OA
ATOM     32  N   UNL     1       0.421  -6.415  -2.780  0.00  0.00    -0.329 N 
ATOM     33  H   UNL     1      -0.445  -6.835  -2.657  0.00  0.00    +0.145 HD
ATOM     34  H   UNL     1       1.136  -6.899  -3.223  0.00  0.00    +0.145 HD
ENDBRANCH  29  30
ENDBRANCH  28  29
ENDBRANCH  27  28
ENDBRANCH  20  22
ENDBRANCH   1  18
TORSDOF 8
