REMARK  Name = ZINC30982918
REMARK  8 active torsions:
REMARK  status: ('A' for Active; 'I' for Inactive)
REMARK    1  A    between atoms: N_9  and  C_10
REMARK    2  A    between atoms: C_10  and  C_11
REMARK    3  A    between atoms: C_11  and  C_12
REMARK    4  A    between atoms: C_12  and  N_13
REMARK    5  A    between atoms: C_14  and  C_16
REMARK    6  A    between atoms: N_19  and  C_22
REMARK    7  A    between atoms: C_22  and  C_23
REMARK    8  A    between atoms: C_25  and  C_28
REMARK                            x       y       z     vdW  Elec       q    Type
REMARK                         _______ _______ _______ _____ _____    ______ ____
ROOT
ATOM      1  C   UNL     1      -0.374   5.180   7.581  0.00  0.00    +0.071 C 
ATOM      2  C   UNL     1      -0.884   6.463   6.919  0.00  0.00    -0.006 C 
ATOM      3  C   UNL     1      -1.554   7.345   7.975  0.00  0.00    -0.077 C 
ATOM      4  N   UNL     1      -0.585   7.669   9.030  0.00  0.00    +0.386 N 
ATOM      5  C   UNL     1      -0.118   6.455   9.712  0.00  0.00    -0.077 C 
ATOM      6  C   UNL     1       0.595   5.546   8.708  0.00  0.00    -0.006 C 
ATOM      7  H   UNL     1       0.286   8.141   8.553  0.00  0.00    -0.081 HD
ENDROOT
BRANCH   1   9
ATOM      8  N   UNL     1      -0.322   3.892   5.470  0.00  0.00    -0.315 N 
ATOM      9  C   UNL     1       0.339   4.334   6.558  0.00  0.00    +0.216 C 
ATOM     10  O   UNL     1       1.508   4.052   6.714  0.00  0.00    -0.276 OA
ATOM     11  H   UNL     1      -1.382   4.148   5.329  0.00  0.00    +0.149 HD
BRANCH   8  12
ATOM     12  C   UNL     1       0.372   3.070   4.476  0.00  0.00    +0.105 C 
BRANCH  12  13
ATOM     13  C   UNL     1      -0.598   2.704   3.350  0.00  0.00    +0.037 C 
BRANCH  13  14
ATOM     14  C   UNL     1       0.127   1.845   2.312  0.00  0.00    +0.106 C 
BRANCH  14  23
ATOM     15  C   UNL     1      -4.603   0.258   2.139  0.00  0.00    +0.000 A 
ATOM     16  C   UNL     1      -3.555  -0.282   2.861  0.00  0.00    +0.002 A 
ATOM     17  C   UNL     1      -2.258   0.110   2.603  0.00  0.00    +0.023 A 
ATOM     18  C   UNL     1      -1.995   1.054   1.612  0.00  0.00    +0.033 A 
ATOM     19  C   UNL     1      -3.056   1.594   0.895  0.00  0.00    -0.025 A 
ATOM     20  C   UNL     1      -4.351   1.197   1.155  0.00  0.00    +0.005 A 
ATOM     21  C   UNL     1      -2.490   2.588  -0.099  0.00  0.00    +0.056 C 
ATOM     22  C   UNL     1      -1.059   2.831   0.435  0.00  0.00    +0.110 C 
ATOM     23  N   UNL     1      -0.771   1.586   1.178  0.00  0.00    -0.329 N 
ENDBRANCH  14  23
ENDBRANCH  13  14
ENDBRANCH  12  13
ENDBRANCH   8  12
ENDBRANCH   1   9
BRANCH   4  24
ATOM     24  C   UNL     1      -1.152   8.626   9.989  0.00  0.00    +0.022 C 
BRANCH  24  25
ATOM     25  C   UNL     1      -1.393   9.944   9.300  0.00  0.00    +0.211 A 
ATOM     26  N   UNL     1      -2.489  10.311   8.684  0.00  0.00    -0.193 NA
ATOM     27  C   UNL     1      -2.248  11.560   8.225  0.00  0.00    +0.202 A 
ATOM     28  N   UNL     1      -1.031  11.876   8.587  0.00  0.00    -0.056 NA
ATOM     29  O   UNL     1      -0.531  10.962   9.208  0.00  0.00    -0.340 OA
BRANCH  27  30
ATOM     30  C   UNL     1      -3.187  12.413   7.455  0.00  0.00    +0.023 A 
ATOM     31  C   UNL     1      -4.458  11.939   7.134  0.00  0.00    +0.014 A 
ATOM     32  C   UNL     1      -5.330  12.737   6.423  0.00  0.00    +0.039 A 
ATOM     33  C   UNL     1      -4.939  14.004   6.018  0.00  0.00    +0.123 A 
ATOM     34  C   UNL     1      -3.675  14.476   6.331  0.00  0.00    +0.039 A 
ATOM     35  C   UNL     1      -2.799  13.687   7.047  0.00  0.00    +0.014 A 
ATOM     36  F   UNL     1      -5.795  14.780   5.317  0.00  0.00    -0.205 F 
ENDBRANCH  27  30
ENDBRANCH  24  25
ENDBRANCH   4  24
TORSDOF 8
