REMARK  Name = ZINC63709977
REMARK  6 active torsions:
REMARK  status: ('A' for Active; 'I' for Inactive)
REMARK    1  A    between atoms: C_7  and  C_10
REMARK    2  A    between atoms: C_10  and  C_11
REMARK    3  A    between atoms: C_11  and  N_12
REMARK    4  A    between atoms: C_13  and  C_15
REMARK    5  A    between atoms: N_23  and  C_26
REMARK    6  A    between atoms: C_26  and  C_27
REMARK                            x       y       z     vdW  Elec       q    Type
REMARK                         _______ _______ _______ _____ _____    ______ ____
ROOT
ATOM      1  C   UNL     1      -1.641  -6.596  -2.615  0.00  0.00    +0.102 A 
ATOM      2  C   UNL     1      -1.918  -7.264  -3.795  0.00  0.00    +0.030 A 
ATOM      3  C   UNL     1      -2.719  -8.429  -3.751  0.00  0.00    +0.018 A 
ATOM      4  C   UNL     1      -3.021  -9.133  -4.929  0.00  0.00    +0.013 A 
ATOM      5  C   UNL     1      -3.801 -10.255  -4.832  0.00  0.00    +0.020 A 
ATOM      6  C   UNL     1      -4.266 -10.661  -3.590  0.00  0.00    +0.113 A 
ATOM      7  N   UNL     1      -3.975  -9.993  -2.494  0.00  0.00    -0.237 NA
ATOM      8  C   UNL     1      -3.224  -8.898  -2.522  0.00  0.00    +0.144 A 
ATOM      9  N   UNL     1      -2.944  -8.228  -1.354  0.00  0.00    -0.288 N 
ATOM     10  C   UNL     1      -2.180  -7.120  -1.356  0.00  0.00    +0.265 A 
ATOM     11  O   UNL     1      -1.941  -6.547  -0.308  0.00  0.00    -0.267 OA
ENDROOT
BRANCH   1  13
ATOM     12  N   UNL     1      -0.450  -4.803  -1.460  0.00  0.00    -0.311 N 
ATOM     13  C   UNL     1      -0.811  -5.380  -2.623  0.00  0.00    +0.249 C 
ATOM     14  O   UNL     1      -0.450  -4.897  -3.680  0.00  0.00    -0.270 OA
ATOM     15  H   UNL     1      -0.798  -5.143  -0.621  0.00  0.00    +0.149 HD
BRANCH  12  16
ATOM     16  C   UNL     1       0.467  -3.660  -1.463  0.00  0.00    +0.109 C 
BRANCH  16  17
ATOM     17  C   UNL     1       0.710  -3.198  -0.025  0.00  0.00    +0.052 C 
BRANCH  17  24
ATOM     18  C   UNL     1       0.012   1.337   0.029  0.00  0.00    +0.001 A 
ATOM     19  C   UNL     1       1.196   2.088   0.017  0.00  0.00    +0.002 A 
ATOM     20  C   UNL     1       2.420   1.520  -0.006  0.00  0.00    +0.026 A 
ATOM     21  C   UNL     1       2.555   0.104  -0.022  0.00  0.00    +0.043 A 
ATOM     22  N   UNL     1       3.611  -0.672  -0.045  0.00  0.00    -0.380 N 
ATOM     23  C   UNL     1       3.164  -2.070  -0.052  0.00  0.00    +0.144 C 
ATOM     24  C   UNL     1       1.653  -2.022  -0.028  0.00  0.00    -0.040 C 
ATOM     25  C   UNL     1       1.319  -0.712  -0.010  0.00  0.00    -0.001 A 
ATOM     26  C   UNL     1       0.028  -0.015   0.016  0.00  0.00    +0.010 A 
ATOM     27  H   UNL     1       4.533  -0.372  -0.057  0.00  0.00    +0.160 HD
ENDBRANCH  17  24
ENDBRANCH  16  17
ENDBRANCH  12  16
ENDBRANCH   1  13
BRANCH   9  28
ATOM     28  C   UNL     1      -3.479  -8.733  -0.087  0.00  0.00    +0.162 C 
BRANCH  28  29
ATOM     29  C   UNL     1      -2.498  -9.700   0.523  0.00  0.00    -0.027 A 
ATOM     30  C   UNL     1      -2.573 -11.046   0.216  0.00  0.00    +0.008 A 
ATOM     31  C   UNL     1      -1.673 -11.934   0.775  0.00  0.00    +0.038 A 
ATOM     32  C   UNL     1      -0.697 -11.475   1.643  0.00  0.00    +0.123 A 
ATOM     33  C   UNL     1      -0.623 -10.127   1.950  0.00  0.00    +0.038 A 
ATOM     34  C   UNL     1      -1.520  -9.240   1.386  0.00  0.00    +0.008 A 
ATOM     35  F   UNL     1       0.182 -12.343   2.190  0.00  0.00    -0.205 F 
ENDBRANCH  28  29
ENDBRANCH   9  28
TORSDOF 6
