REMARK  Name = ZINC19957152
REMARK  4 active torsions:
REMARK  status: ('A' for Active; 'I' for Inactive)
REMARK    1  A    between atoms: C_16  and  C_18
REMARK    2  A    between atoms: C_18  and  S_19
REMARK    3  A    between atoms: S_19  and  C_20
REMARK    4  A    between atoms: C_24  and  N_26
REMARK                            x       y       z     vdW  Elec       q    Type
REMARK                         _______ _______ _______ _____ _____    ______ ____
ROOT
ATOM      1  C   UNL     1       1.178   1.780   0.000  0.00  0.00    +0.000 A 
ATOM      2  C   UNL     1      -0.013   1.076   0.008  0.00  0.00    +0.002 A 
ATOM      3  C   UNL     1      -1.224   1.748   0.017  0.00  0.00    +0.024 A 
ATOM      4  C   UNL     1      -1.214   3.132   0.036  0.00  0.00    +0.044 A 
ATOM      5  C   UNL     1      -0.033   3.826   0.007  0.00  0.00    -0.025 A 
ATOM      6  C   UNL     1       1.175   3.167  -0.006  0.00  0.00    +0.005 A 
ATOM      7  C   UNL     1      -0.145   5.328  -0.042  0.00  0.00    +0.042 C 
ATOM      8  C   UNL     1      -0.447   5.904   1.330  0.00  0.00    +0.042 C 
ATOM      9  C   UNL     1      -1.767   5.431   1.896  0.00  0.00    -0.025 A 
ATOM     10  C   UNL     1      -2.091   5.964   3.146  0.00  0.00    +0.005 A 
ATOM     11  C   UNL     1      -3.273   5.650   3.776  0.00  0.00    +0.000 A 
ATOM     12  C   UNL     1      -4.178   4.794   3.174  0.00  0.00    +0.002 A 
ATOM     13  C   UNL     1      -3.873   4.249   1.945  0.00  0.00    +0.024 A 
ATOM     14  C   UNL     1      -2.669   4.553   1.317  0.00  0.00    +0.044 A 
ATOM     15  N   UNL     1      -2.383   3.903   0.106  0.00  0.00    -0.239 N 
ATOM     16  C   UNL     1      -3.207   4.016  -0.955  0.00  0.00    +0.234 C 
ATOM     17  O   UNL     1      -4.213   4.688  -0.872  0.00  0.00    -0.274 OA
ENDROOT
BRANCH  16  18
ATOM     18  C   UNL     1      -2.877   3.308  -2.243  0.00  0.00    +0.174 C 
BRANCH  18  19
ATOM     19  S   UNL     1      -4.164   3.653  -3.468  0.00  0.00    -0.077 S 
BRANCH  19  20
ATOM     20  C   UNL     1      -3.542   2.730  -4.834  0.00  0.00    +0.192 A 
ATOM     21  N   UNL     1      -2.404   2.065  -4.699  0.00  0.00    -0.207 NA
ATOM     22  C   UNL     1      -1.907   1.352  -5.707  0.00  0.00    +0.122 A 
ATOM     23  C   UNL     1      -2.594   1.321  -6.917  0.00  0.00    +0.086 A 
ATOM     24  C   UNL     1      -3.784   2.036  -7.023  0.00  0.00    +0.122 A 
ATOM     25  N   UNL     1      -4.223   2.722  -5.971  0.00  0.00    -0.207 NA
ATOM     26  N   UNL     1      -0.719   0.655  -5.556  0.00  0.00    -0.343 N 
ATOM     27  H   UNL     1      -0.315   0.068  -6.394  0.00  0.00    +0.144 HD
ATOM     28  H   UNL     1      -0.180   0.688  -4.597  0.00  0.00    +0.144 HD
BRANCH  24  29
ATOM     29  N   UNL     1      -4.501   2.033  -8.209  0.00  0.00    -0.343 N 
ATOM     30  H   UNL     1      -5.441   2.601  -8.285  0.00  0.00    +0.144 HD
ATOM     31  H   UNL     1      -4.132   1.463  -9.074  0.00  0.00    +0.144 HD
ENDBRANCH  24  29
ENDBRANCH  19  20
ENDBRANCH  18  19
ENDBRANCH  16  18
TORSDOF 4
