REMARK  Name = ZINC12598759
REMARK  8 active torsions:
REMARK  status: ('A' for Active; 'I' for Inactive)
REMARK    1  A    between atoms: C_1  and  C_2
REMARK    2  A    between atoms: C_4  and  C_14
REMARK    3  A    between atoms: C_5  and  C_13
REMARK    4  A    between atoms: N_6  and  C_7
REMARK    5  A    between atoms: C_7  and  C_8
REMARK    6  A    between atoms: C_14  and  C_16
REMARK    7  A    between atoms: C_16  and  N_17
REMARK    8  A    between atoms: N_22  and  C_25
REMARK                            x       y       z     vdW  Elec       q    Type
REMARK                         _______ _______ _______ _____ _____    ______ ____
ROOT
ATOM      1  C   UNL     1       5.258   2.141   4.428  0.00  0.00    +0.185 C 
ATOM      2  O   UNL     1       5.240   3.348   4.309  0.00  0.00    -0.290 OA
ENDROOT
BRANCH   1   6
ATOM      3  C   UNL     1       4.135  -1.935   1.585  0.00  0.00    +0.063 C 
ATOM      4  C   UNL     1       4.342  -0.524   2.072  0.00  0.00    +0.017 A 
ATOM      5  C   UNL     1       4.794  -0.179   3.289  0.00  0.00    +0.034 A 
ATOM      6  C   UNL     1       4.834   1.289   3.315  0.00  0.00    +0.040 A 
ATOM      7  C   UNL     1       4.394   1.701   2.071  0.00  0.00    +0.027 A 
ATOM      8  N   UNL     1       4.101   0.606   1.347  0.00  0.00    -0.340 N 
ATOM      9  C   UNL     1       4.263   3.129   1.608  0.00  0.00    +0.064 C 
BRANCH   8  10
ATOM     10  C   UNL     1       3.599   0.625  -0.030  0.00  0.00    +0.196 C 
BRANCH  10  11
ATOM     11  C   UNL     1       2.092   0.660  -0.014  0.00  0.00    +0.124 A 
ATOM     12  C   UNL     1       1.331   1.769  -0.001  0.00  0.00    +0.046 A 
ATOM     13  C   UNL     1      -0.016   1.341   0.009  0.00  0.00    +0.041 A 
ATOM     14  C   UNL     1       0.002  -0.004   0.002  0.00  0.00    +0.195 A 
ATOM     15  O   UNL     1       1.282  -0.411  -0.012  0.00  0.00    -0.466 OA
ENDBRANCH  10  11
ENDBRANCH   8  10
ENDBRANCH   1   6
BRANCH   1  16
ATOM     16  C   UNL     1       5.717   1.518   5.721  0.00  0.00    +0.209 C 
BRANCH  16  17
ATOM     17  N   UNL     1       6.085   2.574   6.668  0.00  0.00    -0.251 N 
ATOM     18  C   UNL     1       5.155   3.081   7.503  0.00  0.00    +0.292 A 
ATOM     19  O   UNL     1       4.010   2.665   7.473  0.00  0.00    -0.264 OA
ATOM     20  C   UNL     1       5.521   4.102   8.415  0.00  0.00    +0.204 A 
ATOM     21  C   UNL     1       6.798   4.544   8.427  0.00  0.00    +0.137 A 
ATOM     22  N   UNL     1       7.712   4.002   7.562  0.00  0.00    -0.271 N 
ATOM     23  C   UNL     1       7.351   3.030   6.705  0.00  0.00    +0.334 A 
ATOM     24  O   UNL     1       8.179   2.559   5.949  0.00  0.00    -0.246 OA
ATOM     25  F   UNL     1       4.607   4.625   9.260  0.00  0.00    -0.198 F 
BRANCH  22  26
ATOM     26  C   UNL     1       9.096   4.480   7.575  0.00  0.00    +0.223 C 
ATOM     27  C   UNL     1       9.145   5.956   7.132  0.00  0.00    +0.057 C 
ATOM     28  C   UNL     1       9.796   6.690   8.330  0.00  0.00    +0.032 C 
ATOM     29  C   UNL     1      10.525   5.535   9.061  0.00  0.00    +0.162 C 
ATOM     30  O   UNL     1       9.623   4.418   8.911  0.00  0.00    -0.356 OA
ENDBRANCH  22  26
ENDBRANCH  16  17
ENDBRANCH   1  16
TORSDOF 6
