REMARK  Name = ZINC02861943
REMARK  8 active torsions:
REMARK  status: ('A' for Active; 'I' for Inactive)
REMARK    1  A    between atoms: C_1  and  C_2
REMARK    2  A    between atoms: C_6  and  C_29
REMARK    3  A    between atoms: C_7  and  N_8
REMARK    4  A    between atoms: C_9  and  C_11
REMARK    5  A    between atoms: C_11  and  S_12
REMARK    6  A    between atoms: S_12  and  C_13
REMARK    7  A    between atoms: C_16  and  C_19
REMARK    8  A    between atoms: N_17  and  C_18
REMARK                            x       y       z     vdW  Elec       q    Type
REMARK                         _______ _______ _______ _____ _____    ______ ____
ROOT
ATOM      1  C   UNL     1       4.929   1.369  -0.943  0.00  0.00    +0.192 A 
ATOM      2  N   UNL     1       5.112   0.335  -0.151  0.00  0.00    -0.122 NA
ATOM      3  N   UNL     1       6.355   0.010  -0.128  0.00  0.00    -0.125 NA
ATOM      4  C   UNL     1       7.046   0.824  -0.895  0.00  0.00    +0.200 A 
ATOM      5  N   UNL     1       6.152   1.719  -1.441  0.00  0.00    -0.303 N 
ATOM      6  C   UNL     1       6.450   2.818  -2.363  0.00  0.00    +0.153 C 
ENDROOT
BRANCH   4   7
ATOM      7  C   UNL     1       8.498   0.786  -1.128  0.00  0.00    +0.173 A 
ATOM      8  C   UNL     1       9.393   0.100  -0.371  0.00  0.00    +0.061 A 
ATOM      9  C   UNL     1      10.705   0.349  -0.970  0.00  0.00    +0.022 A 
ATOM     10  C   UNL     1      12.005  -0.064  -0.670  0.00  0.00    +0.031 A 
ATOM     11  C   UNL     1      13.054   0.367  -1.453  0.00  0.00    +0.042 A 
ATOM     12  C   UNL     1      12.820   1.206  -2.535  0.00  0.00    +0.023 A 
ATOM     13  C   UNL     1      11.541   1.620  -2.842  0.00  0.00    +0.048 A 
ATOM     14  C   UNL     1      10.469   1.198  -2.066  0.00  0.00    +0.136 A 
ATOM     15  O   UNL     1       9.142   1.432  -2.122  0.00  0.00    -0.452 OA
ATOM     16 CL   UNL     1      14.673  -0.140  -1.086  0.00  0.00    -0.084 Cl
ENDBRANCH   4   7
BRANCH   1  17
ATOM     17  S   UNL     1       3.394   2.160  -1.290  0.00  0.00    -0.077 S 
BRANCH  17  18
ATOM     18  C   UNL     1       2.283   1.144  -0.286  0.00  0.00    +0.173 C 
BRANCH  18  20
ATOM     19  N   UNL     1      -0.134   1.043   0.231  0.00  0.00    -0.284 N 
ATOM     20  C   UNL     1       0.871   1.650  -0.431  0.00  0.00    +0.228 C 
ATOM     21  O   UNL     1       0.638   2.604  -1.143  0.00  0.00    -0.275 OA
ATOM     22  H   UNL     1       0.043   0.248   0.758  0.00  0.00    +0.155 HD
BRANCH  19  29
ATOM     23  C   UNL     1      -0.531   3.795   0.834  0.00  0.00    +0.046 C 
ATOM     24  C   UNL     1      -1.673   2.894   0.439  0.00  0.00    -0.028 A 
ATOM     25  C   UNL     1      -2.955   3.399   0.355  0.00  0.00    +0.020 A 
ATOM     26  C   UNL     1      -4.004   2.570  -0.002  0.00  0.00    +0.018 A 
ATOM     27  C   UNL     1      -3.771   1.235  -0.281  0.00  0.00    +0.020 A 
ATOM     28  C   UNL     1      -2.489   0.726  -0.205  0.00  0.00    -0.028 A 
ATOM     29  C   UNL     1      -1.434   1.556   0.153  0.00  0.00    +0.039 A 
ATOM     30  C   UNL     1      -2.235  -0.728  -0.510  0.00  0.00    +0.046 C 
ATOM     31 BR   UNL     1      -5.761   3.263  -0.107  0.00  0.00    -0.050 Br
ENDBRANCH  19  29
ENDBRANCH  18  20
ENDBRANCH  17  18
ENDBRANCH   1  17
TORSDOF 5
