REMARK  Name = ZINC58893046
REMARK  15 active torsions:
REMARK  status: ('A' for Active; 'I' for Inactive)
REMARK    1  A    between atoms: C_1  and  C_2
REMARK    2  A    between atoms: C_2  and  O_3
REMARK    3  A    between atoms: O_3  and  C_4
REMARK    4  A    between atoms: C_7  and  C_10
REMARK    5  A    between atoms: C_10  and  C_12
REMARK    6  A    between atoms: C_10  and  O_31
REMARK    7  A    between atoms: C_12  and  C_13
REMARK    8  A    between atoms: C_13  and  C_14
REMARK    9  A    between atoms: N_16  and  N_17
REMARK   10  A    between atoms: C_18  and  C_19
REMARK   11  A    between atoms: C_21  and  O_29
REMARK   12  A    between atoms: C_22  and  O_26
REMARK   13  A    between atoms: O_26  and  C_27
REMARK   14  A    between atoms: C_27  and  C_28
REMARK   15  A    between atoms: O_29  and  C_30
REMARK                            x       y       z     vdW  Elec       q    Type
REMARK                         _______ _______ _______ _____ _____    ______ ____
ROOT
ATOM      1  C   UNL     1      -1.065  -8.600   3.588  0.00  0.00    +0.232 C 
ATOM      2  O   UNL     1      -1.827  -7.814   4.109  0.00  0.00    -0.274 OA
ATOM      3  N   UNL     1      -1.220  -9.924   3.790  0.00  0.00    -0.207 N 
ATOM      4  H   UNL     1      -0.610 -10.553   3.373  0.00  0.00    +0.177 HD
ENDROOT
BRANCH   3   5
ATOM      5  N   UNL     1      -2.261 -10.391   4.602  0.00  0.00    -0.188 NA
ATOM      6  C   UNL     1      -2.410 -11.665   4.797  0.00  0.00    +0.138 C 
BRANCH   6   7
ATOM      7  C   UNL     1      -3.506 -12.157   5.651  0.00  0.00    -0.001 A 
ATOM      8  C   UNL     1      -3.665 -13.529   5.867  0.00  0.00    +0.059 A 
ATOM      9  C   UNL     1      -4.694 -13.985   6.669  0.00  0.00    +0.163 A 
ATOM     10  C   UNL     1      -5.571 -13.078   7.260  0.00  0.00    +0.175 A 
ATOM     11  C   UNL     1      -5.415 -11.716   7.046  0.00  0.00    +0.059 A 
ATOM     12  C   UNL     1      -4.385 -11.253   6.252  0.00  0.00    +0.027 A 
ATOM     13  I   UNL     1      -6.738 -10.359   7.938  0.00  0.00    -0.040 I 
BRANCH   9  14
ATOM     14  O   UNL     1      -4.851 -15.319   6.881  0.00  0.00    -0.491 OA
ATOM     15  C   UNL     1      -3.916 -16.192   6.243  0.00  0.00    +0.277 C 
ENDBRANCH   9  14
BRANCH  10  16
ATOM     16  O   UNL     1      -6.583 -13.529   8.048  0.00  0.00    -0.488 OA
BRANCH  16  17
ATOM     17  C   UNL     1      -6.305 -13.672   9.443  0.00  0.00    +0.226 C 
ATOM     18  C   UNL     1      -7.554 -14.186  10.162  0.00  0.00    +0.048 C 
ENDBRANCH  16  17
ENDBRANCH  10  16
ENDBRANCH   6   7
ENDBRANCH   3   5
BRANCH   1  19
ATOM     19  C   UNL     1       0.056  -8.098   2.714  0.00  0.00    +0.100 C 
BRANCH  19  20
ATOM     20  C   UNL     1       0.007  -6.569   2.651  0.00  0.00    +0.045 C 
BRANCH  20  21
ATOM     21  C   UNL     1       1.144  -6.059   1.764  0.00  0.00    +0.145 C 
BRANCH  21  25
ATOM     22  C   UNL     1       0.802  -1.824   1.306  0.00  0.00    +0.121 A 
ATOM     23  C   UNL     1       0.260  -2.673   0.351  0.00  0.00    +0.046 A 
ATOM     24  C   UNL     1       0.372  -4.041   0.502  0.00  0.00    +0.010 A 
ATOM     25  C   UNL     1       1.024  -4.566   1.603  0.00  0.00    -0.019 A 
ATOM     26  C   UNL     1       1.565  -3.722   2.555  0.00  0.00    +0.010 A 
ATOM     27  C   UNL     1       1.460  -2.353   2.406  0.00  0.00    +0.046 A 
BRANCH  22  28
ATOM     28  O   UNL     1       0.693  -0.477   1.160  0.00  0.00    -0.492 OA
BRANCH  28  30
ATOM     29  C   UNL     1      -0.019   1.526   0.010  0.00  0.00    +0.048 C 
ATOM     30  C   UNL     1       0.002  -0.004   0.002  0.00  0.00    +0.225 C 
ENDBRANCH  28  30
ENDBRANCH  22  28
ENDBRANCH  21  25
BRANCH  21  31
ATOM     31  O   UNL     1       2.399  -6.373   2.372  0.00  0.00    -0.387 OA
ATOM     32  H   UNL     1       2.522  -5.980   3.247  0.00  0.00    +0.210 HD
ENDBRANCH  21  31
ENDBRANCH  20  21
ENDBRANCH  19  20
ENDBRANCH   1  19
TORSDOF 12
