REMARK  Name = ZINC43242802
REMARK  10 active torsions:
REMARK  status: ('A' for Active; 'I' for Inactive)
REMARK    1  A    between atoms: C_1  and  C_2
REMARK    2  A    between atoms: C_2  and  N_3
REMARK    3  A    between atoms: C_4  and  C_6
REMARK    4  A    between atoms: C_10  and  C_12
REMARK    5  A    between atoms: C_12  and  N_13
REMARK    6  A    between atoms: C_14  and  C_16
REMARK    7  A    between atoms: C_16  and  O_17
REMARK    8  A    between atoms: O_17  and  C_18
REMARK    9  A    between atoms: C_25  and  C_27
REMARK   10  A    between atoms: C_25  and  C_28
REMARK                            x       y       z     vdW  Elec       q    Type
REMARK                         _______ _______ _______ _____ _____    ______ ____
ROOT
ATOM      1  N   UNL     1       3.710  -6.032  -3.672  0.00  0.00    -0.308 N 
ATOM      2  C   UNL     1       4.059  -7.330  -3.776  0.00  0.00    +0.251 C 
ATOM      3  O   UNL     1       3.336  -8.107  -4.364  0.00  0.00    -0.272 OA
ATOM      4  H   UNL     1       4.288  -5.411  -3.202  0.00  0.00    +0.149 HD
ENDROOT
BRANCH   1   5
ATOM      5  C   UNL     1       2.459  -5.559  -4.270  0.00  0.00    +0.139 C 
BRANCH   5  10
ATOM      6  C   UNL     1       1.519  -2.275  -2.641  0.00  0.00    +0.037 A 
ATOM      7  C   UNL     1       2.034  -1.359  -3.559  0.00  0.00    +0.013 A 
ATOM      8  C   UNL     1       2.679  -1.810  -4.692  0.00  0.00    +0.001 A 
ATOM      9  C   UNL     1       2.816  -3.168  -4.920  0.00  0.00    +0.005 A 
ATOM     10  C   UNL     1       2.307  -4.082  -4.014  0.00  0.00    -0.030 A 
ATOM     11  C   UNL     1       1.665  -3.644  -2.874  0.00  0.00    +0.018 A 
BRANCH   6  13
ATOM     12  N   UNL     1       0.688  -0.476  -1.203  0.00  0.00    -0.312 N 
ATOM     13  C   UNL     1       0.827  -1.799  -1.425  0.00  0.00    +0.244 C 
ATOM     14  O   UNL     1       0.383  -2.599  -0.625  0.00  0.00    -0.270 OA
ATOM     15  H   UNL     1       1.042   0.162  -1.842  0.00  0.00    +0.149 HD
BRANCH  12  17
ATOM     16  C   UNL     1      -0.019   1.526   0.010  0.00  0.00    +0.024 C 
ATOM     17  C   UNL     1       0.002  -0.004   0.002  0.00  0.00    +0.101 C 
ENDBRANCH  12  17
ENDBRANCH   6  13
ENDBRANCH   5  10
ENDBRANCH   1   5
BRANCH   2  18
ATOM     18  C   UNL     1       5.346  -7.816  -3.161  0.00  0.00    +0.324 C 
BRANCH  18  19
ATOM     19  O   UNL     1       5.490  -9.217  -3.404  0.00  0.00    -0.479 OA
BRANCH  19  20
ATOM     20  C   UNL     1       6.607  -9.817  -2.912  0.00  0.00    +0.163 A 
ATOM     21  C   UNL     1       7.536  -9.073  -2.207  0.00  0.00    +0.049 A 
ATOM     22  C   UNL     1       8.675  -9.675  -1.704  0.00  0.00    +0.004 A 
ATOM     23  C   UNL     1       8.886 -11.027  -1.910  0.00  0.00    +0.007 A 
ATOM     24  C   UNL     1       7.963 -11.771  -2.614  0.00  0.00    +0.002 A 
ATOM     25  C   UNL     1       6.810 -11.184  -3.114  0.00  0.00    +0.166 A 
ATOM     26  O   UNL     1       6.025 -12.100  -3.748  0.00  0.00    -0.482 OA
ATOM     27  C   UNL     1       6.819 -13.251  -4.083  0.00  0.00    +0.109 C 
ATOM     28  C   UNL     1       7.923 -13.236  -3.004  0.00  0.00    +0.086 C 
ATOM     29  C   UNL     1       7.435 -13.099  -5.475  0.00  0.00    +0.056 C 
ATOM     30  C   UNL     1       5.982 -14.530  -3.996  0.00  0.00    +0.056 C 
ENDBRANCH  19  20
ENDBRANCH  18  19
ENDBRANCH   2  18
TORSDOF 7
