REMARK  Name = ZINC08896545
REMARK  9 active torsions:
REMARK  status: ('A' for Active; 'I' for Inactive)
REMARK    1  A    between atoms: C_1  and  N_54
REMARK    2  A    between atoms: C_2  and  N_54
REMARK    3  A    between atoms: C_3  and  C_4
REMARK    4  A    between atoms: C_3  and  N_54
REMARK    5  A    between atoms: C_4  and  N_5
REMARK    6  A    between atoms: C_6  and  C_25
REMARK    7  A    between atoms: C_8  and  C_13
REMARK    8  A    between atoms: C_9  and  O_12
REMARK    9  A    between atoms: C_13  and  C_15
REMARK                            x       y       z     vdW  Elec       q    Type
REMARK                         _______ _______ _______ _____ _____    ______ ____
ROOT
ATOM      1  N   UNL     1       3.261  -4.489   0.054  0.00  0.00    -0.285 N 
ATOM      2  C   UNL     1       2.666  -3.149  -0.009  0.00  0.00    +0.144 C 
ATOM      3  C   UNL     1       3.822  -2.176  -0.018  0.00  0.00    +0.071 C 
ATOM      4  C   UNL     1       4.955  -2.913   0.045  0.00  0.00    +0.188 C 
ATOM      5  C   UNL     1       4.599  -4.347   0.089  0.00  0.00    +0.282 C 
ATOM      6  O   UNL     1       5.396  -5.262   0.148  0.00  0.00    -0.267 OA
ENDROOT
BRANCH   2   7
ATOM      7  C   UNL     1       1.857  -3.004  -1.272  0.00  0.00    -0.021 A 
ATOM      8  C   UNL     1       2.269  -3.632  -2.433  0.00  0.00    +0.006 A 
ATOM      9  C   UNL     1       1.524  -3.504  -3.591  0.00  0.00    +0.001 A 
ATOM     10  C   UNL     1       0.373  -2.738  -3.591  0.00  0.00    +0.015 A 
ATOM     11  C   UNL     1      -0.036  -2.106  -2.431  0.00  0.00    +0.018 A 
ATOM     12  C   UNL     1       0.707  -2.239  -1.272  0.00  0.00    +0.021 A 
ATOM     13 BR   UNL     1      -1.611  -1.058  -2.431  0.00  0.00    -0.050 Br
ENDBRANCH   2   7
BRANCH   4  14
ATOM     14  O   UNL     1       6.213  -2.417   0.064  0.00  0.00    -0.502 OA
ATOM     15  H   UNL     1       6.868  -3.171   0.112  0.00  0.00    +0.292 HD
ENDBRANCH   4  14
BRANCH   3  16
ATOM     16  C   UNL     1       3.732  -0.713  -0.076  0.00  0.00    +0.195 C 
ATOM     17  O   UNL     1       4.136  -0.117  -1.058  0.00  0.00    -0.287 OA
BRANCH  16  18
ATOM     18  C   UNL     1       3.154   0.036   1.056  0.00  0.00    +0.026 A 
ATOM     19  C   UNL     1       2.616  -0.649   2.150  0.00  0.00    +0.015 A 
ATOM     20  C   UNL     1       2.076   0.053   3.203  0.00  0.00    +0.050 A 
ATOM     21  C   UNL     1       2.061   1.443   3.185  0.00  0.00    +0.162 A 
ATOM     22  C   UNL     1       2.598   2.133   2.100  0.00  0.00    +0.163 A 
ATOM     23  C   UNL     1       3.140   1.434   1.038  0.00  0.00    +0.061 A 
ATOM     24  O   UNL     1       2.599   3.494   2.071  0.00  0.00    -0.485 OA
ATOM     25  C   UNL     1       1.712   4.157   2.979  0.00  0.00    +0.270 C 
ATOM     26  C   UNL     1       1.857   3.500   4.359  0.00  0.00    +0.270 C 
ATOM     27  O   UNL     1       1.515   2.115   4.233  0.00  0.00    -0.485 OA
ENDBRANCH  16  18
ENDBRANCH   3  16
BRANCH   1  28
ATOM     28  C   UNL     1       2.528  -5.758   0.082  0.00  0.00    +0.090 C 
BRANCH  28  29
ATOM     29  C   UNL     1       2.230  -6.143   1.532  0.00  0.00    -0.060 C 
BRANCH  29  32
ATOM     30  C   UNL     1       2.333  -8.518   1.070  0.00  0.00    -0.097 C 
ATOM     31  C   UNL     1       0.986  -7.699   2.908  0.00  0.00    -0.097 C 
ATOM     32  N   UNL     1       1.473  -7.412   1.542  0.00  0.00    +0.377 N 
ATOM     33  H   UNL     1       0.667  -7.325   0.912  0.00  0.00    -0.083 HD
ENDBRANCH  29  32
ENDBRANCH  28  29
ENDBRANCH   1  28
TORSDOF 7
