REMARK  Name = ZINC45945546
REMARK  13 active torsions:
REMARK  status: ('A' for Active; 'I' for Inactive)
REMARK    1  A    between atoms: C_1  and  C_2
REMARK    2  A    between atoms: C_2  and  O_3
REMARK    3  A    between atoms: O_3  and  C_4
REMARK    4  A    between atoms: C_7  and  S_10
REMARK    5  A    between atoms: S_10  and  N_13
REMARK    6  A    between atoms: N_13  and  C_14
REMARK    7  A    between atoms: N_13  and  C_24
REMARK    8  A    between atoms: C_14  and  C_15
REMARK    9  A    between atoms: C_15  and  C_16
REMARK   10  A    between atoms: C_24  and  C_25
REMARK   11  A    between atoms: C_25  and  N_26
REMARK   12  A    between atoms: C_27  and  C_35
REMARK   13  A    between atoms: C_32  and  C_34
REMARK                            x       y       z     vdW  Elec       q    Type
REMARK                         _______ _______ _______ _____ _____    ______ ____
ROOT
ATOM      1  N   UNL     1      -1.916  -6.672   1.407  0.00  0.00    -0.178 NA
ENDROOT
BRANCH   1   2
ATOM      2  S   UNL     1      -1.838  -5.949  -0.081  0.00  0.00    +0.061 S 
ATOM      3  O   UNL     1      -3.081  -6.202  -0.721  0.00  0.00    -0.153 OA
ATOM      4  O   UNL     1      -0.594  -6.332  -0.653  0.00  0.00    -0.153 OA
BRANCH   2   8
ATOM      5  C   UNL     1      -1.623  -1.479   0.610  0.00  0.00    +0.121 A 
ATOM      6  C   UNL     1      -0.457  -2.228   0.537  0.00  0.00    +0.047 A 
ATOM      7  C   UNL     1      -0.525  -3.591   0.326  0.00  0.00    +0.032 A 
ATOM      8  C   UNL     1      -1.754  -4.210   0.188  0.00  0.00    +0.106 A 
ATOM      9  C   UNL     1      -2.917  -3.466   0.260  0.00  0.00    +0.032 A 
ATOM     10  C   UNL     1      -2.855  -2.103   0.476  0.00  0.00    +0.047 A 
BRANCH   5  11
ATOM     11  O   UNL     1      -1.559  -0.137   0.817  0.00  0.00    -0.492 OA
BRANCH  11  13
ATOM     12  C   UNL     1      -0.385   1.945   1.172  0.00  0.00    +0.048 C 
ATOM     13  C   UNL     1      -0.257   0.438   0.945  0.00  0.00    +0.225 C 
ENDBRANCH  11  13
ENDBRANCH   5  11
ENDBRANCH   2   8
ENDBRANCH   1   2
BRANCH   1  14
ATOM     14  C   UNL     1      -3.217  -6.925   2.031  0.00  0.00    +0.118 C 
BRANCH  14  15
ATOM     15  C   UNL     1      -3.663  -8.355   1.718  0.00  0.00    +0.113 C 
BRANCH  15  16
ATOM     16  C   UNL     1      -5.002  -8.615   2.359  0.00  0.00    +0.217 C 
ATOM     17  O   UNL     1      -5.546  -7.743   3.003  0.00  0.00    -0.276 OA
ATOM     18  N   UNL     1      -5.594  -9.818   2.217  0.00  0.00    -0.299 N 
ATOM     19  C   UNL     1      -4.949 -10.891   1.446  0.00  0.00    +0.123 C 
ATOM     20  C   UNL     1      -5.957 -11.430   0.425  0.00  0.00    +0.100 C 
ATOM     21  N   UNL     1      -7.191 -11.820   1.119  0.00  0.00    -0.313 NA
ATOM     22  C   UNL     1      -7.834 -10.662   1.754  0.00  0.00    +0.100 C 
ATOM     23  C   UNL     1      -6.901 -10.093   2.835  0.00  0.00    +0.123 C 
ATOM     24  H   UNL     1      -7.828 -12.287   0.491  0.00  0.00    +0.122 HD
ENDBRANCH  15  16
ENDBRANCH  14  15
ENDBRANCH   1  14
BRANCH   1  25
ATOM     25  C   UNL     1      -0.684  -7.057   2.100  0.00  0.00    +0.091 C 
BRANCH  25  26
ATOM     26  C   UNL     1      -0.274  -5.945   3.067  0.00  0.00    -0.061 C 
BRANCH  26  27
ATOM     27  N   UNL     1       0.886  -6.384   3.855  0.00  0.00    +0.384 N 
ATOM     28  C   UNL     1       0.503  -7.530   4.688  0.00  0.00    -0.071 C 
ATOM     29  C   UNL     1       1.684  -7.941   5.571  0.00  0.00    -0.016 C 
ATOM     30  C   UNL     1       2.869  -8.328   4.681  0.00  0.00    -0.003 C 
ATOM     31  C   UNL     1       3.212  -7.151   3.764  0.00  0.00    -0.016 C 
ATOM     32  C   UNL     1       1.974  -6.769   2.948  0.00  0.00    -0.071 C 
ATOM     33  C   UNL     1       2.312  -5.593   2.030  0.00  0.00    -0.013 C 
ATOM     34  C   UNL     1      -0.683  -7.143   5.574  0.00  0.00    -0.013 C 
ATOM     35  H   UNL     1       1.195  -5.628   4.447  0.00  0.00    -0.081 HD
ENDBRANCH  26  27
ENDBRANCH  25  26
ENDBRANCH   1  25
TORSDOF 10
