REMARK  Name = ZINC57845785
REMARK  9 active torsions:
REMARK  status: ('A' for Active; 'I' for Inactive)
REMARK    1  A    between atoms: C_1  and  C_2
REMARK    2  A    between atoms: C_2  and  C_4
REMARK    3  A    between atoms: C_2  and  N_6
REMARK    4  A    between atoms: C_4  and  N_5
REMARK    5  A    between atoms: C_9  and  C_13
REMARK    6  A    between atoms: C_9  and  C_14
REMARK    7  A    between atoms: C_17  and  O_23
REMARK    8  A    between atoms: C_18  and  N_20
REMARK    9  A    between atoms: O_23  and  C_24
REMARK                            x       y       z     vdW  Elec       q    Type
REMARK                         _______ _______ _______ _____ _____    ______ ____
ROOT
ATOM      1  N   UNL     1       0.711  -0.489   1.189  0.00  0.00    -0.223 N 
ATOM      2  C   UNL     1       0.160  -1.284   2.127  0.00  0.00    +0.251 C 
ATOM      3  O   UNL     1      -0.973  -1.716   2.148  0.00  0.00    -0.272 OA
ATOM      4  C   UNL     1       1.251  -1.527   3.151  0.00  0.00    +0.135 C 
ATOM      5  N   UNL     1       2.397  -0.769   2.621  0.00  0.00    -0.281 N 
ATOM      6  C   UNL     1       1.986  -0.203   1.472  0.00  0.00    +0.310 C 
ATOM      7  O   UNL     1       2.694   0.494   0.771  0.00  0.00    -0.252 OA
ATOM      8  C   UNL     1       1.585  -3.017   3.239  0.00  0.00    +0.047 C 
ATOM      9  H   UNL     1       3.278  -0.695   3.021  0.00  0.00    +0.152 HD
ENDROOT
BRANCH   4  10
ATOM     10  C   UNL     1       0.840  -0.993   4.500  0.00  0.00    -0.013 A 
ATOM     11  C   UNL     1      -0.496  -0.969   4.855  0.00  0.00    +0.010 A 
ATOM     12  C   UNL     1      -0.875  -0.480   6.090  0.00  0.00    +0.048 A 
ATOM     13  C   UNL     1       0.087  -0.014   6.975  0.00  0.00    +0.150 A 
ATOM     14  C   UNL     1       1.427  -0.040   6.617  0.00  0.00    +0.168 A 
ATOM     15  C   UNL     1       1.801  -0.534   5.382  0.00  0.00    +0.042 A 
BRANCH  14  16
ATOM     16  N   UNL     1       2.455   0.457   7.558  0.00  0.00    +0.060 N 
ATOM     17  O   UNL     1       3.623   0.434   7.245  0.00  0.00    -0.126 OA
ATOM     18  O   UNL     1       2.127   0.885   8.640  0.00  0.00    -0.126 OA
ENDBRANCH  14  16
BRANCH  13  19
ATOM     19  O   UNL     1      -0.283   0.467   8.191  0.00  0.00    -0.493 OA
ATOM     20  C   UNL     1      -1.680   0.464   8.492  0.00  0.00    +0.277 C 
ENDBRANCH  13  19
ENDBRANCH   4  10
BRANCH   1  22
ATOM     21  C   UNL     1      -0.019   1.526   0.010  0.00  0.00    +0.026 C 
ATOM     22  C   UNL     1       0.002  -0.004   0.002  0.00  0.00    +0.065 C 
BRANCH  22  23
ATOM     23  C   UNL     1       0.718  -0.497  -1.257  0.00  0.00    -0.063 C 
BRANCH  23  24
ATOM     24  N   UNL     1       0.844  -1.960  -1.207  0.00  0.00    +0.379 N 
ATOM     25  H   UNL     1       1.377  -2.224  -0.392  0.00  0.00    -0.090 HD
ATOM     26  H   UNL     1      -0.074  -2.375  -1.158  0.00  0.00    -0.090 HD
ATOM     27  H   UNL     1       1.316  -2.286  -2.037  0.00  0.00    -0.090 HD
ENDBRANCH  23  24
ENDBRANCH  22  23
ENDBRANCH   1  22
TORSDOF 6
