REMARK  Name = ZINC14462661
REMARK  6 active torsions:
REMARK  status: ('A' for Active; 'I' for Inactive)
REMARK    1  A    between atoms: C_1  and  C_2
REMARK    2  A    between atoms: C_5  and  N_27
REMARK    3  A    between atoms: C_9  and  C_18
REMARK    4  A    between atoms: C_21  and  C_24
REMARK    5  A    between atoms: C_24  and  C_25
REMARK    6  A    between atoms: C_24  and  C_26
REMARK                            x       y       z     vdW  Elec       q    Type
REMARK                         _______ _______ _______ _____ _____    ______ ____
ROOT
ATOM      1  C   UNL     1       2.534  -3.440   2.619  0.00  0.00    +0.045 C 
ATOM      2  C   UNL     1       1.868  -2.863   1.396  0.00  0.00    -0.029 A 
ATOM      3  C   UNL     1       1.177  -3.702   0.484  0.00  0.00    +0.007 A 
ATOM      4  C   UNL     1       0.573  -3.159  -0.634  0.00  0.00    +0.033 A 
ATOM      5  C   UNL     1       0.647  -1.801  -0.869  0.00  0.00    +0.132 A 
ATOM      6  C   UNL     1       1.325  -0.967   0.009  0.00  0.00    +0.011 A 
ATOM      7  C   UNL     1       1.942  -1.494   1.147  0.00  0.00    +0.037 A 
ATOM      8  N   UNL     1       2.644  -0.701   2.055  0.00  0.00    -0.336 N 
ATOM      9  C   UNL     1       2.173   0.685   2.058  0.00  0.00    +0.105 C 
ATOM     10  C   UNL     1       2.306   1.270   0.650  0.00  0.00    +0.029 C 
ATOM     11  C   UNL     1       1.365   0.500  -0.302  0.00  0.00    +0.051 C 
ATOM     12  C   UNL     1       0.011   1.131  -0.073  0.00  0.00    -0.023 C 
ATOM     13  C   UNL     1       0.144   2.323   0.454  0.00  0.00    -0.030 C 
ATOM     14  C   UNL     1       1.609   2.660   0.644  0.00  0.00    +0.033 C 
ATOM     15  H   UNL     1       3.637  -0.745   1.882  0.00  0.00    +0.147 HD
ENDROOT
BRANCH   9  16
ATOM     16  C   UNL     1       0.729   0.725   2.485  0.00  0.00    -0.027 A 
ATOM     17  C   UNL     1       0.185   1.897   2.976  0.00  0.00    +0.006 A 
ATOM     18  C   UNL     1      -1.141   1.935   3.364  0.00  0.00    +0.004 A 
ATOM     19  C   UNL     1      -1.921   0.797   3.269  0.00  0.00    -0.045 A 
ATOM     20  C   UNL     1      -1.376  -0.376   2.783  0.00  0.00    +0.004 A 
ATOM     21  C   UNL     1      -0.051  -0.413   2.391  0.00  0.00    +0.006 A 
BRANCH  19  22
ATOM     22  C   UNL     1      -3.366   0.837   3.695  0.00  0.00    +0.013 C 
ATOM     23  C   UNL     1      -3.452   1.221   5.173  0.00  0.00    +0.012 C 
ATOM     24  C   UNL     1      -4.117   1.873   2.855  0.00  0.00    +0.012 C 
ENDBRANCH  19  22
ENDBRANCH   9  16
BRANCH   5  25
ATOM     25  N   UNL     1      -0.002  -1.228  -2.070  0.00  0.00    +0.057 N 
ATOM     26  O   UNL     1      -0.598  -1.954  -2.845  0.00  0.00    -0.126 OA
ATOM     27  O   UNL     1       0.060  -0.031  -2.283  0.00  0.00    -0.126 OA
ENDBRANCH   5  25
TORSDOF 3
