REMARK  Name = ZINC53009030
REMARK  6 active torsions:
REMARK  status: ('A' for Active; 'I' for Inactive)
REMARK    1  A    between atoms: C_1  and  C_2
REMARK    2  A    between atoms: C_9  and  C_11
REMARK    3  A    between atoms: C_11  and  S_12
REMARK    4  A    between atoms: S_12  and  C_13
REMARK    5  A    between atoms: N_18  and  C_19
REMARK    6  A    between atoms: C_19  and  C_20
REMARK                            x       y       z     vdW  Elec       q    Type
REMARK                         _______ _______ _______ _____ _____    ______ ____
ROOT
ATOM      1  C   UNL     1      -1.454  -1.399   7.150  0.00  0.00    +0.160 A 
ATOM      2  N   UNL     1      -0.352  -1.372   7.874  0.00  0.00    -0.133 NA
ATOM      3  N   UNL     1      -0.436  -1.362   9.248  0.00  0.00    -0.125 NA
ATOM      4  C   UNL     1      -1.617  -1.380   9.833  0.00  0.00    +0.182 A 
ATOM      5  S   UNL     1      -2.710  -1.406   8.420  0.00  0.00    -0.025 S 
ATOM      6  N   UNL     1      -1.929  -1.375  11.188  0.00  0.00    -0.320 N 
ATOM      7  H   UNL     1      -2.856  -1.391  11.472  0.00  0.00    +0.148 HD
ENDROOT
BRANCH   1   8
ATOM      8  S   UNL     1      -1.639  -1.417   5.398  0.00  0.00    -0.091 S 
BRANCH   8   9
ATOM      9  C   UNL     1       0.066  -1.399   4.777  0.00  0.00    +0.133 C 
BRANCH   9  18
ATOM     10  C   UNL     1      -0.018   1.503   0.010  0.00  0.00    +0.047 C 
ATOM     11  C   UNL     1       0.002  -0.004   0.002  0.00  0.00    -0.008 A 
ATOM     12  C   UNL     1       0.006  -0.685  -1.176  0.00  0.00    +0.008 A 
ATOM     13  C   UNL     1       0.025  -2.089  -1.168  0.00  0.00    +0.018 A 
ATOM     14  C   UNL     1       0.039  -2.763   0.001  0.00  0.00    +0.093 A 
ATOM     15  N   UNL     1       0.035  -2.093   1.190  0.00  0.00    -0.306 N 
ATOM     16  C   UNL     1       0.023  -0.722   1.214  0.00  0.00    +0.141 A 
ATOM     17  N   UNL     1       0.030  -0.334   2.482  0.00  0.00    -0.232 NA
ATOM     18  C   UNL     1       0.051  -1.412   3.270  0.00  0.00    +0.070 A 
ATOM     19  C   UNL     1       0.046  -2.516   2.491  0.00  0.00    +0.116 A 
ENDBRANCH   9  18
ENDBRANCH   8   9
ENDBRANCH   1   8
BRANCH   6  20
ATOM     20  C   UNL     1      -0.857  -1.345  12.186  0.00  0.00    +0.135 C 
BRANCH  20  21
ATOM     21  C   UNL     1      -1.467  -1.345  13.589  0.00  0.00    +0.135 C 
ATOM     22  C   UNL     1      -0.351  -1.193  14.645  0.00  0.00    +0.035 C 
ATOM     23  C   UNL     1      -0.826  -2.155  15.768  0.00  0.00    +0.031 C 
ATOM     24  C   UNL     1      -1.498  -3.273  14.932  0.00  0.00    +0.160 C 
ATOM     25  O   UNL     1      -2.127  -2.593  13.832  0.00  0.00    -0.375 OA
ENDBRANCH  20  21
ENDBRANCH   6  20
TORSDOF 5
