REMARK  Name = ZINC20121374
REMARK  13 active torsions:
REMARK  status: ('A' for Active; 'I' for Inactive)
REMARK    1  A    between atoms: C_1  and  C_2
REMARK    2  A    between atoms: C_2  and  C_3
REMARK    3  A    between atoms: C_2  and  C_4
REMARK    4  A    between atoms: C_4  and  C_6
REMARK    5  A    between atoms: C_4  and  N_18
REMARK    6  A    between atoms: N_10  and  C_11
REMARK    7  A    between atoms: C_11  and  C_12
REMARK    8  A    between atoms: N_18  and  C_19
REMARK    9  A    between atoms: N_18  and  C_23
REMARK   10  A    between atoms: C_19  and  C_20
REMARK   11  A    between atoms: C_20  and  C_21
REMARK   12  A    between atoms: C_21  and  O_22
REMARK   13  A    between atoms: C_23  and  C_24
REMARK                            x       y       z     vdW  Elec       q    Type
REMARK                         _______ _______ _______ _____ _____    ______ ____
ROOT
ATOM      1  N   UNL     1      -3.178  -0.681  -0.874  0.00  0.00    +0.389 N 
ATOM      2  H   UNL     1      -2.885  -1.218  -1.676  0.00  0.00    -0.080 HD
ENDROOT
BRANCH   1   3
ATOM      3  C   UNL     1      -2.028  -0.461   0.014  0.00  0.00    +0.006 C 
BRANCH   3   4
ATOM      4  C   UNL     1      -2.457   0.372   1.194  0.00  0.00    +0.139 A 
ATOM      5  N   UNL     1      -3.659   0.434   1.713  0.00  0.00    -0.115 NA
ATOM      6  N   UNL     1      -3.622   1.254   2.706  0.00  0.00    -0.023 NA
ATOM      7  N   UNL     1      -2.428   1.717   2.834  0.00  0.00    -0.044 NA
ATOM      8  N   UNL     1      -1.679   1.193   1.923  0.00  0.00    -0.226 N 
BRANCH   8   9
ATOM      9  C   UNL     1      -0.251   1.447   1.719  0.00  0.00    +0.182 C 
BRANCH   9  10
ATOM     10  C   UNL     1      -0.067   2.803   1.087  0.00  0.00    -0.026 A 
ATOM     11  C   UNL     1       0.109   2.910  -0.280  0.00  0.00    +0.005 A 
ATOM     12  C   UNL     1       0.278   4.154  -0.859  0.00  0.00    +0.000 A 
ATOM     13  C   UNL     1       0.271   5.290  -0.072  0.00  0.00    +0.000 A 
ATOM     14  C   UNL     1       0.094   5.183   1.295  0.00  0.00    +0.000 A 
ATOM     15  C   UNL     1      -0.079   3.939   1.874  0.00  0.00    +0.005 A 
ENDBRANCH   9  10
ENDBRANCH   8   9
ENDBRANCH   3   4
BRANCH   3  17
ATOM     16  C   UNL     1      -1.019  -2.636  -0.687  0.00  0.00    +0.006 C 
ATOM     17  C   UNL     1      -1.499  -1.810   0.507  0.00  0.00    -0.024 C 
ATOM     18  C   UNL     1      -0.333  -1.579   1.470  0.00  0.00    +0.006 C 
ENDBRANCH   3  17
ENDBRANCH   1   3
BRANCH   1  19
ATOM     19  C   UNL     1      -3.708   0.615  -1.319  0.00  0.00    -0.075 C 
BRANCH  19  20
ATOM     20  C   UNL     1      -2.659   1.329  -2.172  0.00  0.00    +0.009 C 
BRANCH  20  21
ATOM     21  C   UNL     1      -3.225   2.662  -2.667  0.00  0.00    +0.154 C 
BRANCH  21  22
ATOM     22  O   UNL     1      -2.206   3.384  -3.361  0.00  0.00    -0.395 OA
ATOM     23  H   UNL     1      -2.472   4.272  -3.638  0.00  0.00    +0.209 HD
ENDBRANCH  21  22
ENDBRANCH  20  21
ENDBRANCH  19  20
ENDBRANCH   1  19
BRANCH   1  24
ATOM     24  C   UNL     1      -4.223  -1.415  -0.148  0.00  0.00    -0.037 C 
BRANCH  24  25
ATOM     25  C   UNL     1      -5.340  -1.768  -1.097  0.00  0.00    +0.001 A 
ATOM     26  C   UNL     1      -5.360  -2.986  -1.695  0.00  0.00    +0.017 A 
ATOM     27  C   UNL     1      -6.456  -3.298  -2.611  0.00  0.00    +0.002 A 
ATOM     28  C   UNL     1      -6.527  -4.539  -3.257  0.00  0.00    +0.059 A 
ATOM     29  C   UNL     1      -7.572  -4.803  -4.114  0.00  0.00    +0.167 A 
ATOM     30  C   UNL     1      -8.561  -3.838  -4.341  0.00  0.00    +0.168 A 
ATOM     31  C   UNL     1      -8.499  -2.611  -3.707  0.00  0.00    +0.075 A 
ATOM     32  C   UNL     1      -7.452  -2.328  -2.839  0.00  0.00    +0.053 A 
ATOM     33  N   UNL     1      -7.373  -1.108  -2.199  0.00  0.00    -0.322 N 
ATOM     34  C   UNL     1      -6.363  -0.833  -1.355  0.00  0.00    +0.251 A 
ATOM     35  O   UNL     1      -6.328   0.254  -0.804  0.00  0.00    -0.268 OA
ATOM     36  O   UNL     1      -9.470  -4.349  -5.222  0.00  0.00    -0.453 OA
ATOM     37  C   UNL     1      -8.815  -5.468  -5.847  0.00  0.00    +0.466 C 
ATOM     38  O   UNL     1      -7.869  -5.911  -4.856  0.00  0.00    -0.453 OA
ATOM     39  H   UNL     1      -8.059  -0.440  -2.357  0.00  0.00    +0.169 HD
ENDBRANCH  24  25
ENDBRANCH   1  24
TORSDOF 11
