REMARK  Name = ZINC64428516
REMARK  6 active torsions:
REMARK  status: ('A' for Active; 'I' for Inactive)
REMARK    1  A    between atoms: C_1  and  S_2
REMARK    2  A    between atoms: S_2  and  C_3
REMARK    3  A    between atoms: C_7  and  C_10
REMARK    4  A    between atoms: C_10  and  C_12
REMARK    5  A    between atoms: C_10  and  N_22
REMARK    6  A    between atoms: C_12  and  C_13
REMARK                            x       y       z     vdW  Elec       q    Type
REMARK                         _______ _______ _______ _____ _____    ______ ____
ROOT
ATOM      1  C   UNL     1       3.092  -0.611  -3.669  0.00  0.00    -0.017 C 
ENDROOT
BRANCH   1   5
ATOM      2  C   UNL     1       0.873  -0.423  -1.533  0.00  0.00    +0.318 C 
ATOM      3  N   UNL     1       0.188   0.174  -2.687  0.00  0.00    -0.146 NA
ATOM      4  N   UNL     1       1.014   0.690  -3.451  0.00  0.00    -0.159 NA
ATOM      5  C   UNL     1       2.372   0.513  -2.921  0.00  0.00    +0.246 C 
ATOM      6  O   UNL     1       2.194   0.157  -1.533  0.00  0.00    -0.320 OA
BRANCH   2   8
ATOM      7  C   UNL     1      -0.022   1.810   0.012  0.00  0.00    +0.089 C 
ATOM      8  S   UNL     1       0.002  -0.004   0.002  0.00  0.00    -0.108 S 
ENDBRANCH   2   8
ENDBRANCH   1   5
BRANCH   1   9
ATOM      9  N   UNL     1       2.327  -1.858  -3.533  0.00  0.00    +0.383 N 
ATOM     10  H   UNL     1       2.249  -2.100  -2.556  0.00  0.00    -0.089 HD
ATOM     11  H   UNL     1       1.405  -1.731  -3.922  0.00  0.00    -0.089 HD
ATOM     12  H   UNL     1       2.801  -2.599  -4.026  0.00  0.00    -0.089 HD
ENDBRANCH   1   9
BRANCH   1  13
ATOM     13  C   UNL     1       3.210  -0.244  -5.150  0.00  0.00    +0.021 C 
BRANCH  13  14
ATOM     14  C   UNL     1       4.025  -1.292  -5.863  0.00  0.00    -0.043 C 
ATOM     15  C   UNL     1       3.556  -2.363  -6.543  0.00  0.00    -0.001 A 
ATOM     16  C   UNL     1       2.200  -2.856  -6.811  0.00  0.00    +0.010 A 
ATOM     17  C   UNL     1       2.043  -3.984  -7.539  0.00  0.00    +0.001 A 
ATOM     18  C   UNL     1       3.141  -4.694  -8.043  0.00  0.00    +0.002 A 
ATOM     19  C   UNL     1       4.417  -4.304  -7.840  0.00  0.00    +0.026 A 
ATOM     20  C   UNL     1       4.699  -3.131  -7.087  0.00  0.00    +0.043 A 
ATOM     21  N   UNL     1       5.830  -2.557  -6.757  0.00  0.00    -0.380 N 
ATOM     22  C   UNL     1       5.532  -1.355  -5.970  0.00  0.00    +0.144 C 
ATOM     23  H   UNL     1       6.716  -2.871  -6.996  0.00  0.00    +0.160 HD
ENDBRANCH  13  14
ENDBRANCH   1  13
TORSDOF 5
