REMARK  Name = ZINC12462216
REMARK  8 active torsions:
REMARK  status: ('A' for Active; 'I' for Inactive)
REMARK    1  A    between atoms: C_1  and  C_2
REMARK    2  A    between atoms: C_5  and  N_9
REMARK    3  A    between atoms: C_7  and  C_8
REMARK    4  A    between atoms: C_12  and  C_16
REMARK    5  A    between atoms: C_12  and  N_20
REMARK    6  A    between atoms: N_20  and  S_21
REMARK    7  A    between atoms: S_21  and  C_24
REMARK    8  A    between atoms: C_27  and  N_30
REMARK                            x       y       z     vdW  Elec       q    Type
REMARK                         _______ _______ _______ _____ _____    ______ ____
ROOT
ATOM      1  N   UNL     1      -0.433   6.075   0.560  0.00  0.00    -0.191 N 
ATOM      2  C   UNL     1      -1.557   6.758   0.265  0.00  0.00    +0.276 C 
ATOM      3  O   UNL     1      -2.690   6.326   0.240  0.00  0.00    -0.271 OA
ATOM      4  C   UNL     1      -1.111   8.177  -0.026  0.00  0.00    +0.280 C 
ATOM      5  N   UNL     1       0.351   8.123   0.147  0.00  0.00    -0.265 N 
ATOM      6  C   UNL     1       0.651   6.856   0.488  0.00  0.00    +0.315 C 
ATOM      7  O   UNL     1       1.781   6.466   0.707  0.00  0.00    -0.252 OA
ATOM      8  H   UNL     1       0.975   8.857   0.038  0.00  0.00    +0.153 HD
ENDROOT
BRANCH   1  13
ATOM      9  C   UNL     1      -0.308   0.564   1.909  0.00  0.00    +0.044 C 
ATOM     10  C   UNL     1      -0.341   2.027   1.551  0.00  0.00    -0.047 A 
ATOM     11  C   UNL     1      -1.554   2.670   1.387  0.00  0.00    +0.005 A 
ATOM     12  C   UNL     1      -1.588   4.013   1.064  0.00  0.00    +0.024 A 
ATOM     13  C   UNL     1      -0.402   4.714   0.893  0.00  0.00    +0.046 A 
ATOM     14  C   UNL     1       0.814   4.065   1.053  0.00  0.00    +0.027 A 
ATOM     15  C   UNL     1       0.842   2.723   1.381  0.00  0.00    -0.046 A 
ATOM     16  C   UNL     1       2.162   2.017   1.556  0.00  0.00    +0.044 C 
ENDBRANCH   1  13
BRANCH   4  17
ATOM     17  C   UNL     1      -1.736   9.156   0.970  0.00  0.00    +0.435 C 
ATOM     18  F   UNL     1      -1.200  10.433   0.766  0.00  0.00    -0.166 F 
ATOM     19  F   UNL     1      -3.121   9.196   0.779  0.00  0.00    -0.166 F 
ATOM     20  F   UNL     1      -1.456   8.736   2.275  0.00  0.00    -0.166 F 
ENDBRANCH   4  17
BRANCH   4  21
ATOM     21  N   UNL     1      -1.454   8.552  -1.400  0.00  0.00    -0.151 NA
ATOM     22  H   UNL     1      -2.042   9.306  -1.564  0.00  0.00    +0.151 HD
BRANCH  21  23
ATOM     23  S   UNL     1      -0.838   7.689  -2.672  0.00  0.00    +0.061 S 
ATOM     24  O   UNL     1      -1.329   8.304  -3.855  0.00  0.00    -0.153 OA
ATOM     25  O   UNL     1       0.551   7.527  -2.418  0.00  0.00    -0.153 OA
BRANCH  23  26
ATOM     26  C   UNL     1      -1.553   6.080  -2.605  0.00  0.00    +0.105 A 
ATOM     27  C   UNL     1      -0.855   5.039  -2.023  0.00  0.00    +0.030 A 
ATOM     28  C   UNL     1      -1.415   3.778  -1.964  0.00  0.00    +0.024 A 
ATOM     29  C   UNL     1      -2.676   3.554  -2.501  0.00  0.00    +0.025 A 
ATOM     30  C   UNL     1      -3.373   4.601  -3.090  0.00  0.00    +0.024 A 
ATOM     31  C   UNL     1      -2.809   5.861  -3.141  0.00  0.00    +0.030 A 
BRANCH  29  32
ATOM     32  N   UNL     1      -3.243   2.278  -2.448  0.00  0.00    -0.358 N 
ATOM     33  H   UNL     1      -4.124   2.123  -2.824  0.00  0.00    +0.142 HD
ATOM     34  H   UNL     1      -2.756   1.548  -2.036  0.00  0.00    +0.142 HD
ENDBRANCH  29  32
ENDBRANCH  23  26
ENDBRANCH  21  23
ENDBRANCH   4  21
TORSDOF 6
