REMARK  Name = ZINC01155193
REMARK  7 active torsions:
REMARK  status: ('A' for Active; 'I' for Inactive)
REMARK    1  A    between atoms: C_1  and  C_2
REMARK    2  A    between atoms: C_2  and  C_3
REMARK    3  A    between atoms: C_3  and  C_5
REMARK    4  A    between atoms: C_3  and  O_6
REMARK    5  A    between atoms: O_6  and  C_7
REMARK    6  A    between atoms: C_10  and  C_14
REMARK    7  A    between atoms: N_21  and  C_24
REMARK                            x       y       z     vdW  Elec       q    Type
REMARK                         _______ _______ _______ _____ _____    ______ ____
ROOT
ATOM      1  C   UNL     1       1.076   0.793  -1.165  0.00  0.00    +0.026 C 
ATOM      2  C   UNL     1       1.979   1.044  -2.181  0.00  0.00    +0.100 C 
ATOM      3  C   UNL     1       1.686   2.023  -3.248  0.00  0.00    +0.257 C 
ATOM      4  O   UNL     1       0.637   2.638  -3.261  0.00  0.00    -0.270 OA
ATOM      5  N   UNL     1       2.617   2.219  -4.204  0.00  0.00    -0.235 N 
ATOM      6  C   UNL     1       3.775   1.543  -4.205  0.00  0.00    +0.320 C 
ATOM      7  O   UNL     1       4.568   1.763  -5.099  0.00  0.00    -0.251 OA
ATOM      8  N   UNL     1       4.105   0.639  -3.273  0.00  0.00    -0.190 N 
ATOM      9  C   UNL     1       3.275   0.342  -2.252  0.00  0.00    +0.263 C 
ATOM     10  O   UNL     1       3.586  -0.482  -1.413  0.00  0.00    -0.269 OA
ATOM     11  H   UNL     1       2.442   2.860  -4.910  0.00  0.00    +0.159 HD
ENDROOT
BRANCH   1  15
ATOM     12  C   UNL     1      -2.292   3.304  -0.664  0.00  0.00    +0.135 A 
ATOM     13  C   UNL     1      -1.040   3.859  -0.909  0.00  0.00    +0.047 A 
ATOM     14  C   UNL     1       0.051   3.054  -1.067  0.00  0.00    +0.011 A 
ATOM     15  C   UNL     1      -0.089   1.659  -0.992  0.00  0.00    -0.023 A 
ATOM     16  C   UNL     1      -1.352   1.100  -0.744  0.00  0.00    +0.027 A 
ATOM     17  C   UNL     1      -2.443   1.923  -0.582  0.00  0.00    +0.060 A 
ATOM     18 BR   UNL     1      -4.149   1.177  -0.246  0.00  0.00    -0.046 Br
BRANCH  12  19
ATOM     19  O   UNL     1      -3.369   4.113  -0.504  0.00  0.00    -0.488 OA
BRANCH  19  20
ATOM     20  C   UNL     1      -3.127   5.521  -0.487  0.00  0.00    +0.170 C 
ATOM     21  C   UNL     1      -3.083   6.048  -1.923  0.00  0.00    +0.052 C 
BRANCH  20  23
ATOM     22  C   UNL     1      -4.215   5.788   1.746  0.00  0.00    +0.007 C 
ATOM     23  C   UNL     1      -4.250   6.223   0.280  0.00  0.00    +0.041 C 
ENDBRANCH  20  23
ENDBRANCH  19  20
ENDBRANCH  12  19
ENDBRANCH   1  15
BRANCH   8  24
ATOM     24  C   UNL     1       5.342  -0.015  -3.362  0.00  0.00    +0.046 A 
ATOM     25  C   UNL     1       6.323   0.221  -2.409  0.00  0.00    +0.025 A 
ATOM     26  C   UNL     1       7.539  -0.428  -2.496  0.00  0.00    +0.022 A 
ATOM     27  C   UNL     1       7.783  -1.306  -3.537  0.00  0.00    +0.041 A 
ATOM     28  C   UNL     1       6.809  -1.539  -4.492  0.00  0.00    +0.022 A 
ATOM     29  C   UNL     1       5.589  -0.896  -4.406  0.00  0.00    +0.025 A 
ATOM     30 CL   UNL     1       9.315  -2.116  -3.647  0.00  0.00    -0.084 Cl
ENDBRANCH   8  24
TORSDOF 5
