REMARK  Name = ZINC40824379
REMARK  4 active torsions:
REMARK  status: ('A' for Active; 'I' for Inactive)
REMARK    1  A    between atoms: C_1  and  C_2
REMARK    2  A    between atoms: C_6  and  C_7
REMARK    3  A    between atoms: N_9  and  C_10
REMARK    4  A    between atoms: N_21  and  N_22
REMARK                            x       y       z     vdW  Elec       q    Type
REMARK                         _______ _______ _______ _____ _____    ______ ____
ROOT
ATOM      1  C   UNL     1      -0.006   1.502   0.010  0.00  0.00    +0.048 C 
ATOM      2  C   UNL     1       0.021  -0.004   0.002  0.00  0.00    +0.009 A 
ATOM      3  C   UNL     1       0.039  -0.839  -1.123  0.00  0.00    +0.042 A 
ATOM      4  C   UNL     1       0.059  -2.138  -0.673  0.00  0.00    +0.115 A 
ATOM      5  O   UNL     1       0.057  -2.112   0.658  0.00  0.00    -0.454 OA
ATOM      6  C   UNL     1       0.039  -0.831   1.091  0.00  0.00    +0.193 A 
ATOM      7  C   UNL     1       0.076  -3.327  -1.599  0.00  0.00    +0.075 C 
ATOM      8  C   UNL     1      -0.440  -2.905  -2.978  0.00  0.00    +0.014 C 
ATOM      9  C   UNL     1       0.330  -1.684  -3.493  0.00  0.00    +0.058 C 
ATOM     10  C   UNL     1       0.040  -0.512  -2.567  0.00  0.00    +0.070 C 
ATOM     11  N   UNL     1      -0.190   0.685  -3.010  0.00  0.00    -0.183 NA
ENDROOT
BRANCH  11  12
ATOM     12  N   UNL     1      -0.176   0.936  -4.388  0.00  0.00    -0.191 N 
ATOM     13  C   UNL     1      -0.414   2.180  -4.848  0.00  0.00    +0.317 C 
ATOM     14  O   UNL     1      -0.402   2.398  -6.044  0.00  0.00    -0.251 OA
ATOM     15  N   UNL     1      -0.666   3.182  -3.983  0.00  0.00    -0.312 N 
ATOM     16  H   UNL     1       0.005   0.215  -5.011  0.00  0.00    +0.179 HD
ATOM     17  H   UNL     1      -0.675   3.008  -3.029  0.00  0.00    +0.147 HD
ATOM     18  H   UNL     1      -0.837   4.078  -4.314  0.00  0.00    +0.147 HD
ENDBRANCH  11  12
BRANCH   6  19
ATOM     19  C   UNL     1       0.035  -0.400   2.493  0.00  0.00    +0.284 C 
ATOM     20  O   UNL     1       0.014   0.786   2.765  0.00  0.00    -0.266 OA
ATOM     21  N   UNL     1       0.054  -1.318   3.480  0.00  0.00    -0.278 N 
ATOM     22  H   UNL     1      -0.010  -2.262   3.266  0.00  0.00    +0.155 HD
BRANCH  21  23
ATOM     23  C   UNL     1       0.167  -0.909   4.813  0.00  0.00    +0.048 A 
ATOM     24  C   UNL     1       0.759   0.309   5.120  0.00  0.00    +0.024 A 
ATOM     25  C   UNL     1       0.869   0.710   6.437  0.00  0.00    +0.002 A 
ATOM     26  C   UNL     1       0.391  -0.101   7.450  0.00  0.00    +0.001 A 
ATOM     27  C   UNL     1      -0.199  -1.314   7.149  0.00  0.00    +0.017 A 
ATOM     28  C   UNL     1      -0.318  -1.718   5.833  0.00  0.00    +0.039 A 
ATOM     29 BR   UNL     1      -1.133  -3.374   5.421  0.00  0.00    -0.048 Br
ENDBRANCH  21  23
ENDBRANCH   6  19
TORSDOF 3
