REMARK  Name = ZINC20851369
REMARK  6 active torsions:
REMARK  status: ('A' for Active; 'I' for Inactive)
REMARK    1  A    between atoms: C_1  and  N_2
REMARK    2  A    between atoms: N_7  and  C_10
REMARK    3  A    between atoms: C_11  and  C_17
REMARK    4  A    between atoms: C_22  and  O_23
REMARK    5  A    between atoms: O_23  and  C_24
REMARK    6  A    between atoms: C_24  and  C_25
REMARK                            x       y       z     vdW  Elec       q    Type
REMARK                         _______ _______ _______ _____ _____    ______ ____
ROOT
ATOM      1  C   UNL     1       1.152  -2.148  -0.021  0.00  0.00    +0.155 C 
ATOM      2  N   UNL     1       1.164  -0.683  -0.013  0.00  0.00    -0.284 N 
ATOM      3  C   UNL     1       2.361  -0.009  -0.021  0.00  0.00    +0.118 A 
ATOM      4  C   UNL     1       2.361   1.353  -0.013  0.00  0.00    +0.064 A 
ATOM      5  C   UNL     1       1.136   2.041   0.002  0.00  0.00    +0.262 A 
ATOM      6  O   UNL     1       1.115   3.260   0.009  0.00  0.00    -0.267 OA
ATOM      7  N   UNL     1      -0.016   1.341   0.009  0.00  0.00    -0.264 N 
ATOM      8  C   UNL     1       0.002  -0.004   0.002  0.00  0.00    +0.333 A 
ATOM      9  O   UNL     1      -1.048  -0.616   0.008  0.00  0.00    -0.246 OA
ATOM     10  C   UNL     1      -1.298   2.051   0.019  0.00  0.00    +0.157 C 
ATOM     11  C   UNL     1       3.661   2.113  -0.022  0.00  0.00    +0.070 C 
ATOM     12  C   UNL     1       4.714   1.329   0.762  0.00  0.00    +0.109 C 
ATOM     13  C   UNL     1       4.700  -0.112   0.324  0.00  0.00    +0.219 C 
ATOM     14  O   UNL     1       5.735  -0.742   0.296  0.00  0.00    -0.275 OA
ATOM     15  N   UNL     1       3.548  -0.706  -0.036  0.00  0.00    -0.271 N 
ATOM     16  H   UNL     1       3.562  -1.761  -0.346  0.00  0.00    +0.156 HD
ENDROOT
BRANCH  11  17
ATOM     17  C   UNL     1       4.126   2.296  -1.444  0.00  0.00    +0.002 A 
ATOM     18  C   UNL     1       4.379   1.193  -2.236  0.00  0.00    +0.008 A 
ATOM     19  C   UNL     1       4.805   1.360  -3.540  0.00  0.00    +0.001 A 
ATOM     20  C   UNL     1       4.979   2.631  -4.056  0.00  0.00    +0.004 A 
ATOM     21  C   UNL     1       4.727   3.738  -3.268  0.00  0.00    +0.046 A 
ATOM     22  C   UNL     1       4.294   3.572  -1.960  0.00  0.00    +0.125 A 
BRANCH  22  23
ATOM     23  O   UNL     1       4.040   4.659  -1.185  0.00  0.00    -0.487 OA
BRANCH  23  24
ATOM     24  C   UNL     1       4.236   5.942  -1.783  0.00  0.00    +0.264 C 
BRANCH  24  25
ATOM     25  C   UNL     1       3.907   7.019  -0.780  0.00  0.00    -0.010 A 
ATOM     26  C   UNL     1       2.620   7.516  -0.697  0.00  0.00    +0.007 A 
ATOM     27  C   UNL     1       2.317   8.500   0.226  0.00  0.00    +0.000 A 
ATOM     28  C   UNL     1       3.305   8.994   1.058  0.00  0.00    +0.000 A 
ATOM     29  C   UNL     1       4.593   8.500   0.971  0.00  0.00    +0.000 A 
ATOM     30  C   UNL     1       4.894   7.513   0.052  0.00  0.00    +0.007 A 
ENDBRANCH  24  25
ENDBRANCH  23  24
ENDBRANCH  22  23
ENDBRANCH  11  17
TORSDOF 4
