REMARK  Name = ZINC66793283
REMARK  8 active torsions:
REMARK  status: ('A' for Active; 'I' for Inactive)
REMARK    1  A    between atoms: C_1  and  C_2
REMARK    2  A    between atoms: C_5  and  C_9
REMARK    3  A    between atoms: C_6  and  C_8
REMARK    4  A    between atoms: N_11  and  C_15
REMARK    5  A    between atoms: C_15  and  N_16
REMARK    6  A    between atoms: C_20  and  C_23
REMARK    7  A    between atoms: N_25  and  C_26
REMARK    8  A    between atoms: N_25  and  C_27
REMARK                            x       y       z     vdW  Elec       q    Type
REMARK                         _______ _______ _______ _____ _____    ______ ____
ROOT
ATOM      1  C   UNL     1       1.522  -5.175  -1.276  0.00  0.00    +0.247 A 
ATOM      2  N   UNL     1       1.650  -5.778  -0.130  0.00  0.00    -0.131 NA
ATOM      3  N   UNL     1       1.602  -7.160  -0.365  0.00  0.00    -0.240 N 
ATOM      4  C   UNL     1       1.440  -7.325  -1.695  0.00  0.00    +0.265 A 
ATOM      5  S   UNL     1       1.319  -8.819  -2.523  0.00  0.00    +0.011 S 
ATOM      6  O   UNL     1       1.386  -6.102  -2.250  0.00  0.00    -0.412 OA
ENDROOT
BRANCH   1  11
ATOM      7  C   UNL     1       1.506   0.525  -2.067  0.00  0.00    +0.044 C 
ATOM      8  C   UNL     1       1.511  -0.968  -1.860  0.00  0.00    -0.050 A 
ATOM      9  C   UNL     1       1.421  -1.815  -2.951  0.00  0.00    +0.004 A 
ATOM     10  C   UNL     1       1.424  -3.182  -2.768  0.00  0.00    +0.014 A 
ATOM     11  C   UNL     1       1.518  -3.711  -1.480  0.00  0.00    +0.041 A 
ATOM     12  C   UNL     1       1.609  -2.851  -0.384  0.00  0.00    -0.038 A 
ATOM     13  C   UNL     1       1.610  -1.485  -0.581  0.00  0.00    +0.007 A 
ATOM     14  C   UNL     1       1.711  -3.413   1.010  0.00  0.00    +0.044 C 
ENDBRANCH   1  11
BRANCH   3  15
ATOM     15  C   UNL     1       1.708  -8.221   0.640  0.00  0.00    +0.073 C 
BRANCH  15  16
ATOM     16  N   UNL     1       0.449  -8.310   1.392  0.00  0.00    +0.393 N 
ATOM     17  C   UNL     1       0.244  -7.068   2.147  0.00  0.00    -0.076 C 
ATOM     18  C   UNL     1      -1.105  -7.122   2.868  0.00  0.00    -0.018 C 
ATOM     19  C   UNL     1      -1.115  -8.314   3.830  0.00  0.00    +0.009 C 
ATOM     20  C   UNL     1      -0.825  -9.595   3.044  0.00  0.00    +0.059 C 
ATOM     21  C   UNL     1       0.513  -9.449   2.316  0.00  0.00    -0.064 C 
ATOM     22  H   UNL     1      -0.317  -8.442   0.749  0.00  0.00    -0.079 HD
BRANCH  20  23
ATOM     23  C   UNL     1      -0.758 -10.764   3.993  0.00  0.00    +0.216 C 
ATOM     24  O   UNL     1       0.318 -11.217   4.321  0.00  0.00    -0.275 OA
ATOM     25  N   UNL     1      -1.893 -11.306   4.476  0.00  0.00    -0.307 N 
ATOM     26  C   UNL     1      -1.833 -12.506   5.314  0.00  0.00    +0.131 C 
ATOM     27  C   UNL     1      -3.188 -10.695   4.164  0.00  0.00    +0.131 C 
ENDBRANCH  20  23
ENDBRANCH  15  16
ENDBRANCH   3  15
TORSDOF 4
