REMARK  Name = ZINC23542145
REMARK  8 active torsions:
REMARK  status: ('A' for Active; 'I' for Inactive)
REMARK    1  A    between atoms: C_1  and  C_2
REMARK    2  A    between atoms: C_2  and  C_3
REMARK    3  A    between atoms: C_4  and  C_26
REMARK    4  A    between atoms: C_5  and  C_9
REMARK    5  A    between atoms: C_15  and  C_18
REMARK    6  A    between atoms: C_18  and  N_19
REMARK    7  A    between atoms: C_21  and  C_24
REMARK    8  A    between atoms: C_24  and  N_25
REMARK                            x       y       z     vdW  Elec       q    Type
REMARK                         _______ _______ _______ _____ _____    ______ ____
ROOT
ATOM      1  C   UNL     1      -4.019   8.477  -1.938  0.00  0.00    +0.265 C 
ATOM      2  O   UNL     1      -4.454   7.468  -1.415  0.00  0.00    -0.268 OA
ATOM      3  N   UNL     1      -2.688   8.651  -2.061  0.00  0.00    -0.296 N 
ATOM      4  C   UNL     1      -2.148   9.803  -2.797  0.00  0.00    +0.108 C 
ATOM      5  C   UNL     1      -1.175   9.293  -3.865  0.00  0.00    +0.019 C 
ATOM      6  C   UNL     1      -0.110   8.416  -3.203  0.00  0.00    +0.008 C 
ATOM      7  C   UNL     1      -0.780   7.208  -2.543  0.00  0.00    +0.028 C 
ATOM      8  C   UNL     1      -1.749   7.694  -1.460  0.00  0.00    +0.113 C 
ENDROOT
BRANCH   1  11
ATOM      9  C   UNL     1      -6.127  11.354  -2.711  0.00  0.00    +0.066 A 
ATOM     10  C   UNL     1      -5.173  10.755  -1.886  0.00  0.00    +0.002 A 
ATOM     11  C   UNL     1      -4.945   9.506  -2.436  0.00  0.00    +0.123 A 
ATOM     12  N   UNL     1      -5.747   9.422  -3.539  0.00  0.00    -0.272 N 
ATOM     13  H   UNL     1      -5.738   8.513  -4.158  0.00  0.00    +0.189 HD
ATOM     14  N   UNL     1      -6.422  10.508  -3.664  0.00  0.00    -0.178 NA
ATOM     15  C   UNL     1      -4.529  11.343  -0.657  0.00  0.00    +0.048 C 
BRANCH   9  17
ATOM     16  C   UNL     1      -5.859  13.751  -3.291  0.00  0.00    +0.010 C 
ATOM     17  C   UNL     1      -6.713  12.731  -2.535  0.00  0.00    +0.054 C 
ENDBRANCH   9  17
ENDBRANCH   1  11
BRANCH   7  18
ATOM     18  C   UNL     1       0.288   6.315  -1.908  0.00  0.00    +0.150 C 
BRANCH  18  19
ATOM     19  N   UNL     1      -0.340   5.102  -1.380  0.00  0.00    -0.251 N 
ATOM     20  C   UNL     1       0.008   3.831  -1.687  0.00  0.00    +0.131 A 
ATOM     21  C   UNL     1      -0.825   3.031  -0.980  0.00  0.00    +0.066 A 
ATOM     22  N   UNL     1      -1.634   3.841  -0.289  0.00  0.00    -0.136 NA
ATOM     23  N   UNL     1      -1.317   5.062  -0.543  0.00  0.00    -0.066 NA
BRANCH  21  24
ATOM     24  C   UNL     1      -0.841   1.524  -0.978  0.00  0.00    -0.027 C 
BRANCH  24  25
ATOM     25  N   UNL     1      -0.040   1.028   0.149  0.00  0.00    +0.382 N 
ATOM     26  H   UNL     1      -0.052  -0.072   0.151  0.00  0.00    -0.090 HD
ATOM     27  H   UNL     1      -0.465   1.401   1.093  0.00  0.00    -0.090 HD
ATOM     28  H   UNL     1       0.996   1.383   0.048  0.00  0.00    -0.090 HD
ENDBRANCH  24  25
ENDBRANCH  21  24
ENDBRANCH  18  19
ENDBRANCH   7  18
TORSDOF 6
