REMARK  Name = ZINC62168246
REMARK  8 active torsions:
REMARK  status: ('A' for Active; 'I' for Inactive)
REMARK    1  A    between atoms: C_1  and  C_2
REMARK    2  A    between atoms: C_2  and  N_3
REMARK    3  A    between atoms: N_3  and  C_4
REMARK    4  A    between atoms: N_3  and  C_6
REMARK    5  A    between atoms: C_4  and  C_5
REMARK    6  A    between atoms: C_9  and  N_13
REMARK    7  A    between atoms: C_10  and  C_12
REMARK    8  A    between atoms: C_14  and  C_16
REMARK                            x       y       z     vdW  Elec       q    Type
REMARK                         _______ _______ _______ _____ _____    ______ ____
ROOT
ATOM      1  N   UNL     1       0.370  -6.027  -1.468  0.00  0.00    -0.285 N 
ATOM      2  C   UNL     1       1.375  -6.783  -0.984  0.00  0.00    +0.223 C 
ATOM      3  O   UNL     1       2.306  -6.259  -0.410  0.00  0.00    -0.275 OA
ATOM      4  H   UNL     1      -0.406  -6.450  -1.869  0.00  0.00    +0.155 HD
ENDROOT
BRANCH   2   5
ATOM      5  C   UNL     1       1.342  -8.280  -1.155  0.00  0.00    +0.110 C 
ATOM      6  C   UNL     1       0.505  -9.008  -0.087  0.00  0.00    +0.121 C 
ATOM      7  N   UNL     1       1.595 -10.002  -0.056  0.00  0.00    -0.308 N 
ATOM      8  C   UNL     1       2.560  -9.000  -0.548  0.00  0.00    +0.121 C 
ATOM      9  C   UNL     1       1.678 -11.335   0.294  0.00  0.00    +0.162 A 
ATOM     10  N   UNL     1       0.729 -12.136   0.721  0.00  0.00    -0.222 NA
ATOM     11  C   UNL     1       0.957 -13.432   1.029  0.00  0.00    +0.115 A 
ATOM     12  C   UNL     1       0.030 -14.395   1.497  0.00  0.00    +0.150 A 
ATOM     13  C   UNL     1       0.431 -15.680   1.764  0.00  0.00    +0.040 A 
ATOM     14  C   UNL     1       1.748 -16.080   1.588  0.00  0.00    +0.004 A 
ATOM     15  C   UNL     1       2.678 -15.164   1.133  0.00  0.00    +0.017 A 
ATOM     16  C   UNL     1       2.287 -13.876   0.862  0.00  0.00    +0.044 A 
ATOM     17  S   UNL     1       3.104 -12.413   0.273  0.00  0.00    -0.052 S 
ATOM     18  F   UNL     1      -1.261 -14.045   1.682  0.00  0.00    -0.203 F 
ENDBRANCH   2   5
BRANCH   1  22
ATOM     19  C   UNL     1       0.595  -1.873  -1.244  0.00  0.00    +0.014 A 
ATOM     20  C   UNL     1       1.130  -2.648  -0.231  0.00  0.00    +0.023 A 
ATOM     21  C   UNL     1       1.057  -4.025  -0.303  0.00  0.00    +0.025 A 
ATOM     22  C   UNL     1       0.445  -4.631  -1.392  0.00  0.00    +0.036 A 
ATOM     23  C   UNL     1      -0.091  -3.850  -2.407  0.00  0.00    -0.028 A 
ATOM     24  C   UNL     1      -0.019  -2.473  -2.327  0.00  0.00    +0.026 A 
ATOM     25  C   UNL     1      -0.756  -4.503  -3.591  0.00  0.00    +0.046 C 
BRANCH  19  26
ATOM     26  N   UNL     1       0.671  -0.479  -1.169  0.00  0.00    -0.394 NA
ATOM     27  H   UNL     1       0.231  -0.074  -1.981  0.00  0.00    +0.126 HD
BRANCH  26  29
ATOM     28  C   UNL     1      -0.044   1.514   0.062  0.00  0.00    +0.022 C 
ATOM     29  C   UNL     1      -0.018  -0.016   0.043  0.00  0.00    +0.081 C 
ENDBRANCH  26  29
BRANCH  26  30
ATOM     30  C   UNL     1       2.080  -0.067  -1.118  0.00  0.00    +0.081 C 
ATOM     31  C   UNL     1       2.767  -0.439  -2.434  0.00  0.00    +0.022 C 
ENDBRANCH  26  30
ENDBRANCH  19  26
ENDBRANCH   1  22
TORSDOF 5
