REMARK  Name = ZINC54647571
REMARK  9 active torsions:
REMARK  status: ('A' for Active; 'I' for Inactive)
REMARK    1  A    between atoms: C_1  and  C_2
REMARK    2  A    between atoms: C_9  and  N_14
REMARK    3  A    between atoms: C_10  and  C_11
REMARK    4  A    between atoms: C_15  and  C_17
REMARK    5  A    between atoms: C_17  and  C_18
REMARK    6  A    between atoms: C_18  and  N_19
REMARK    7  A    between atoms: C_26  and  C_32
REMARK    8  A    between atoms: C_29  and  C_30
REMARK    9  A    between atoms: C_29  and  C_31
REMARK                            x       y       z     vdW  Elec       q    Type
REMARK                         _______ _______ _______ _____ _____    ______ ____
ROOT
ATOM      1  N   UNL     1       0.696  -5.847   2.434  0.00  0.00    -0.279 N 
ATOM      2  C   UNL     1       1.677  -6.096   3.324  0.00  0.00    +0.219 C 
ATOM      3  O   UNL     1       2.383  -5.191   3.716  0.00  0.00    -0.275 OA
ATOM      4  H   UNL     1       0.131  -6.571   2.120  0.00  0.00    +0.155 HD
ENDROOT
BRANCH   1  12
ATOM      5  C   UNL     1      -0.019   1.526   0.010  0.00  0.00    +0.008 C 
ATOM      6  C   UNL     1       0.002  -0.004   0.002  0.00  0.00    -0.009 C 
ATOM      7  C   UNL     1      -1.434  -0.537   0.019  0.00  0.00    +0.008 C 
ATOM      8  C   UNL     1      -1.433  -2.045  -0.237  0.00  0.00    +0.037 C 
ATOM      9  C   UNL     1      -0.464  -2.704   0.734  0.00  0.00    -0.023 A 
ATOM     10  C   UNL     1       0.485  -1.986   1.374  0.00  0.00    -0.004 A 
ATOM     11  S   UNL     1       1.343  -3.167   2.373  0.00  0.00    -0.077 S 
ATOM     12  C   UNL     1       0.492  -4.557   1.968  0.00  0.00    +0.084 A 
ATOM     13  C   UNL     1      -0.459  -4.119   1.061  0.00  0.00    +0.068 A 
ATOM     14  C   UNL     1       0.739  -0.515   1.248  0.00  0.00    +0.046 C 
BRANCH  13  15
ATOM     15  C   UNL     1      -1.421  -5.045   0.456  0.00  0.00    +0.244 C 
ATOM     16  O   UNL     1      -1.149  -5.611  -0.587  0.00  0.00    -0.270 OA
ATOM     17  N   UNL     1      -2.608  -5.271   1.055  0.00  0.00    -0.325 N 
ATOM     18  H   UNL     1      -2.825  -4.821   1.886  0.00  0.00    +0.145 HD
ATOM     19  H   UNL     1      -3.244  -5.884   0.655  0.00  0.00    +0.145 HD
ENDBRANCH  13  15
ENDBRANCH   1  12
BRANCH   2  20
ATOM     20  C   UNL     1       1.898  -7.498   3.830  0.00  0.00    +0.115 C 
BRANCH  20  21
ATOM     21  C   UNL     1       3.064  -7.504   4.821  0.00  0.00    +0.125 C 
BRANCH  21  22
ATOM     22  N   UNL     1       3.279  -8.867   5.313  0.00  0.00    -0.241 N 
ATOM     23  C   UNL     1       2.619  -9.273   6.414  0.00  0.00    +0.225 C 
ATOM     24  O   UNL     1       1.829  -8.532   6.958  0.00  0.00    -0.275 OA
ATOM     25  C   UNL     1       2.871 -10.663   6.969  0.00  0.00    +0.082 C 
ATOM     26  C   UNL     1       2.145 -11.659   6.033  0.00  0.00    +0.014 C 
ATOM     27  C   UNL     1       3.114 -11.929   4.866  0.00  0.00    +0.017 C 
ATOM     28  C   UNL     1       4.377 -11.082   5.156  0.00  0.00    +0.051 C 
ATOM     29  C   UNL     1       4.125  -9.674   4.647  0.00  0.00    +0.228 C 
ATOM     30  O   UNL     1       4.664  -9.287   3.632  0.00  0.00    -0.275 OA
ATOM     31  C   UNL     1       4.379 -10.953   6.727  0.00  0.00    -0.010 C 
ATOM     32  C   UNL     1       5.249  -9.790   7.209  0.00  0.00    +0.012 C 
ATOM     33  C   UNL     1       4.802 -12.267   7.387  0.00  0.00    +0.012 C 
ATOM     34  C   UNL     1       5.656 -11.696   4.585  0.00  0.00    +0.021 C 
ENDBRANCH  21  22
ENDBRANCH  20  21
ENDBRANCH   2  20
TORSDOF 5
