REMARK  Name = ZINC41584766
REMARK  4 active torsions:
REMARK  status: ('A' for Active; 'I' for Inactive)
REMARK    1  A    between atoms: C_4  and  C_7
REMARK    2  A    between atoms: C_14  and  O_35
REMARK    3  A    between atoms: C_15  and  C_18
REMARK    4  A    between atoms: C_18  and  N_19
REMARK                            x       y       z     vdW  Elec       q    Type
REMARK                         _______ _______ _______ _____ _____    ______ ____
ROOT
ATOM      1  C   UNL     1       3.690  -0.678  -0.037  0.00  0.00    +0.058 C 
ATOM      2  C   UNL     1       3.716  -2.030   0.058  0.00  0.00    +0.176 C 
ATOM      3  C   UNL     1       4.919  -2.872   0.165  0.00  0.00    +0.231 C 
ATOM      4  O   UNL     1       6.083  -2.511   0.186  0.00  0.00    -0.283 OA
ATOM      5  C   UNL     1       4.400  -4.250   0.240  0.00  0.00    +0.068 A 
ATOM      6  C   UNL     1       5.016  -5.497   0.351  0.00  0.00    +0.019 A 
ATOM      7  C   UNL     1       4.255  -6.631   0.400  0.00  0.00    +0.046 A 
ATOM      8  C   UNL     1       2.867  -6.544   0.339  0.00  0.00    +0.122 A 
ATOM      9  C   UNL     1       2.242  -5.312   0.228  0.00  0.00    +0.020 A 
ATOM     10  C   UNL     1       3.001  -4.150   0.177  0.00  0.00    +0.144 A 
ATOM     11  O   UNL     1       2.640  -2.852   0.077  0.00  0.00    -0.451 OA
ENDROOT
BRANCH   1  15
ATOM     12  C   UNL     1      -0.016   1.381   0.025  0.00  0.00    +0.000 A 
ATOM     13  C   UNL     1       0.002  -0.003  -0.006  0.00  0.00    +0.001 A 
ATOM     14  C   UNL     1       1.203  -0.680  -0.027  0.00  0.00    +0.008 A 
ATOM     15  C   UNL     1       2.405   0.036  -0.016  0.00  0.00    -0.021 A 
ATOM     16  C   UNL     1       2.378   1.435   0.016  0.00  0.00    +0.008 A 
ATOM     17  C   UNL     1       1.169   2.096   0.036  0.00  0.00    +0.001 A 
ENDBRANCH   1  15
BRANCH   8  18
ATOM     18  O   UNL     1       2.119  -7.676   0.387  0.00  0.00    -0.506 OA
ATOM     19  H   UNL     1       1.868  -7.943   1.282  0.00  0.00    +0.292 HD
ENDBRANCH   8  18
BRANCH   9  20
ATOM     20  C   UNL     1       0.738  -5.234   0.162  0.00  0.00    -0.036 C 
BRANCH  20  21
ATOM     21  N   UNL     1       0.194  -5.113   1.521  0.00  0.00    +0.383 N 
ATOM     22  C   UNL     1      -1.255  -4.908   1.450  0.00  0.00    -0.073 C 
ATOM     23  C   UNL     1      -1.862  -4.779   2.839  0.00  0.00    -0.007 C 
ATOM     24  C   UNL     1      -1.526  -6.005   3.692  0.00  0.00    +0.011 C 
ATOM     25  C   UNL     1       0.002  -6.139   3.721  0.00  0.00    +0.020 C 
ATOM     26  C   UNL     1       0.488  -6.340   2.276  0.00  0.00    -0.069 C 
ATOM     27  C   UNL     1       0.601  -4.851   4.240  0.00  0.00    +0.023 A 
ATOM     28  C   UNL     1       1.790  -4.929   4.892  0.00  0.00    +0.022 A 
ATOM     29  C   UNL     1       2.432  -3.770   5.342  0.00  0.00    +0.007 A 
ATOM     30  C   UNL     1       1.856  -2.559   5.093  0.00  0.00    +0.070 A 
ATOM     31  C   UNL     1       0.630  -2.513   4.414  0.00  0.00    +0.251 A 
ATOM     32  O   UNL     1       0.136  -1.433   4.131  0.00  0.00    -0.268 OA
ATOM     33  N   UNL     1      -0.012  -3.656   4.069  0.00  0.00    -0.312 N 
ATOM     34  C   UNL     1      -1.373  -3.531   3.554  0.00  0.00    +0.126 C 
ATOM     35  H   UNL     1       0.621  -4.324   1.984  0.00  0.00    -0.081 HD
ENDBRANCH  20  21
ENDBRANCH   9  20
TORSDOF 4
