REMARK  Name = ZINC19771080
REMARK  7 active torsions:
REMARK  status: ('A' for Active; 'I' for Inactive)
REMARK    1  A    between atoms: C_1  and  C_2
REMARK    2  A    between atoms: C_3  and  C_31
REMARK    3  A    between atoms: C_4  and  C_22
REMARK    4  A    between atoms: C_10  and  C_15
REMARK    5  A    between atoms: C_26  and  N_28
REMARK    6  A    between atoms: C_31  and  O_33
REMARK    7  A    between atoms: O_33  and  C_34
REMARK                            x       y       z     vdW  Elec       q    Type
REMARK                         _______ _______ _______ _____ _____    ______ ____
ROOT
ATOM      1  C   UNL     1       1.328   3.713  -0.006  0.00  0.00    +0.061 C 
ATOM      2  C   UNL     1       1.248   2.209  -0.001  0.00  0.00    +0.016 C 
ATOM      3  C   UNL     1       0.048   1.604   0.028  0.00  0.00    +0.065 C 
ATOM      4  C   UNL     1      -0.071   0.108   0.025  0.00  0.00    +0.092 C 
ATOM      5  C   UNL     1       1.233  -0.539   0.416  0.00  0.00    +0.024 C 
ATOM      6  C   UNL     1       2.389   0.157   0.373  0.00  0.00    +0.016 C 
ATOM      7  N   UNL     1       2.396   1.467  -0.026  0.00  0.00    -0.321 N 
ATOM      8  C   UNL     1       3.697  -0.482   0.766  0.00  0.00    +0.059 C 
ATOM      9  C   UNL     1       3.653  -1.979   0.449  0.00  0.00    +0.033 C 
ATOM     10  C   UNL     1       2.477  -2.602   1.208  0.00  0.00    +0.088 C 
ATOM     11  C   UNL     1       1.212  -1.885   0.823  0.00  0.00    +0.162 C 
ATOM     12  O   UNL     1       0.153  -2.479   0.866  0.00  0.00    -0.292 OA
ATOM     13  H   UNL     1       3.337   1.921  -0.370  0.00  0.00    +0.152 HD
ENDROOT
BRANCH   9  14
ATOM     14  C   UNL     1       4.940  -2.628   0.889  0.00  0.00    -0.025 A 
ATOM     15  C   UNL     1       5.330  -2.563   2.214  0.00  0.00    +0.005 A 
ATOM     16  C   UNL     1       6.510  -3.159   2.617  0.00  0.00    +0.000 A 
ATOM     17  C   UNL     1       7.302  -3.819   1.696  0.00  0.00    +0.001 A 
ATOM     18  C   UNL     1       6.914  -3.884   0.372  0.00  0.00    +0.020 A 
ATOM     19  C   UNL     1       5.730  -3.293  -0.032  0.00  0.00    +0.044 A 
ATOM     20 CL   UNL     1       5.238  -3.381  -1.695  0.00  0.00    -0.083 Cl
ENDBRANCH   9  14
BRANCH   4  21
ATOM     21  C   UNL     1      -0.458  -0.354  -1.356  0.00  0.00    -0.033 A 
ATOM     22  C   UNL     1       0.364  -0.078  -2.433  0.00  0.00    +0.005 A 
ATOM     23  C   UNL     1       0.009  -0.503  -3.699  0.00  0.00    +0.003 A 
ATOM     24  C   UNL     1      -1.167  -1.204  -3.889  0.00  0.00    +0.033 A 
ATOM     25  C   UNL     1      -1.988  -1.480  -2.813  0.00  0.00    +0.126 A 
ATOM     26  C   UNL     1      -1.631  -1.060  -1.545  0.00  0.00    +0.037 A 
BRANCH  25  27
ATOM     27  N   UNL     1      -3.248  -2.231  -3.016  0.00  0.00    +0.056 N 
ATOM     28  O   UNL     1      -3.560  -2.605  -4.133  0.00  0.00    -0.126 OA
ATOM     29  O   UNL     1      -3.972  -2.474  -2.068  0.00  0.00    -0.126 OA
ENDBRANCH  25  27
ENDBRANCH   4  21
BRANCH   3  30
ATOM     30  C   UNL     1      -1.126   2.393   0.056  0.00  0.00    +0.337 C 
ATOM     31  O   UNL     1      -1.044   3.603   0.160  0.00  0.00    -0.245 OA
BRANCH  30  32
ATOM     32  O   UNL     1      -2.337   1.805  -0.033  0.00  0.00    -0.465 OA
ATOM     33  C   UNL     1      -3.479   2.663   0.002  0.00  0.00    +0.280 C 
ENDBRANCH  30  32
ENDBRANCH   3  30
TORSDOF 5
