REMARK  Name = ZINC15085576
REMARK  13 active torsions:
REMARK  status: ('A' for Active; 'I' for Inactive)
REMARK    1  A    between atoms: C_1  and  C_2
REMARK    2  A    between atoms: C_6  and  N_9
REMARK    3  A    between atoms: C_7  and  C_8
REMARK    4  A    between atoms: N_9  and  C_10
REMARK    5  A    between atoms: C_10  and  C_11
REMARK    6  A    between atoms: N_13  and  C_14
REMARK    7  A    between atoms: N_13  and  C_18
REMARK    8  A    between atoms: C_14  and  C_15
REMARK    9  A    between atoms: C_15  and  C_16
REMARK   10  A    between atoms: C_15  and  C_17
REMARK   11  A    between atoms: C_19  and  N_34
REMARK   12  A    between atoms: N_20  and  C_27
REMARK   13  A    between atoms: C_27  and  C_28
REMARK                            x       y       z     vdW  Elec       q    Type
REMARK                         _______ _______ _______ _____ _____    ______ ____
ROOT
ATOM      1  C   UNL     1      -0.178   1.523  -0.003  0.00  0.00    +0.140 A 
ATOM      2  C   UNL     1       0.320   0.848  -1.099  0.00  0.00    +0.128 A 
ATOM      3  N   UNL     1       1.566   0.273  -1.024  0.00  0.00    -0.276 N 
ATOM      4  C   UNL     1       2.293   0.366   0.105  0.00  0.00    +0.331 A 
ATOM      5  O   UNL     1       3.393  -0.150   0.151  0.00  0.00    -0.246 OA
ATOM      6  N   UNL     1       1.824   1.020   1.183  0.00  0.00    -0.273 N 
ATOM      7  H   UNL     1       2.384   1.075   2.009  0.00  0.00    +0.173 HD
ATOM      8  C   UNL     1       0.609   1.601   1.161  0.00  0.00    +0.277 A 
ATOM      9  O   UNL     1       0.193   2.191   2.144  0.00  0.00    -0.266 OA
ENDROOT
BRANCH   1  12
ATOM     10  C   UNL     1      -1.582   3.456   0.079  0.00  0.00    +0.237 C 
ATOM     11  O   UNL     1      -0.606   4.137   0.318  0.00  0.00    -0.274 OA
ATOM     12  N   UNL     1      -1.456   2.119  -0.046  0.00  0.00    -0.263 N 
BRANCH  10  13
ATOM     13  C   UNL     1      -2.933   4.104  -0.076  0.00  0.00    +0.198 C 
BRANCH  13  14
ATOM     14  N   UNL     1      -2.804   5.552   0.104  0.00  0.00    -0.335 N 
ATOM     15  H   UNL     1      -1.936   5.942   0.293  0.00  0.00    +0.147 HD
BRANCH  14  21
ATOM     16  C   UNL     1      -4.797  10.042   0.263  0.00  0.00    +0.044 C 
ATOM     17  C   UNL     1      -4.927   8.552   0.078  0.00  0.00    -0.046 A 
ATOM     18  C   UNL     1      -6.164   7.995  -0.190  0.00  0.00    +0.004 A 
ATOM     19  C   UNL     1      -6.287   6.628  -0.361  0.00  0.00    +0.002 A 
ATOM     20  C   UNL     1      -5.175   5.815  -0.264  0.00  0.00    +0.023 A 
ATOM     21  C   UNL     1      -3.931   6.372   0.005  0.00  0.00    +0.031 A 
ATOM     22  C   UNL     1      -3.812   7.745   0.182  0.00  0.00    -0.027 A 
ATOM     23  C   UNL     1      -2.465   8.352   0.481  0.00  0.00    +0.046 C 
ENDBRANCH  14  21
ENDBRANCH  13  14
ENDBRANCH  10  13
BRANCH  12  24
ATOM     24  C   UNL     1      -2.647   1.285  -0.229  0.00  0.00    +0.117 C 
BRANCH  24  25
ATOM     25  C   UNL     1      -3.262   0.970   1.136  0.00  0.00    +0.001 C 
ATOM     26  C   UNL     1      -4.588   0.231   0.940  0.00  0.00    +0.009 C 
ATOM     27  C   UNL     1      -2.302   0.089   1.938  0.00  0.00    +0.009 C 
ENDBRANCH  24  25
ENDBRANCH  12  24
ENDBRANCH   1  12
BRANCH   2  28
ATOM     28  N   UNL     1      -0.422   0.752  -2.252  0.00  0.00    -0.343 N 
ATOM     29  H   UNL     1      -1.263   1.229  -2.329  0.00  0.00    +0.144 HD
ATOM     30  H   UNL     1      -0.105   0.207  -2.989  0.00  0.00    +0.144 HD
ENDBRANCH   2  28
BRANCH   3  31
ATOM     31  C   UNL     1       2.107  -0.447  -2.180  0.00  0.00    +0.163 C 
BRANCH  31  32
ATOM     32  C   UNL     1       1.707  -1.898  -2.100  0.00  0.00    -0.028 A 
ATOM     33  C   UNL     1       2.524  -2.806  -1.452  0.00  0.00    +0.005 A 
ATOM     34  C   UNL     1       2.155  -4.136  -1.374  0.00  0.00    +0.000 A 
ATOM     35  C   UNL     1       0.974  -4.560  -1.954  0.00  0.00    +0.000 A 
ATOM     36  C   UNL     1       0.160  -3.654  -2.607  0.00  0.00    +0.000 A 
ATOM     37  C   UNL     1       0.526  -2.323  -2.680  0.00  0.00    +0.005 A 
ENDBRANCH  31  32
ENDBRANCH   3  31
TORSDOF 9
