REMARK  Name = ZINC62275024
REMARK  3 active torsions:
REMARK  status: ('A' for Active; 'I' for Inactive)
REMARK    1  A    between atoms: C_6  and  C_7
REMARK    2  A    between atoms: C_15  and  C_17
REMARK    3  A    between atoms: N_22  and  C_24
REMARK                            x       y       z     vdW  Elec       q    Type
REMARK                         _______ _______ _______ _____ _____    ______ ____
ROOT
ATOM      1  C   UNL     1      -1.293  -0.775   0.010  0.00  0.00    +0.192 C 
ATOM      2  C   UNL     1      -1.673  -1.136  -1.400  0.00  0.00    +0.238 C 
ATOM      3  O   UNL     1      -2.081  -0.259  -2.131  0.00  0.00    -0.273 OA
ATOM      4  N   UNL     1      -1.582  -2.376  -1.882  0.00  0.00    -0.312 N 
ATOM      5  C   UNL     1      -1.197  -3.542  -1.099  0.00  0.00    +0.123 C 
ATOM      6  C   UNL     1      -0.410  -3.124   0.145  0.00  0.00    +0.127 C 
ATOM      7  N   UNL     1      -1.127  -2.009   0.792  0.00  0.00    -0.284 N 
ATOM      8  C   UNL     1      -1.611  -2.116   2.046  0.00  0.00    +0.222 C 
ATOM      9  O   UNL     1      -2.197  -1.182   2.550  0.00  0.00    -0.275 OA
ATOM     10  H   UNL     1      -1.787  -2.511  -2.821  0.00  0.00    +0.149 HD
ENDROOT
BRANCH   1  16
ATOM     11  C   UNL     1       1.126  -0.549  -0.590  0.00  0.00    +0.009 A 
ATOM     12  C   UNL     1       2.314   0.157  -0.598  0.00  0.00    +0.038 A 
ATOM     13  C   UNL     1       2.379   1.410  -0.013  0.00  0.00    +0.123 A 
ATOM     14  C   UNL     1       1.252   1.955   0.579  0.00  0.00    +0.038 A 
ATOM     15  C   UNL     1       0.065   1.247   0.586  0.00  0.00    +0.009 A 
ATOM     16  C   UNL     1       0.002  -0.004   0.002  0.00  0.00    -0.018 A 
ATOM     17  F   UNL     1       3.540   2.101  -0.020  0.00  0.00    -0.205 F 
ENDBRANCH   1  16
BRANCH   8  18
ATOM     18  C   UNL     1      -1.423  -3.395   2.819  0.00  0.00    +0.101 C 
ATOM     19  C   UNL     1      -2.178  -4.565   2.147  0.00  0.00    +0.110 C 
ATOM     20  C   UNL     1      -2.702  -5.384   3.305  0.00  0.00    +0.217 C 
ATOM     21  O   UNL     1      -3.105  -6.525   3.224  0.00  0.00    -0.276 OA
ATOM     22  N   UNL     1      -2.655  -4.663   4.439  0.00  0.00    -0.298 N 
ATOM     23  C   UNL     1      -2.122  -3.317   4.195  0.00  0.00    +0.121 C 
BRANCH  22  24
ATOM     24  C   UNL     1      -3.079  -5.158   5.751  0.00  0.00    +0.076 C 
ATOM     25  C   UNL     1      -4.557  -5.548   5.696  0.00  0.00    +0.022 C 
ATOM     26  C   UNL     1      -5.000  -6.065   7.066  0.00  0.00    +0.002 C 
ATOM     27  C   UNL     1      -4.164  -7.289   7.444  0.00  0.00    +0.000 C 
ATOM     28  C   UNL     1      -2.686  -6.899   7.500  0.00  0.00    +0.002 C 
ATOM     29  C   UNL     1      -2.242  -6.382   6.130  0.00  0.00    +0.022 C 
ENDBRANCH  22  24
ENDBRANCH   8  18
TORSDOF 3
