REMARK  Name = ZINC58850050
REMARK  5 active torsions:
REMARK  status: ('A' for Active; 'I' for Inactive)
REMARK    1  A    between atoms: C_1  and  C_2
REMARK    2  A    between atoms: C_6  and  C_8
REMARK    3  A    between atoms: C_19  and  S_24
REMARK    4  A    between atoms: S_24  and  N_27
REMARK    5  A    between atoms: N_27  and  C_28
REMARK                            x       y       z     vdW  Elec       q    Type
REMARK                         _______ _______ _______ _____ _____    ______ ____
ROOT
ATOM      1  C   UNL     1      -0.030  -3.133   2.029  0.00  0.00    +0.105 C 
ATOM      2  C   UNL     1       1.392  -3.487   2.344  0.00  0.00    +0.029 C 
ATOM      3  C   UNL     1       2.139  -4.055   1.119  0.00  0.00    +0.033 C 
ATOM      4  C   UNL     1       3.195  -4.955   1.726  0.00  0.00    -0.030 C 
ATOM      5  C   UNL     1       2.904  -5.246   2.967  0.00  0.00    -0.023 C 
ATOM      6  C   UNL     1       1.595  -4.607   3.360  0.00  0.00    +0.049 C 
ATOM      7  C   UNL     1       0.526  -5.662   3.298  0.00  0.00    -0.018 A 
ATOM      8  C   UNL     1       0.754  -6.869   3.944  0.00  0.00    +0.034 A 
ATOM      9  C   UNL     1      -0.193  -7.872   3.906  0.00  0.00    +0.109 A 
ATOM     10  C   UNL     1      -1.379  -7.683   3.221  0.00  0.00    +0.030 A 
ATOM     11  C   UNL     1      -1.615  -6.485   2.579  0.00  0.00    +0.025 A 
ATOM     12  C   UNL     1      -0.664  -5.469   2.621  0.00  0.00    +0.031 A 
ATOM     13  N   UNL     1      -0.940  -4.260   2.012  0.00  0.00    -0.336 N 
ATOM     14  H   UNL     1      -1.776  -4.175   1.527  0.00  0.00    +0.147 HD
ENDROOT
BRANCH   1  20
ATOM     15  C   UNL     1      -0.158   1.024  -0.755  0.00  0.00    +0.044 C 
ATOM     16  C   UNL     1      -0.131  -0.480  -0.655  0.00  0.00    -0.050 A 
ATOM     17  C   UNL     1      -0.141  -1.249  -1.803  0.00  0.00    +0.003 A 
ATOM     18  C   UNL     1      -0.115  -2.628  -1.711  0.00  0.00    +0.001 A 
ATOM     19  C   UNL     1      -0.080  -3.238  -0.471  0.00  0.00    +0.005 A 
ATOM     20  C   UNL     1      -0.069  -2.468   0.677  0.00  0.00    -0.027 A 
ATOM     21  C   UNL     1      -0.090  -1.089   0.585  0.00  0.00    +0.008 A 
ENDBRANCH   1  20
BRANCH   9  22
ATOM     22  S   UNL     1       0.111  -9.399   4.733  0.00  0.00    +0.072 S 
ATOM     23  O   UNL     1      -0.696 -10.376   4.090  0.00  0.00    -0.150 OA
ATOM     24  O   UNL     1       1.522  -9.528   4.842  0.00  0.00    -0.150 OA
BRANCH  22  25
ATOM     25  N   UNL     1      -0.471  -9.245   6.275  0.00  0.00    -0.216 N 
ATOM     26  H   UNL     1       0.129  -9.338   7.032  0.00  0.00    +0.174 HD
BRANCH  25  27
ATOM     27  C   UNL     1      -1.822  -8.980   6.487  0.00  0.00    +0.056 A 
ATOM     28  C   UNL     1      -2.777  -9.526   5.655  0.00  0.00    +0.025 A 
ATOM     29  C   UNL     1      -4.129  -9.269   5.858  0.00  0.00    +0.002 A 
ATOM     30  C   UNL     1      -4.547  -8.473   6.881  0.00  0.00    +0.008 A 
ATOM     31  C   UNL     1      -3.607  -7.897   7.752  0.00  0.00    -0.016 A 
ATOM     32  C   UNL     1      -2.227  -8.156   7.559  0.00  0.00    +0.004 A 
ATOM     33  C   UNL     1      -1.290  -7.584   8.433  0.00  0.00    +0.010 A 
ATOM     34  C   UNL     1      -1.717  -6.793   9.456  0.00  0.00    +0.001 A 
ATOM     35  C   UNL     1      -3.074  -6.543   9.650  0.00  0.00    +0.001 A 
ATOM     36  C   UNL     1      -4.010  -7.071   8.815  0.00  0.00    +0.008 A 
ENDBRANCH  25  27
ENDBRANCH  22  25
ENDBRANCH   9  22
TORSDOF 4
