REMARK  Name = ZINC03304217
REMARK  12 active torsions:
REMARK  status: ('A' for Active; 'I' for Inactive)
REMARK    1  A    between atoms: C_1  and  C_2
REMARK    2  A    between atoms: C_2  and  O_3
REMARK    3  A    between atoms: O_3  and  C_4
REMARK    4  A    between atoms: C_4  and  C_6
REMARK    5  A    between atoms: C_7  and  C_29
REMARK    6  A    between atoms: C_8  and  C_13
REMARK    7  A    between atoms: C_11  and  C_12
REMARK    8  A    between atoms: C_13  and  O_15
REMARK    9  A    between atoms: O_15  and  C_16
REMARK   10  A    between atoms: C_16  and  C_17
REMARK   11  A    between atoms: N_19  and  C_20
REMARK   12  A    between atoms: C_23  and  C_27
REMARK                            x       y       z     vdW  Elec       q    Type
REMARK                         _______ _______ _______ _____ _____    ______ ____
ROOT
ATOM      1  C   UNL     1       8.315  -0.416  -1.181  0.00  0.00    +0.356 C 
ATOM      2  O   UNL     1       8.504  -1.595  -0.951  0.00  0.00    -0.243 OA
ENDROOT
BRANCH   1   5
ATOM      3  C   UNL     1      11.439   1.151  -2.269  0.00  0.00    +0.083 A 
ATOM      4  C   UNL     1      10.710   0.022  -1.833  0.00  0.00    -0.005 A 
ATOM      5  C   UNL     1       9.423   0.430  -1.634  0.00  0.00    +0.128 A 
ATOM      6  N   UNL     1       9.345   1.774  -1.927  0.00  0.00    -0.352 N 
ATOM      7  H   UNL     1       8.544   2.317  -1.867  0.00  0.00    +0.166 HD
ATOM      8  C   UNL     1      10.554   2.214  -2.310  0.00  0.00    +0.028 A 
ATOM      9  C   UNL     1      10.891   3.626  -2.714  0.00  0.00    +0.064 C 
ATOM     10  C   UNL     1      11.251  -1.370  -1.629  0.00  0.00    +0.047 C 
BRANCH   3  11
ATOM     11  C   UNL     1      12.870   1.191  -2.610  0.00  0.00    +0.341 C 
ATOM     12  O   UNL     1      13.693   1.439  -1.751  0.00  0.00    -0.245 OA
BRANCH  11  13
ATOM     13  O   UNL     1      13.268   0.952  -3.876  0.00  0.00    -0.461 OA
BRANCH  13  15
ATOM     14  C   UNL     1      14.952   0.712  -5.619  0.00  0.00    +0.048 C 
ATOM     15  C   UNL     1      14.695   1.008  -4.139  0.00  0.00    +0.229 C 
ENDBRANCH  13  15
ENDBRANCH  11  13
ENDBRANCH   3  11
ENDBRANCH   1   5
BRANCH   1  16
ATOM     16  O   UNL     1       7.085   0.114  -1.018  0.00  0.00    -0.451 OA
BRANCH  16  17
ATOM     17  C   UNL     1       6.036  -0.782  -0.566  0.00  0.00    +0.328 C 
BRANCH  17  18
ATOM     18  C   UNL     1       4.742  -0.019  -0.442  0.00  0.00    +0.255 C 
ATOM     19  O   UNL     1       4.708   1.163  -0.709  0.00  0.00    -0.272 OA
ATOM     20  N   UNL     1       3.623  -0.651  -0.036  0.00  0.00    -0.281 N 
ATOM     21  H   UNL     1       3.665  -1.578   0.246  0.00  0.00    +0.155 HD
BRANCH  20  22
ATOM     22  C   UNL     1       2.401   0.031  -0.020  0.00  0.00    +0.062 A 
ATOM     23  C   UNL     1       1.592   0.036  -1.150  0.00  0.00    +0.040 A 
ATOM     24  C   UNL     1       0.386   0.710  -1.131  0.00  0.00    +0.020 A 
ATOM     25  C   UNL     1      -0.017   1.378   0.011  0.00  0.00    -0.048 A 
ATOM     26  C   UNL     1       0.786   1.375   1.137  0.00  0.00    +0.020 A 
ATOM     27  C   UNL     1       1.994   0.704   1.125  0.00  0.00    +0.040 A 
ATOM     28 BR   UNL     1       3.090   0.700   2.666  0.00  0.00    -0.048 Br
ATOM     29  C   UNL     1      -1.330   2.117   0.026  0.00  0.00    +0.044 C 
ATOM     30 BR   UNL     1       2.141  -0.879  -2.711  0.00  0.00    -0.048 Br
ENDBRANCH  20  22
ENDBRANCH  17  18
ENDBRANCH  16  17
ENDBRANCH   1  16
TORSDOF 8
