REMARK  Name = ZINC37266852
REMARK  17 active torsions:
REMARK  status: ('A' for Active; 'I' for Inactive)
REMARK    1  A    between atoms: C_1  and  C_2
REMARK    2  A    between atoms: C_2  and  C_3
REMARK    3  A    between atoms: C_4  and  C_23
REMARK    4  A    between atoms: C_5  and  O_14
REMARK    5  A    between atoms: N_6  and  C_8
REMARK    6  A    between atoms: O_14  and  C_15
REMARK    7  A    between atoms: C_20  and  O_21
REMARK    8  A    between atoms: O_21  and  C_22
REMARK    9  A    between atoms: C_23  and  N_24
REMARK   10  A    between atoms: N_24  and  C_25
REMARK   11  A    between atoms: N_24  and  C_29
REMARK   12  A    between atoms: C_25  and  C_26
REMARK   13  A    between atoms: C_29  and  C_30
REMARK   14  A    between atoms: C_30  and  C_32
REMARK   15  A    between atoms: C_30  and  O_35
REMARK   16  A    between atoms: C_32  and  C_33
REMARK   17  A    between atoms: C_32  and  C_34
REMARK                            x       y       z     vdW  Elec       q    Type
REMARK                         _______ _______ _______ _____ _____    ______ ____
ROOT
ATOM      1  C   UNL     1       0.587  -0.419   2.294  0.00  0.00    +0.068 A 
ATOM      2  C   UNL     1       1.841  -0.677   1.732  0.00  0.00    +0.021 A 
ATOM      3  C   UNL     1       2.605  -1.287   2.677  0.00  0.00    +0.225 A 
ATOM      4  N   UNL     1       1.847  -1.407   3.800  0.00  0.00    -0.200 N 
ATOM      5  N   UNL     1       0.591  -0.849   3.530  0.00  0.00    -0.168 NA
ENDROOT
BRANCH   4   6
ATOM      6  C   UNL     1       2.253  -1.982   5.012  0.00  0.00    +0.069 A 
ATOM      7  C   UNL     1       2.957  -3.179   5.014  0.00  0.00    +0.028 A 
ATOM      8  C   UNL     1       3.356  -3.742   6.210  0.00  0.00    +0.002 A 
ATOM      9  C   UNL     1       3.053  -3.117   7.405  0.00  0.00    +0.000 A 
ATOM     10  C   UNL     1       2.351  -1.925   7.407  0.00  0.00    +0.002 A 
ATOM     11  C   UNL     1       1.955  -1.354   6.214  0.00  0.00    +0.028 A 
ENDBRANCH   4   6
BRANCH   1  13
ATOM     12  C   UNL     1      -0.479   1.762   1.791  0.00  0.00    +0.010 C 
ATOM     13  C   UNL     1      -0.571   0.247   1.597  0.00  0.00    +0.054 C 
ENDBRANCH   1  13
BRANCH   3  14
ATOM     14  O   UNL     1       3.889  -1.701   2.527  0.00  0.00    -0.434 OA
BRANCH  14  15
ATOM     15  C   UNL     1       4.105  -2.927   1.979  0.00  0.00    +0.172 A 
ATOM     16  C   UNL     1       3.039  -3.667   1.491  0.00  0.00    +0.050 A 
ATOM     17  C   UNL     1       3.260  -4.912   0.934  0.00  0.00    +0.004 A 
ATOM     18  C   UNL     1       4.543  -5.423   0.862  0.00  0.00    +0.004 A 
ATOM     19  C   UNL     1       5.611  -4.690   1.347  0.00  0.00    +0.049 A 
ATOM     20  C   UNL     1       5.397  -3.439   1.901  0.00  0.00    +0.162 A 
BRANCH  20  21
ATOM     21  O   UNL     1       6.446  -2.714   2.373  0.00  0.00    -0.491 OA
ATOM     22  C   UNL     1       7.744  -3.302   2.260  0.00  0.00    +0.277 C 
ENDBRANCH  20  21
ENDBRANCH  14  15
ENDBRANCH   3  14
BRANCH   2  23
ATOM     23  C   UNL     1       2.270  -0.339   0.327  0.00  0.00    -0.036 C 
BRANCH  23  24
ATOM     24  N   UNL     1       2.784   1.037   0.290  0.00  0.00    +0.384 N 
ATOM     25  H   UNL     1       2.088   1.666   0.662  0.00  0.00    -0.081 HD
BRANCH  24  26
ATOM     26  C   UNL     1       3.087   1.408  -1.099  0.00  0.00    -0.075 C 
BRANCH  26  27
ATOM     27  C   UNL     1       1.803   1.368  -1.930  0.00  0.00    -0.028 C 
ATOM     28  C   UNL     1       1.729   0.347  -3.067  0.00  0.00    +0.002 C 
ATOM     29  C   UNL     1       1.887   1.835  -3.384  0.00  0.00    +0.002 C 
ENDBRANCH  26  27
ENDBRANCH  24  26
BRANCH  24  30
ATOM     30  C   UNL     1       4.007   1.125   1.098  0.00  0.00    -0.046 C 
BRANCH  30  31
ATOM     31  C   UNL     1       4.433   2.589   1.220  0.00  0.00    +0.101 C 
BRANCH  31  32
ATOM     32  C   UNL     1       5.577   2.705   2.229  0.00  0.00    +0.010 C 
ATOM     33  C   UNL     1       6.807   1.969   1.693  0.00  0.00    +0.010 C 
ATOM     34  C   UNL     1       5.921   4.181   2.443  0.00  0.00    +0.010 C 
ENDBRANCH  31  32
BRANCH  31  35
ATOM     35  O   UNL     1       4.872   3.065  -0.055  0.00  0.00    -0.393 OA
ATOM     36  H   UNL     1       5.624   2.578  -0.419  0.00  0.00    +0.210 HD
ENDBRANCH  31  35
ENDBRANCH  30  31
ENDBRANCH  24  30
ENDBRANCH  23  24
ENDBRANCH   2  23
TORSDOF 13
