REMARK  Name = ZINC06623495
REMARK  4 active torsions:
REMARK  status: ('A' for Active; 'I' for Inactive)
REMARK    1  A    between atoms: C_4  and  S_8
REMARK    2  A    between atoms: S_8  and  N_11
REMARK    3  A    between atoms: N_11  and  C_12
REMARK    4  A    between atoms: C_15  and  N_18
REMARK                            x       y       z     vdW  Elec       q    Type
REMARK                         _______ _______ _______ _____ _____    ______ ____
ROOT
ATOM      1  N   UNL     1       4.055  -1.658   1.387  0.00  0.00    -0.098 NA
ENDROOT
BRANCH   1   2
ATOM      2  C   UNL     1       5.184  -2.437   1.651  0.00  0.00    +0.074 A 
ATOM      3  C   UNL     1       6.212  -2.510   0.719  0.00  0.00    +0.029 A 
ATOM      4  C   UNL     1       7.327  -3.280   0.982  0.00  0.00    +0.030 A 
ATOM      5  C   UNL     1       7.423  -3.980   2.176  0.00  0.00    +0.069 A 
ATOM      6  C   UNL     1       6.396  -3.907   3.108  0.00  0.00    +0.030 A 
ATOM      7  C   UNL     1       5.282  -3.134   2.849  0.00  0.00    +0.029 A 
BRANCH   5   8
ATOM      8  N   UNL     1       8.557  -4.763   2.443  0.00  0.00    -0.200 N 
ATOM      9  C   UNL     1       8.802  -5.504   3.545  0.00  0.00    +0.250 A 
ATOM     10  N   UNL     1       9.970  -6.069   3.381  0.00  0.00    -0.116 NA
ATOM     11  N   UNL     1      10.480  -5.736   2.251  0.00  0.00    -0.023 NA
ATOM     12  N   UNL     1       9.680  -4.947   1.617  0.00  0.00    -0.039 NA
ENDBRANCH   5   8
ENDBRANCH   1   2
BRANCH   1  13
ATOM     13  S   UNL     1       3.938  -0.827  -0.042  0.00  0.00    +0.094 S 
ATOM     14  O   UNL     1       3.846  -1.802  -1.072  0.00  0.00    -0.148 OA
ATOM     15  O   UNL     1       4.956   0.164  -0.019  0.00  0.00    -0.148 OA
BRANCH  13  19
ATOM     16  C   UNL     1      -0.017   1.377   0.010  0.00  0.00    +0.003 A 
ATOM     17  C   UNL     1       1.171   2.086   0.002  0.00  0.00    +0.002 A 
ATOM     18  C   UNL     1       2.378   1.413  -0.013  0.00  0.00    +0.032 A 
ATOM     19  C   UNL     1       2.399   0.030  -0.021  0.00  0.00    +0.145 A 
ATOM     20  C   UNL     1       1.211  -0.679  -0.013  0.00  0.00    +0.150 A 
ATOM     21  C   UNL     1       0.002  -0.004   0.002  0.00  0.00    +0.040 A 
ATOM     22  F   UNL     1       1.230  -2.030  -0.022  0.00  0.00    -0.203 F 
ENDBRANCH  13  19
ENDBRANCH   1  13
TORSDOF 4
