REMARK  Name = ZINC02213587
REMARK  5 active torsions:
REMARK  status: ('A' for Active; 'I' for Inactive)
REMARK    1  A    between atoms: C_1  and  C_2
REMARK    2  A    between atoms: C_2  and  O_3
REMARK    3  A    between atoms: O_3  and  C_4
REMARK    4  A    between atoms: C_6  and  C_11
REMARK    5  A    between atoms: C_9  and  O_10
REMARK                            x       y       z     vdW  Elec       q    Type
REMARK                         _______ _______ _______ _____ _____    ______ ____
ROOT
ATOM      1  C   UNL     1      -1.913   5.925   0.046  0.00  0.00    +0.152 C 
ATOM      2  C   UNL     1      -1.758   7.423   0.057  0.00  0.00    +0.072 A 
ATOM      3  C   UNL     1      -2.728   8.522   0.070  0.00  0.00    +0.199 A 
ATOM      4  O   UNL     1      -3.928   8.315   0.081  0.00  0.00    -0.287 OA
ATOM      5  C   UNL     1      -2.177   9.891   0.071  0.00  0.00    +0.064 A 
ATOM      6  C   UNL     1      -3.009  11.010   0.084  0.00  0.00    +0.015 A 
ATOM      7  C   UNL     1      -2.458  12.262   0.085  0.00  0.00    +0.001 A 
ATOM      8  C   UNL     1      -1.080  12.422   0.071  0.00  0.00    +0.004 A 
ATOM      9  C   UNL     1      -0.242  11.328   0.058  0.00  0.00    +0.047 A 
ATOM     10  C   UNL     1      -0.780  10.043   0.058  0.00  0.00    +0.139 A 
ATOM     11  O   UNL     1       0.024   8.964   0.045  0.00  0.00    -0.450 OA
ATOM     12  C   UNL     1      -0.429   7.695   0.045  0.00  0.00    +0.199 A 
ATOM     13  C   UNL     1       0.310   6.409   0.032  0.00  0.00    +0.289 C 
ATOM     14  O   UNL     1       1.521   6.304   0.019  0.00  0.00    -0.266 OA
ATOM     15  N   UNL     1      -0.551   5.377   0.036  0.00  0.00    -0.232 N 
ATOM     16  C   UNL     1      -0.213   4.035   0.026  0.00  0.00    +0.169 A 
ATOM     17  N   UNL     1       0.979   3.486   0.011  0.00  0.00    -0.224 NA
ATOM     18  C   UNL     1       1.163   2.148   0.003  0.00  0.00    +0.080 A 
ATOM     19  C   UNL     1       2.384   1.435  -0.013  0.00  0.00    +0.032 A 
ATOM     20  C   UNL     1       2.394   0.064  -0.021  0.00  0.00    +0.040 A 
ATOM     21  C   UNL     1       1.215  -0.671  -0.013  0.00  0.00    +0.125 A 
ATOM     22  C   UNL     1       0.002  -0.004   0.002  0.00  0.00    +0.055 A 
ATOM     23  C   UNL     1      -0.017   1.369   0.010  0.00  0.00    +0.043 A 
ATOM     24  S   UNL     1      -1.289   2.608   0.021  0.00  0.00    -0.052 S 
ATOM     25  F   UNL     1       1.253  -2.021  -0.021  0.00  0.00    -0.205 F 
ENDROOT
BRANCH   1  28
ATOM     26  C   UNL     1      -4.659   4.722   2.345  0.00  0.00    +0.162 A 
ATOM     27  C   UNL     1      -3.986   5.143   1.209  0.00  0.00    +0.055 A 
ATOM     28  C   UNL     1      -2.645   5.472   1.283  0.00  0.00    -0.018 A 
ATOM     29  C   UNL     1      -1.976   5.393   2.490  0.00  0.00    +0.009 A 
ATOM     30  C   UNL     1      -2.643   4.979   3.628  0.00  0.00    +0.049 A 
ATOM     31  C   UNL     1      -3.986   4.643   3.560  0.00  0.00    +0.158 A 
BRANCH  31  32
ATOM     32  O   UNL     1      -4.644   4.236   4.678  0.00  0.00    -0.503 OA
ATOM     33  H   UNL     1      -5.053   4.956   5.177  0.00  0.00    +0.292 HD
ENDBRANCH  31  32
BRANCH  26  34
ATOM     34  O   UNL     1      -5.977   4.393   2.273  0.00  0.00    -0.489 OA
BRANCH  34  36
ATOM     35  C   UNL     1      -8.073   4.090   1.109  0.00  0.00    +0.048 C 
ATOM     36  C   UNL     1      -6.603   4.498   0.993  0.00  0.00    +0.226 C 
ENDBRANCH  34  36
ENDBRANCH  26  34
ENDBRANCH   1  28
TORSDOF 4
