REMARK  Name = ZINC40358776
REMARK  8 active torsions:
REMARK  status: ('A' for Active; 'I' for Inactive)
REMARK    1  A    between atoms: C_1  and  C_2
REMARK    2  A    between atoms: C_2  and  C_3
REMARK    3  A    between atoms: C_3  and  C_4
REMARK    4  A    between atoms: C_3  and  C_5
REMARK    5  A    between atoms: C_3  and  N_8
REMARK    6  A    between atoms: C_5  and  N_7
REMARK    7  A    between atoms: C_9  and  C_11
REMARK    8  A    between atoms: C_20  and  O_21
REMARK                            x       y       z     vdW  Elec       q    Type
REMARK                         _______ _______ _______ _____ _____    ______ ____
ROOT
ATOM      1  N   UNL     1      -2.142  -0.048  -1.174  0.00  0.00    -0.300 N 
ATOM      2  C   UNL     1      -1.689  -0.361  -2.404  0.00  0.00    +0.248 C 
ATOM      3  O   UNL     1      -0.692  -1.046  -2.529  0.00  0.00    -0.270 OA
ATOM      4  H   UNL     1      -2.937   0.498  -1.075  0.00  0.00    +0.150 HD
ENDROOT
BRANCH   2   5
ATOM      5  C   UNL     1      -2.401   0.127  -3.598  0.00  0.00    +0.079 A 
ATOM      6  C   UNL     1      -3.551   0.924  -3.449  0.00  0.00    +0.017 A 
ATOM      7  C   UNL     1      -4.225   1.386  -4.532  0.00  0.00    +0.009 A 
ATOM      8  C   UNL     1      -3.779   1.071  -5.830  0.00  0.00    -0.014 A 
ATOM      9  C   UNL     1      -4.463   1.541  -6.963  0.00  0.00    +0.008 A 
ATOM     10  C   UNL     1      -4.009   1.222  -8.207  0.00  0.00    +0.001 A 
ATOM     11  C   UNL     1      -2.873   0.434  -8.375  0.00  0.00    +0.001 A 
ATOM     12  C   UNL     1      -2.184  -0.039  -7.299  0.00  0.00    +0.012 A 
ATOM     13  C   UNL     1      -2.623   0.271  -6.002  0.00  0.00    +0.024 A 
ATOM     14  C   UNL     1      -1.930  -0.199  -4.867  0.00  0.00    +0.137 A 
BRANCH  14  15
ATOM     15  O   UNL     1      -0.820  -0.962  -5.010  0.00  0.00    -0.505 OA
ATOM     16  H   UNL     1      -0.998  -1.911  -5.051  0.00  0.00    +0.292 HD
ENDBRANCH  14  15
ENDBRANCH   2   5
BRANCH   1  17
ATOM     17  C   UNL     1      -1.433  -0.534   0.013  0.00  0.00    +0.076 C 
ATOM     18  C   UNL     1      -1.413  -2.063   0.004  0.00  0.00    +0.038 C 
BRANCH  17  20
ATOM     19  C   UNL     1      -0.019   1.526   0.010  0.00  0.00    +0.006 C 
ATOM     20  C   UNL     1       0.002  -0.004   0.002  0.00  0.00    +0.029 C 
ENDBRANCH  17  20
BRANCH  17  21
ATOM     21  C   UNL     1      -2.139  -0.048   1.253  0.00  0.00    +0.070 C 
ATOM     22  S   UNL     1      -3.452   0.855   1.123  0.00  0.00    -0.038 S 
BRANCH  21  23
ATOM     23  N   UNL     1      -1.662  -0.373   2.471  0.00  0.00    -0.354 N 
ATOM     24  H   UNL     1      -0.865  -0.921   2.549  0.00  0.00    +0.143 HD
ATOM     25  H   UNL     1      -2.116  -0.061   3.269  0.00  0.00    +0.143 HD
ENDBRANCH  21  23
ENDBRANCH  17  21
ENDBRANCH   1  17
TORSDOF 6
