REMARK  Name = ZINC36202570
REMARK  13 active torsions:
REMARK  status: ('A' for Active; 'I' for Inactive)
REMARK    1  A    between atoms: C_1  and  C_2
REMARK    2  A    between atoms: C_5  and  C_7
REMARK    3  A    between atoms: C_7  and  N_8
REMARK    4  A    between atoms: N_8  and  C_9
REMARK    5  A    between atoms: N_8  and  C_31
REMARK    6  A    between atoms: C_9  and  C_10
REMARK    7  A    between atoms: C_13  and  C_15
REMARK    8  A    between atoms: C_15  and  C_16
REMARK    9  A    between atoms: C_15  and  C_23
REMARK   10  A    between atoms: C_15  and  O_30
REMARK   11  A    between atoms: C_31  and  C_32
REMARK   12  A    between atoms: C_32  and  C_33
REMARK   13  A    between atoms: C_32  and  C_34
REMARK                            x       y       z     vdW  Elec       q    Type
REMARK                         _______ _______ _______ _____ _____    ______ ____
ROOT
ATOM      1  C   UNL     1       4.342  -5.100  -3.841  0.00  0.00    +0.089 A 
ATOM      2  C   UNL     1       5.145  -4.879  -4.897  0.00  0.00    +0.043 A 
ATOM      3  C   UNL     1       4.570  -5.554  -5.998  0.00  0.00    +0.048 A 
ATOM      4  C   UNL     1       3.449  -6.147  -5.548  0.00  0.00    +0.146 A 
ATOM      5  O   UNL     1       3.319  -5.873  -4.240  0.00  0.00    -0.463 OA
ENDROOT
BRANCH   1   6
ATOM      6  C   UNL     1       4.557  -4.574  -2.445  0.00  0.00    -0.003 C 
BRANCH   6   7
ATOM      7  N   UNL     1       3.893  -3.271  -2.305  0.00  0.00    +0.389 N 
ATOM      8  H   UNL     1       4.224  -2.646  -3.026  0.00  0.00    -0.081 HD
BRANCH   7   9
ATOM      9  C   UNL     1       4.202  -2.703  -0.986  0.00  0.00    -0.003 C 
BRANCH   9  14
ATOM     10  C   UNL     1       9.112  -3.253   0.032  0.00  0.00    +0.086 C 
ATOM     11  C   UNL     1       7.814  -2.658  -0.452  0.00  0.00    +0.102 A 
ATOM     12  C   UNL     1       7.671  -1.460  -1.045  0.00  0.00    +0.044 A 
ATOM     13  C   UNL     1       6.295  -1.306  -1.331  0.00  0.00    +0.043 A 
ATOM     14  C   UNL     1       5.679  -2.419  -0.894  0.00  0.00    +0.089 A 
ATOM     15  O   UNL     1       6.605  -3.237  -0.368  0.00  0.00    -0.467 OA
ENDBRANCH   9  14
ENDBRANCH   7   9
BRANCH   7  16
ATOM     16  C   UNL     1       2.441  -3.444  -2.436  0.00  0.00    -0.075 C 
BRANCH  16  17
ATOM     17  C   UNL     1       1.761  -2.074  -2.434  0.00  0.00    -0.034 C 
ATOM     18  C   UNL     1       2.181  -1.294  -3.682  0.00  0.00    +0.005 C 
ATOM     19  C   UNL     1       0.242  -2.258  -2.434  0.00  0.00    +0.005 C 
ENDBRANCH  16  17
ENDBRANCH   7  16
ENDBRANCH   6   7
ENDBRANCH   1   6
BRANCH   4  20
ATOM     20  C   UNL     1       2.503  -6.982  -6.372  0.00  0.00    +0.174 C 
BRANCH  20  21
ATOM     21  C   UNL     1       1.854  -8.020  -5.493  0.00  0.00    -0.004 A 
ATOM     22  C   UNL     1       2.084  -9.363  -5.726  0.00  0.00    +0.010 A 
ATOM     23  C   UNL     1       1.490 -10.316  -4.921  0.00  0.00    +0.039 A 
ATOM     24  C   UNL     1       0.664  -9.925  -3.880  0.00  0.00    +0.123 A 
ATOM     25  C   UNL     1       0.434  -8.580  -3.648  0.00  0.00    +0.039 A 
ATOM     26  C   UNL     1       1.034  -7.628  -4.452  0.00  0.00    +0.010 A 
ATOM     27  F   UNL     1       0.082 -10.856  -3.093  0.00  0.00    -0.205 F 
ENDBRANCH  20  21
BRANCH  20  28
ATOM     28  C   UNL     1       1.441  -6.095  -6.970  0.00  0.00    -0.004 A 
ATOM     29  C   UNL     1       0.884  -5.080  -6.215  0.00  0.00    +0.010 A 
ATOM     30  C   UNL     1      -0.090  -4.266  -6.762  0.00  0.00    +0.039 A 
ATOM     31  C   UNL     1      -0.507  -4.467  -8.067  0.00  0.00    +0.123 A 
ATOM     32  C   UNL     1       0.052  -5.484  -8.822  0.00  0.00    +0.039 A 
ATOM     33  C   UNL     1       1.029  -6.294  -8.274  0.00  0.00    +0.010 A 
ATOM     34  F   UNL     1      -1.459  -3.672  -8.603  0.00  0.00    -0.205 F 
ENDBRANCH  20  28
BRANCH  20  35
ATOM     35  O   UNL     1       3.227  -7.630  -7.420  0.00  0.00    -0.372 OA
ATOM     36  H   UNL     1       3.672  -7.021  -8.025  0.00  0.00    +0.212 HD
ENDBRANCH  20  35
ENDBRANCH   4  20
TORSDOF 10
