REMARK  Name = ZINC11858218
REMARK  9 active torsions:
REMARK  status: ('A' for Active; 'I' for Inactive)
REMARK    1  A    between atoms: C_1  and  C_2
REMARK    2  A    between atoms: N_8  and  C_11
REMARK    3  A    between atoms: C_14  and  S_17
REMARK    4  A    between atoms: S_17  and  N_20
REMARK    5  A    between atoms: N_20  and  C_21
REMARK    6  A    between atoms: C_26  and  O_27
REMARK    7  A    between atoms: O_27  and  C_28
REMARK    8  A    between atoms: C_28  and  C_29
REMARK    9  A    between atoms: C_28  and  C_30
REMARK                            x       y       z     vdW  Elec       q    Type
REMARK                         _______ _______ _______ _____ _____    ______ ____
ROOT
ATOM      1  C   UNL     1      -0.329   0.406   0.067  0.00  0.00    +0.059 A 
ATOM      2  C   UNL     1      -0.211   1.790   0.038  0.00  0.00    +0.027 A 
ATOM      3  C   UNL     1       1.041   2.374   0.021  0.00  0.00    +0.030 A 
ATOM      4  C   UNL     1       2.175   1.583   0.034  0.00  0.00    +0.109 A 
ATOM      5  C   UNL     1       2.060   0.205   0.063  0.00  0.00    +0.030 A 
ATOM      6  C   UNL     1       0.812  -0.385   0.080  0.00  0.00    +0.027 A 
ENDROOT
BRANCH   1  13
ATOM      7  C   UNL     1      -4.274  -0.984   1.910  0.00  0.00    +0.019 C 
ATOM      8  C   UNL     1      -3.988  -0.434   0.511  0.00  0.00    +0.097 C 
ATOM      9  C   UNL     1      -3.803  -1.610  -0.484  0.00  0.00    +0.201 C 
ATOM     10  S   UNL     1      -1.967  -1.730  -0.454  0.00  0.00    +0.053 S 
ATOM     11  O   UNL     1      -1.442  -1.813  -1.772  0.00  0.00    -0.155 OA
ATOM     12  O   UNL     1      -1.532  -2.611   0.573  0.00  0.00    -0.155 OA
ATOM     13  N   UNL     1      -1.595  -0.189   0.085  0.00  0.00    -0.144 N 
ATOM     14  C   UNL     1      -2.725   0.373   0.542  0.00  0.00    +0.243 C 
ATOM     15  O   UNL     1      -2.725   1.509   0.966  0.00  0.00    -0.273 OA
ENDBRANCH   1  13
BRANCH   4  16
ATOM     16  S   UNL     1       3.769   2.332   0.013  0.00  0.00    +0.072 S 
ATOM     17  O   UNL     1       3.609   3.643   0.537  0.00  0.00    -0.150 OA
ATOM     18  O   UNL     1       4.669   1.389   0.579  0.00  0.00    -0.150 OA
BRANCH  16  19
ATOM     19  N   UNL     1       4.207   2.508  -1.575  0.00  0.00    -0.213 N 
ATOM     20  H   UNL     1       5.007   2.074  -1.909  0.00  0.00    +0.174 HD
BRANCH  19  21
ATOM     21  C   UNL     1       3.420   3.283  -2.436  0.00  0.00    +0.090 A 
ATOM     22  C   UNL     1       2.790   4.425  -1.963  0.00  0.00    +0.028 A 
ATOM     23  C   UNL     1       2.014   5.189  -2.815  0.00  0.00    +0.002 A 
ATOM     24  C   UNL     1       1.864   4.817  -4.138  0.00  0.00    +0.004 A 
ATOM     25  C   UNL     1       2.489   3.680  -4.616  0.00  0.00    +0.047 A 
ATOM     26  C   UNL     1       3.273   2.913  -3.771  0.00  0.00    +0.143 A 
BRANCH  26  27
ATOM     27  O   UNL     1       3.893   1.797  -4.241  0.00  0.00    -0.487 OA
BRANCH  27  28
ATOM     28  C   UNL     1       3.730   1.502  -5.629  0.00  0.00    +0.167 C 
ATOM     29  C   UNL     1       4.737   2.315  -6.446  0.00  0.00    +0.051 C 
ATOM     30  C   UNL     1       3.971   0.009  -5.864  0.00  0.00    +0.051 C 
ENDBRANCH  27  28
ENDBRANCH  26  27
ENDBRANCH  19  21
ENDBRANCH  16  19
ENDBRANCH   4  16
TORSDOF 6
