REMARK  Name = ZINC59040502
REMARK  6 active torsions:
REMARK  status: ('A' for Active; 'I' for Inactive)
REMARK    1  A    between atoms: C_1  and  N_2
REMARK    2  A    between atoms: C_3  and  C_5
REMARK    3  A    between atoms: C_5  and  N_6
REMARK    4  A    between atoms: C_9  and  N_12
REMARK    5  A    between atoms: C_13  and  C_15
REMARK    6  A    between atoms: C_27  and  C_29
REMARK                            x       y       z     vdW  Elec       q    Type
REMARK                         _______ _______ _______ _____ _____    ______ ____
ROOT
ATOM      1  C   UNL     1      -7.268  -6.636  -1.129  0.00  0.00    +0.163 C 
ATOM      2  C   UNL     1      -7.349  -7.112   0.347  0.00  0.00    +0.037 C 
ATOM      3  C   UNL     1      -7.398  -8.639   0.182  0.00  0.00    +0.012 C 
ATOM      4  C   UNL     1      -8.075  -9.391   1.315  0.00  0.00    +0.005 C 
ATOM      5  C   UNL     1      -8.139 -10.871   0.906  0.00  0.00    +0.000 C 
ATOM      6  C   UNL     1      -8.896 -11.056  -0.405  0.00  0.00    +0.002 C 
ATOM      7  C   UNL     1      -8.296 -10.190  -1.525  0.00  0.00    +0.023 C 
ATOM      8  C   UNL     1      -8.316  -8.751  -1.065  0.00  0.00    +0.080 C 
ATOM      9  N   UNL     1      -7.817  -7.725  -1.972  0.00  0.00    -0.283 N 
ATOM     10  C   UNL     1      -7.845  -7.758  -3.319  0.00  0.00    +0.248 C 
ATOM     11  O   UNL     1      -8.233  -8.756  -3.894  0.00  0.00    -0.270 OA
ENDROOT
BRANCH  10  12
ATOM     12  C   UNL     1      -7.405  -6.580  -4.097  0.00  0.00    +0.038 A 
ATOM     13  C   UNL     1      -7.137  -5.373  -3.449  0.00  0.00    +0.013 A 
ATOM     14  C   UNL     1      -6.727  -4.277  -4.180  0.00  0.00    +0.002 A 
ATOM     15  C   UNL     1      -6.580  -4.373  -5.553  0.00  0.00    +0.020 A 
ATOM     16  C   UNL     1      -6.845  -5.567  -6.202  0.00  0.00    +0.042 A 
ATOM     17  C   UNL     1      -7.251  -6.672  -5.480  0.00  0.00    +0.033 A 
ATOM     18 CL   UNL     1      -6.658  -5.677  -7.924  0.00  0.00    -0.084 Cl
ENDBRANCH  10  12
BRANCH   1  20
ATOM     19  N   UNL     1      -5.248  -5.208  -1.148  0.00  0.00    -0.311 N 
ATOM     20  C   UNL     1      -5.834  -6.368  -1.505  0.00  0.00    +0.234 C 
ATOM     21  O   UNL     1      -5.206  -7.198  -2.129  0.00  0.00    -0.274 OA
ATOM     22  H   UNL     1      -5.751  -4.545  -0.649  0.00  0.00    +0.149 HD
BRANCH  19  26
ATOM     23  N   UNL     1      -1.304  -3.759  -0.823  0.00  0.00    +0.385 N 
ATOM     24  C   UNL     1      -2.137  -3.173  -1.880  0.00  0.00    -0.076 C 
ATOM     25  C   UNL     1      -3.614  -3.437  -1.576  0.00  0.00    +0.003 C 
ATOM     26  C   UNL     1      -3.854  -4.948  -1.514  0.00  0.00    +0.069 C 
ATOM     27  C   UNL     1      -2.926  -5.559  -0.460  0.00  0.00    +0.003 C 
ATOM     28  C   UNL     1      -1.475  -5.216  -0.805  0.00  0.00    -0.076 C 
ATOM     29  H   UNL     1      -1.579  -3.378   0.069  0.00  0.00    -0.081 HD
BRANCH  23  30
ATOM     30  C   UNL     1       0.106  -3.436  -1.078  0.00  0.00    +0.019 C 
BRANCH  30  33
ATOM     31  C   UNL     1       1.725   0.033  -1.073  0.00  0.00    +0.128 C 
ATOM     32  N   UNL     1       1.530  -1.415  -1.173  0.00  0.00    -0.320 N 
ATOM     33  C   UNL     1       0.307  -1.946  -0.976  0.00  0.00    +0.196 C 
ATOM     34  O   UNL     1      -0.633  -1.224  -0.716  0.00  0.00    -0.278 OA
ATOM     35  H   UNL     1       2.281  -1.992  -1.380  0.00  0.00    +0.148 HD
ENDBRANCH  30  33
ENDBRANCH  23  30
ENDBRANCH  19  26
ENDBRANCH   1  20
TORSDOF 5
