REMARK  Name = ZINC63000349
REMARK  8 active torsions:
REMARK  status: ('A' for Active; 'I' for Inactive)
REMARK    1  A    between atoms: C_1  and  C_2
REMARK    2  A    between atoms: C_6  and  N_22
REMARK    3  A    between atoms: C_7  and  S_8
REMARK    4  A    between atoms: S_8  and  N_11
REMARK    5  A    between atoms: N_11  and  C_12
REMARK    6  A    between atoms: C_12  and  C_14
REMARK    7  A    between atoms: C_12  and  C_16
REMARK    8  A    between atoms: C_14  and  O_15
REMARK                            x       y       z     vdW  Elec       q    Type
REMARK                         _______ _______ _______ _____ _____    ______ ____
ROOT
ATOM      1  S   UNL     1       1.519  -0.380   2.570  0.00  0.00    +0.061 S 
ATOM      2  O   UNL     1       1.976  -1.539   3.252  0.00  0.00    -0.153 OA
ATOM      3  O   UNL     1       2.398   0.655   2.151  0.00  0.00    -0.153 OA
ENDROOT
BRANCH   1  10
ATOM      4  C   UNL     1       0.922   1.353   0.165  0.00  0.00    +0.046 C 
ATOM      5  C   UNL     1       0.453  -0.076   0.076  0.00  0.00    -0.022 A 
ATOM      6  C   UNL     1      -0.200  -0.519  -1.060  0.00  0.00    +0.005 A 
ATOM      7  C   UNL     1      -0.632  -1.829  -1.146  0.00  0.00    +0.002 A 
ATOM      8  C   UNL     1      -0.413  -2.701  -0.097  0.00  0.00    +0.025 A 
ATOM      9  C   UNL     1       0.243  -2.259   1.045  0.00  0.00    +0.051 A 
ATOM     10  C   UNL     1       0.680  -0.943   1.126  0.00  0.00    +0.129 A 
BRANCH   9  11
ATOM     11  N   UNL     1       0.466  -3.138   2.108  0.00  0.00    -0.356 N 
ATOM     12  H   UNL     1       0.550  -4.090   1.941  0.00  0.00    +0.142 HD
ATOM     13  H   UNL     1       0.537  -2.796   3.013  0.00  0.00    +0.142 HD
ENDBRANCH   9  11
ENDBRANCH   1  10
BRANCH   1  14
ATOM     14  N   UNL     1       0.386   0.329   3.548  0.00  0.00    -0.180 NA
ATOM     15  H   UNL     1       0.435   1.279   3.738  0.00  0.00    +0.149 HD
BRANCH  14  16
ATOM     16  C   UNL     1      -0.690  -0.479   4.128  0.00  0.00    +0.132 C 
BRANCH  16  17
ATOM     17  C   UNL     1      -1.950   0.344   4.204  0.00  0.00    -0.027 A 
ATOM     18  C   UNL     1      -1.885   1.676   4.569  0.00  0.00    +0.005 A 
ATOM     19  C   UNL     1      -3.042   2.430   4.639  0.00  0.00    +0.000 A 
ATOM     20  C   UNL     1      -4.262   1.853   4.343  0.00  0.00    +0.000 A 
ATOM     21  C   UNL     1      -4.327   0.522   3.977  0.00  0.00    +0.000 A 
ATOM     22  C   UNL     1      -3.171  -0.232   3.903  0.00  0.00    +0.005 A 
ENDBRANCH  16  17
BRANCH  16  23
ATOM     23  C   UNL     1      -0.289  -0.929   5.534  0.00  0.00    +0.181 C 
BRANCH  23  24
ATOM     24  O   UNL     1      -0.174   0.213   6.385  0.00  0.00    -0.393 OA
ATOM     25  H   UNL     1       0.078   0.002   7.294  0.00  0.00    +0.209 HD
ENDBRANCH  23  24
ENDBRANCH  16  23
ENDBRANCH  14  16
ENDBRANCH   1  14
TORSDOF 7
