REMARK  Name = ZINC08742937
REMARK  5 active torsions:
REMARK  status: ('A' for Active; 'I' for Inactive)
REMARK    1  A    between atoms: C_1  and  C_2
REMARK    2  A    between atoms: C_5  and  C_8
REMARK    3  A    between atoms: C_8  and  N_9
REMARK    4  A    between atoms: C_18  and  C_30
REMARK    5  A    between atoms: C_31  and  O_35
REMARK                            x       y       z     vdW  Elec       q    Type
REMARK                         _______ _______ _______ _____ _____    ______ ____
ROOT
ATOM      1  N   UNL     1      -1.316  -4.782  -0.011  0.00  0.00    -0.219 N 
ATOM      2  C   UNL     1      -1.944  -5.003  -1.177  0.00  0.00    +0.240 C 
ATOM      3  O   UNL     1      -1.361  -4.780  -2.216  0.00  0.00    -0.274 OA
ATOM      4  C   UNL     1      -3.354  -5.520  -1.220  0.00  0.00    +0.143 C 
ATOM      5  C   UNL     1      -4.244  -4.523  -1.966  0.00  0.00    +0.066 C 
ATOM      6  C   UNL     1      -5.566  -5.172  -2.288  0.00  0.00    -0.007 A 
ATOM      7  C   UNL     1      -6.609  -4.361  -2.639  0.00  0.00    +0.017 A 
ATOM      8  C   UNL     1      -7.846  -4.950  -2.958  0.00  0.00    -0.001 A 
ATOM      9  C   UNL     1      -8.958  -4.174  -3.319  0.00  0.00    +0.013 A 
ATOM     10  C   UNL     1     -10.136  -4.785  -3.625  0.00  0.00    -0.050 A 
ATOM     11  C   UNL     1     -10.251  -6.173  -3.585  0.00  0.00    +0.005 A 
ATOM     12  C   UNL     1      -9.194  -6.955  -3.237  0.00  0.00    +0.026 A 
ATOM     13  C   UNL     1      -7.963  -6.361  -2.910  0.00  0.00    +0.048 A 
ATOM     14  C   UNL     1      -5.741  -6.559  -2.243  0.00  0.00    +0.103 A 
ATOM     15  N   UNL     1      -4.726  -7.427  -1.876  0.00  0.00    -0.312 N 
ATOM     16  C   UNL     1      -3.388  -6.849  -1.985  0.00  0.00    +0.099 C 
ATOM     17  C   UNL     1      -2.354  -7.803  -1.382  0.00  0.00    +0.024 C 
ATOM     18  C   UNL     1      -2.417  -9.145  -2.115  0.00  0.00    +0.003 C 
ATOM     19  C   UNL     1      -3.837  -9.709  -2.011  0.00  0.00    +0.019 C 
ATOM     20  C   UNL     1      -4.824  -8.700  -2.603  0.00  0.00    +0.107 C 
ATOM     21  C   UNL     1     -11.329  -3.950  -4.011  0.00  0.00    +0.044 C 
ATOM     22  C   UNL     1      -3.885  -5.729   0.169  0.00  0.00    +0.198 C 
ATOM     23  N   UNL     1      -3.178  -5.480   1.229  0.00  0.00    -0.131 NA
ATOM     24  C   UNL     1      -1.919  -5.021   1.164  0.00  0.00    +0.335 C 
ATOM     25  O   UNL     1      -1.311  -4.811   2.197  0.00  0.00    -0.250 OA
ATOM     26  N   UNL     1      -6.919  -7.183  -2.553  0.00  0.00    -0.343 N 
ATOM     27  H   UNL     1      -7.018  -8.205  -2.521  0.00  0.00    +0.167 HD
ENDROOT
BRANCH  22  28
ATOM     28  O   UNL     1      -5.137  -6.191   0.321  0.00  0.00    -0.496 OA
ATOM     29  H   UNL     1      -5.452  -6.315   1.226  0.00  0.00    +0.293 HD
ENDBRANCH  22  28
BRANCH   1  30
ATOM     30  C   UNL     1       0.059  -4.275  -0.021  0.00  0.00    +0.153 C 
BRANCH  30  35
ATOM     31  C   UNL     1      -0.018   1.503   0.010  0.00  0.00    +0.044 C 
ATOM     32  C   UNL     1       0.002  -0.004   0.002  0.00  0.00    -0.050 A 
ATOM     33  C   UNL     1      -0.006  -0.689  -1.199  0.00  0.00    +0.003 A 
ATOM     34  C   UNL     1       0.018  -2.071  -1.206  0.00  0.00    +0.005 A 
ATOM     35  C   UNL     1       0.039  -2.768  -0.013  0.00  0.00    -0.030 A 
ATOM     36  C   UNL     1       0.041  -2.084   1.188  0.00  0.00    +0.005 A 
ATOM     37  C   UNL     1       0.023  -0.702   1.195  0.00  0.00    +0.003 A 
ENDBRANCH  30  35
ENDBRANCH   1  30
TORSDOF 3
