REMARK  Name = ZINC03261298
REMARK  7 active torsions:
REMARK  status: ('A' for Active; 'I' for Inactive)
REMARK    1  A    between atoms: N_11  and  C_15
REMARK    2  A    between atoms: C_15  and  C_16
REMARK    3  A    between atoms: C_19  and  C_22
REMARK    4  A    between atoms: N_24  and  N_25
REMARK    5  A    between atoms: C_26  and  C_27
REMARK    6  A    between atoms: C_30  and  O_34
REMARK    7  A    between atoms: C_31  and  O_33
REMARK                            x       y       z     vdW  Elec       q    Type
REMARK                         _______ _______ _______ _____ _____    ______ ____
ROOT
ATOM      1  C   UNL     1      -0.742   1.585  -1.213  0.00  0.00    -0.028 A 
ATOM      2  C   UNL     1      -1.750   0.821  -1.773  0.00  0.00    +0.006 A 
ATOM      3  C   UNL     1      -2.425   1.275  -2.887  0.00  0.00    +0.013 A 
ATOM      4  C   UNL     1      -2.081   2.502  -3.456  0.00  0.00    +0.038 A 
ATOM      5  C   UNL     1      -1.058   3.265  -2.890  0.00  0.00    +0.013 A 
ATOM      6  C   UNL     1      -0.395   2.802  -1.772  0.00  0.00    +0.006 A 
ENDROOT
BRANCH   4   7
ATOM      7  C   UNL     1      -2.796   2.992  -4.653  0.00  0.00    +0.263 C 
ATOM      8  O   UNL     1      -2.494   4.062  -5.147  0.00  0.00    -0.268 OA
ATOM      9  N   UNL     1      -3.783   2.253  -5.198  0.00  0.00    -0.203 N 
ATOM     10  H   UNL     1      -4.024   1.400  -4.805  0.00  0.00    +0.178 HD
BRANCH   9  11
ATOM     11  N   UNL     1      -4.461   2.718  -6.333  0.00  0.00    -0.187 NA
ATOM     12  C   UNL     1      -5.411   2.006  -6.858  0.00  0.00    +0.138 C 
BRANCH  12  13
ATOM     13  C   UNL     1      -6.125   2.495  -8.052  0.00  0.00    -0.002 A 
ATOM     14  C   UNL     1      -5.783   3.726  -8.617  0.00  0.00    +0.013 A 
ATOM     15  C   UNL     1      -6.447   4.178  -9.737  0.00  0.00    +0.050 A 
ATOM     16  C   UNL     1      -7.463   3.419 -10.299  0.00  0.00    +0.158 A 
ATOM     17  C   UNL     1      -7.813   2.193  -9.738  0.00  0.00    +0.159 A 
ATOM     18  C   UNL     1      -7.148   1.730  -8.618  0.00  0.00    +0.058 A 
BRANCH  17  19
ATOM     19  O   UNL     1      -8.810   1.451 -10.291  0.00  0.00    -0.503 OA
ATOM     20  H   UNL     1      -9.688   1.642  -9.933  0.00  0.00    +0.292 HD
ENDBRANCH  17  19
BRANCH  16  21
ATOM     21  O   UNL     1      -8.119   3.872 -11.400  0.00  0.00    -0.503 OA
ATOM     22  H   UNL     1      -8.898   4.409 -11.201  0.00  0.00    +0.292 HD
ENDBRANCH  16  21
ENDBRANCH  12  13
ENDBRANCH   9  11
ENDBRANCH   4   7
BRANCH   1  23
ATOM     23  C   UNL     1      -0.013   1.086   0.008  0.00  0.00    +0.166 C 
BRANCH  23  34
ATOM     24  C   UNL     1      -3.538  -0.671   2.247  0.00  0.00    +0.002 A 
ATOM     25  C   UNL     1      -3.989  -0.022   3.359  0.00  0.00    +0.009 A 
ATOM     26  C   UNL     1      -3.344   1.159   3.762  0.00  0.00    -0.014 A 
ATOM     27  C   UNL     1      -3.731   1.900   4.891  0.00  0.00    +0.009 A 
ATOM     28  C   UNL     1      -3.055   3.038   5.218  0.00  0.00    +0.003 A 
ATOM     29  C   UNL     1      -1.975   3.490   4.449  0.00  0.00    +0.029 A 
ATOM     30  C   UNL     1      -1.587   2.795   3.364  0.00  0.00    +0.118 A 
ATOM     31  C   UNL     1      -2.254   1.621   2.995  0.00  0.00    +0.031 A 
ATOM     32  C   UNL     1      -1.793   0.960   1.859  0.00  0.00    +0.061 A 
ATOM     33  C   UNL     1      -2.465  -0.207   1.497  0.00  0.00    +0.025 A 
ATOM     34  N   UNL     1      -0.698   1.558   1.213  0.00  0.00    -0.198 N 
ATOM     35  S   UNL     1      -0.337   2.924   2.117  0.00  0.00    +0.076 S 
ATOM     36  O   UNL     1       0.923   2.711   2.739  0.00  0.00    -0.150 OA
ATOM     37  O   UNL     1      -0.637   4.062   1.322  0.00  0.00    -0.150 OA
ENDBRANCH  23  34
ENDBRANCH   1  23
TORSDOF 7
