REMARK  Name = ZINC09512489
REMARK  8 active torsions:
REMARK  status: ('A' for Active; 'I' for Inactive)
REMARK    1  A    between atoms: C_1  and  C_2
REMARK    2  A    between atoms: C_3  and  C_35
REMARK    3  A    between atoms: N_4  and  C_29
REMARK    4  A    between atoms: C_5  and  N_9
REMARK    5  A    between atoms: C_6  and  C_7
REMARK    6  A    between atoms: C_10  and  C_12
REMARK    7  A    between atoms: C_12  and  N_69
REMARK    8  A    between atoms: C_15  and  N_18
REMARK                            x       y       z     vdW  Elec       q    Type
REMARK                         _______ _______ _______ _____ _____    ______ ____
ROOT
ATOM      1  N   UNL     1      -6.843   7.121   1.151  0.00  0.00    -0.272 N 
ATOM      2  C   UNL     1      -6.526   5.879   0.734  0.00  0.00    +0.202 C 
ATOM      3  O   UNL     1      -6.974   4.912   1.312  0.00  0.00    -0.278 OA
ATOM      4  H   UNL     1      -6.501   7.894   0.676  0.00  0.00    +0.156 HD
ENDROOT
BRANCH   1   9
ATOM      5  C   UNL     1      -8.964   6.684   5.718  0.00  0.00    +0.047 C 
ATOM      6  C   UNL     1      -8.639   7.121   4.312  0.00  0.00    -0.011 A 
ATOM      7  C   UNL     1      -9.268   8.072   3.603  0.00  0.00    +0.022 A 
ATOM      8  N   UNL     1      -8.679   8.182   2.371  0.00  0.00    -0.329 N 
ATOM      9  C   UNL     1      -7.659   7.292   2.260  0.00  0.00    +0.123 A 
ATOM     10  C   UNL     1      -7.574   6.589   3.453  0.00  0.00    +0.095 A 
ATOM     11  C   UNL     1     -10.434   8.894   4.088  0.00  0.00    +0.064 C 
BRANCH   8  12
ATOM     12  C   UNL     1      -9.092   9.120   1.325  0.00  0.00    +0.089 C 
ATOM     13  C   UNL     1      -9.441   8.345   0.053  0.00  0.00    +0.025 C 
ATOM     14  C   UNL     1      -9.872   9.325  -1.040  0.00  0.00    +0.002 C 
ATOM     15  C   UNL     1      -8.728  10.297  -1.333  0.00  0.00    +0.000 C 
ATOM     16  C   UNL     1      -8.378  11.072  -0.062  0.00  0.00    +0.002 C 
ATOM     17  C   UNL     1      -7.947  10.092   1.031  0.00  0.00    +0.025 C 
ENDBRANCH   8  12
BRANCH  10  18
ATOM     18  C   UNL     1      -6.639   5.555   3.780  0.00  0.00    +0.103 C 
ATOM     19  N   UNL     1      -5.897   4.734   4.039  0.00  0.00    -0.191 NA
ENDBRANCH  10  18
ENDBRANCH   1   9
BRANCH   2  20
ATOM     20  C   UNL     1      -5.614   5.693  -0.452  0.00  0.00    +0.019 C 
BRANCH  20  26
ATOM     21  C   UNL     1      -4.946   4.056  -2.105  0.00  0.00    -0.076 C 
ATOM     22  C   UNL     1      -4.976   2.565  -2.449  0.00  0.00    +0.006 C 
ATOM     23  C   UNL     1      -4.153   1.791  -1.415  0.00  0.00    +0.089 C 
ATOM     24  C   UNL     1      -4.718   2.061  -0.017  0.00  0.00    +0.006 C 
ATOM     25  C   UNL     1      -4.697   3.567   0.255  0.00  0.00    -0.076 C 
ATOM     26  N   UNL     1      -5.527   4.250  -0.760  0.00  0.00    +0.386 N 
ATOM     27  H   UNL     1      -6.471   3.848  -0.743  0.00  0.00    -0.081 HD
BRANCH  23  28
ATOM     28  N   UNL     1      -4.226   0.357  -1.704  0.00  0.00    -0.289 N 
ATOM     29  C   UNL     1      -3.144  -0.472  -1.991  0.00  0.00    +0.070 A 
ATOM     30  C   UNL     1      -1.778  -0.256  -2.086  0.00  0.00    +0.028 A 
ATOM     31  C   UNL     1      -0.935  -1.308  -2.388  0.00  0.00    +0.002 A 
ATOM     32  C   UNL     1      -1.448  -2.576  -2.596  0.00  0.00    +0.002 A 
ATOM     33  C   UNL     1      -2.808  -2.801  -2.503  0.00  0.00    +0.028 A 
ATOM     34  C   UNL     1      -3.662  -1.752  -2.201  0.00  0.00    +0.067 A 
ATOM     35  N   UNL     1      -5.042  -1.659  -2.041  0.00  0.00    -0.306 N 
ATOM     36  H   UNL     1      -5.674  -2.390  -2.126  0.00  0.00    +0.170 HD
ATOM     37  C   UNL     1      -5.350  -0.382  -1.747  0.00  0.00    +0.328 A 
ATOM     38  O   UNL     1      -6.474   0.040  -1.545  0.00  0.00    -0.247 OA
ENDBRANCH  23  28
ENDBRANCH  20  26
ENDBRANCH   2  20
TORSDOF 6
