REMARK  Name = ZINC18172570
REMARK  10 active torsions:
REMARK  status: ('A' for Active; 'I' for Inactive)
REMARK    1  A    between atoms: C_1  and  C_2
REMARK    2  A    between atoms: C_2  and  C_3
REMARK    3  A    between atoms: C_3  and  C_4
REMARK    4  A    between atoms: C_4  and  C_5
REMARK    5  A    between atoms: C_5  and  C_6
REMARK    6  A    between atoms: C_18  and  C_20
REMARK    7  A    between atoms: C_23  and  O_26
REMARK    8  A    between atoms: O_26  and  C_27
REMARK    9  A    between atoms: C_31  and  C_34
REMARK   10  A    between atoms: C_37  and  C_40
REMARK                            x       y       z     vdW  Elec       q    Type
REMARK                         _______ _______ _______ _____ _____    ______ ____
ROOT
ATOM      1  C   UNL     1       5.760   0.594  -0.084  0.00  0.00    +0.221 C 
ATOM      2  O   UNL     1       5.759   1.040  -1.211  0.00  0.00    -0.275 OA
ATOM      3  N   UNL     1       4.820   0.988   0.798  0.00  0.00    -0.258 N 
ATOM      4  C   UNL     1       4.833   0.467   2.093  0.00  0.00    +0.058 A 
ATOM      5  C   UNL     1       5.873   0.730   2.970  0.00  0.00    +0.025 A 
ATOM      6  C   UNL     1       5.819   0.230   4.259  0.00  0.00    +0.002 A 
ATOM      7  C   UNL     1       4.736  -0.524   4.673  0.00  0.00    +0.002 A 
ATOM      8  C   UNL     1       3.703  -0.802   3.794  0.00  0.00    +0.025 A 
ATOM      9  C   UNL     1       3.766  -0.320   2.498  0.00  0.00    +0.053 A 
ATOM     10  N   UNL     1       2.818  -0.651   1.537  0.00  0.00    -0.316 N 
ATOM     11  C   UNL     1       2.004   0.238   0.914  0.00  0.00    +0.017 C 
ATOM     12  C   UNL     1       2.404   1.403   0.379  0.00  0.00    +0.037 C 
ATOM     13  C   UNL     1       3.814   1.944   0.387  0.00  0.00    +0.147 C 
ATOM     14  C   UNL     1       1.473   2.243  -0.277  0.00  0.00    +0.163 C 
ATOM     15  O   UNL     1       1.860   3.301  -0.734  0.00  0.00    -0.292 OA
ATOM     16  C   UNL     1       0.028   1.876  -0.429  0.00  0.00    +0.088 C 
ATOM     17  C   UNL     1      -0.091   0.347  -0.435  0.00  0.00    +0.032 C 
ATOM     18  C   UNL     1       0.542  -0.173   0.854  0.00  0.00    +0.059 C 
ATOM     19  H   UNL     1       2.733  -1.586   1.294  0.00  0.00    +0.152 HD
ENDROOT
BRANCH  17  20
ATOM     20  C   UNL     1      -1.543  -0.052  -0.489  0.00  0.00    -0.043 A 
ATOM     21  C   UNL     1      -2.405   0.337   0.519  0.00  0.00    +0.004 A 
ATOM     22  C   UNL     1      -3.738  -0.026   0.467  0.00  0.00    +0.003 A 
ATOM     23  C   UNL     1      -4.207  -0.784  -0.590  0.00  0.00    -0.050 A 
ATOM     24  C   UNL     1      -3.344  -1.177  -1.595  0.00  0.00    +0.003 A 
ATOM     25  C   UNL     1      -2.012  -0.811  -1.545  0.00  0.00    +0.004 A 
ATOM     26  C   UNL     1      -5.660  -1.182  -0.645  0.00  0.00    +0.044 C 
ENDBRANCH  17  20
BRANCH  13  27
ATOM     27  C   UNL     1       3.869   3.123   1.324  0.00  0.00    -0.022 A 
ATOM     28  C   UNL     1       4.172   4.380   0.834  0.00  0.00    +0.009 A 
ATOM     29  C   UNL     1       4.217   5.464   1.690  0.00  0.00    +0.046 A 
ATOM     30  C   UNL     1       3.968   5.288   3.044  0.00  0.00    +0.120 A 
ATOM     31  C   UNL     1       3.669   4.025   3.533  0.00  0.00    +0.046 A 
ATOM     32  C   UNL     1       3.620   2.946   2.672  0.00  0.00    +0.009 A 
BRANCH  30  33
ATOM     33  O   UNL     1       4.017   6.352   3.889  0.00  0.00    -0.495 OA
ATOM     34  C   UNL     1       4.331   7.622   3.315  0.00  0.00    +0.277 C 
ENDBRANCH  30  33
ENDBRANCH  13  27
BRANCH   1  35
ATOM     35  C   UNL     1       6.814  -0.401   0.332  0.00  0.00    +0.096 C 
BRANCH  35  36
ATOM     36  C   UNL     1       7.750  -0.674  -0.847  0.00  0.00    +0.009 C 
BRANCH  36  37
ATOM     37  C   UNL     1       8.819  -1.684  -0.425  0.00  0.00    +0.000 C 
BRANCH  37  39
ATOM     38  C   UNL     1      10.824  -2.968  -1.183  0.00  0.00    +0.004 C 
ATOM     39  C   UNL     1       9.755  -1.958  -1.604  0.00  0.00    -0.003 C 
ENDBRANCH  37  39
ENDBRANCH  36  37
ENDBRANCH  35  36
ENDBRANCH   1  35
TORSDOF 7
