REMARK  Name = ZINC36031691
REMARK  13 active torsions:
REMARK  status: ('A' for Active; 'I' for Inactive)
REMARK    1  A    between atoms: C_1  and  C_2
REMARK    2  A    between atoms: C_5  and  C_33
REMARK    3  A    between atoms: C_6  and  C_8
REMARK    4  A    between atoms: C_8  and  N_9
REMARK    5  A    between atoms: N_9  and  C_10
REMARK    6  A    between atoms: N_9  and  C_20
REMARK    7  A    between atoms: C_10  and  C_11
REMARK    8  A    between atoms: C_20  and  C_21
REMARK    9  A    between atoms: C_21  and  C_23
REMARK   10  A    between atoms: C_21  and  O_32
REMARK   11  A    between atoms: C_23  and  O_24
REMARK   12  A    between atoms: O_24  and  C_25
REMARK   13  A    between atoms: C_30  and  C_31
REMARK                            x       y       z     vdW  Elec       q    Type
REMARK                         _______ _______ _______ _____ _____    ______ ____
ROOT
ATOM      1  N   UNL     1       2.299  -4.771   2.483  0.00  0.00    +0.387 N 
ATOM      2  H   UNL     1       2.672  -5.406   1.793  0.00  0.00    -0.081 HD
ENDROOT
BRANCH   1   3
ATOM      3  C   UNL     1       0.831  -4.803   2.433  0.00  0.00    -0.042 C 
BRANCH   3   9
ATOM      4  C   UNL     1      -0.577  -4.377   7.216  0.00  0.00    +0.044 C 
ATOM      5  C   UNL     1      -0.402  -3.770   5.848  0.00  0.00    -0.050 A 
ATOM      6  C   UNL     1      -0.754  -2.451   5.627  0.00  0.00    +0.003 A 
ATOM      7  C   UNL     1      -0.594  -1.894   4.373  0.00  0.00    +0.004 A 
ATOM      8  C   UNL     1      -0.081  -2.655   3.339  0.00  0.00    -0.049 A 
ATOM      9  C   UNL     1       0.272  -3.973   3.560  0.00  0.00    -0.061 A 
ATOM     10  C   UNL     1       0.116  -4.529   4.816  0.00  0.00    +0.005 A 
ATOM     11  C   UNL     1       0.093  -2.048   1.971  0.00  0.00    +0.044 C 
ENDBRANCH   3   9
ENDBRANCH   1   3
BRANCH   1  12
ATOM     12  C   UNL     1       2.769  -3.409   2.199  0.00  0.00    -0.042 C 
BRANCH  12  13
ATOM     13  C   UNL     1       2.867  -3.211   0.709  0.00  0.00    -0.060 A 
ATOM     14  C   UNL     1       3.409  -4.205  -0.085  0.00  0.00    +0.005 A 
ATOM     15  C   UNL     1       3.501  -4.029  -1.453  0.00  0.00    +0.050 A 
ATOM     16  C   UNL     1       3.050  -2.854  -2.032  0.00  0.00    +0.166 A 
ATOM     17  C   UNL     1       2.505  -1.852  -1.233  0.00  0.00    +0.166 A 
ATOM     18  C   UNL     1       2.411  -2.038   0.137  0.00  0.00    +0.051 A 
ATOM     19  O   UNL     1       2.140  -0.807  -2.031  0.00  0.00    -0.453 OA
ATOM     20  C   UNL     1       2.840  -1.010  -3.274  0.00  0.00    +0.466 C 
ATOM     21  O   UNL     1       3.027  -2.436  -3.332  0.00  0.00    -0.453 OA
ENDBRANCH  12  13
ENDBRANCH   1  12
BRANCH   1  22
ATOM     22  C   UNL     1       2.752  -5.178   3.820  0.00  0.00    -0.043 C 
BRANCH  22  23
ATOM     23  C   UNL     1       2.818  -6.705   3.893  0.00  0.00    +0.135 C 
BRANCH  23  24
ATOM     24  O   UNL     1       1.521  -7.250   3.646  0.00  0.00    -0.390 OA
ATOM     25  H   UNL     1       0.845  -6.958   4.274  0.00  0.00    +0.210 HD
ENDBRANCH  23  24
BRANCH  23  26
ATOM     26  C   UNL     1       3.293  -7.128   5.285  0.00  0.00    +0.258 C 
BRANCH  26  27
ATOM     27  O   UNL     1       3.466  -8.546   5.318  0.00  0.00    -0.489 OA
BRANCH  27  28
ATOM     28  C   UNL     1       3.888  -9.089   6.490  0.00  0.00    +0.124 A 
ATOM     29  C   UNL     1       4.124  -8.274   7.588  0.00  0.00    +0.046 A 
ATOM     30  C   UNL     1       4.551  -8.828   8.779  0.00  0.00    +0.004 A 
ATOM     31  C   UNL     1       4.744 -10.194   8.877  0.00  0.00    +0.000 A 
ATOM     32  C   UNL     1       4.510 -11.008   7.785  0.00  0.00    +0.007 A 
ATOM     33  C   UNL     1       4.077 -10.459   6.593  0.00  0.00    -0.009 A 
ATOM     34  C   UNL     1       3.816 -11.348   5.405  0.00  0.00    +0.047 C 
ENDBRANCH  27  28
ENDBRANCH  26  27
ENDBRANCH  23  26
ENDBRANCH  22  23
ENDBRANCH   1  22
TORSDOF 10
