REMARK  Name = ZINC36206362
REMARK  15 active torsions:
REMARK  status: ('A' for Active; 'I' for Inactive)
REMARK    1  A    between atoms: C_1  and  C_2
REMARK    2  A    between atoms: C_2  and  C_3
REMARK    3  A    between atoms: C_2  and  N_4
REMARK    4  A    between atoms: N_4  and  C_5
REMARK    5  A    between atoms: N_4  and  C_25
REMARK    6  A    between atoms: C_5  and  C_6
REMARK    7  A    between atoms: C_12  and  C_17
REMARK    8  A    between atoms: C_21  and  O_23
REMARK    9  A    between atoms: O_23  and  C_24
REMARK   10  A    between atoms: C_25  and  C_26
REMARK   11  A    between atoms: C_26  and  C_28
REMARK   12  A    between atoms: C_26  and  O_37
REMARK   13  A    between atoms: C_28  and  O_29
REMARK   14  A    between atoms: O_29  and  C_30
REMARK   15  A    between atoms: C_30  and  C_31
REMARK                            x       y       z     vdW  Elec       q    Type
REMARK                         _______ _______ _______ _____ _____    ______ ____
ROOT
ATOM      1  C   UNL     1      -2.197  -0.035  -0.848  0.00  0.00    -0.003 C 
ENDROOT
BRANCH   1   2
ATOM      2  C   UNL     1      -2.560   1.407  -0.607  0.00  0.00    +0.094 A 
ATOM      3  N   UNL     1      -3.321   2.066  -1.519  0.00  0.00    -0.312 N 
ATOM      4  H   UNL     1      -3.620   1.598  -2.315  0.00  0.00    +0.170 HD
ATOM      5  C   UNL     1      -3.668   3.354  -1.341  0.00  0.00    +0.260 A 
ATOM      6  O   UNL     1      -4.351   3.930  -2.169  0.00  0.00    -0.267 OA
ATOM      7  C   UNL     1      -3.223   4.036  -0.164  0.00  0.00    +0.080 A 
ATOM      8  C   UNL     1      -3.463   5.412   0.251  0.00  0.00    +0.004 A 
ATOM      9  C   UNL     1      -2.934   5.842   1.422  0.00  0.00    +0.056 A 
ATOM     10  S   UNL     1      -2.074   4.407   2.037  0.00  0.00    -0.076 S 
ATOM     11  C   UNL     1      -2.442   3.275   0.721  0.00  0.00    +0.116 A 
ATOM     12  N   UNL     1      -2.143   2.001   0.479  0.00  0.00    -0.229 NA
BRANCH   8  13
ATOM     13  C   UNL     1      -4.272   6.325  -0.592  0.00  0.00    -0.013 A 
ATOM     14  C   UNL     1      -3.994   6.451  -1.952  0.00  0.00    +0.009 A 
ATOM     15  C   UNL     1      -4.748   7.301  -2.735  0.00  0.00    +0.004 A 
ATOM     16  C   UNL     1      -5.780   8.030  -2.174  0.00  0.00    +0.045 A 
ATOM     17  C   UNL     1      -6.064   7.911  -0.820  0.00  0.00    +0.121 A 
ATOM     18  C   UNL     1      -5.316   7.055  -0.028  0.00  0.00    +0.054 A 
BRANCH  17  19
ATOM     19  O   UNL     1      -7.079   8.630  -0.273  0.00  0.00    -0.495 OA
ATOM     20  C   UNL     1      -7.813   9.488  -1.150  0.00  0.00    +0.277 C 
ENDBRANCH  17  19
ENDBRANCH   8  13
ENDBRANCH   1   2
BRANCH   1  21
ATOM     21  N   UNL     1      -1.247  -0.479   0.180  0.00  0.00    +0.388 N 
ATOM     22  H   UNL     1      -1.494  -0.067   1.067  0.00  0.00    -0.081 HD
BRANCH  21  24
ATOM     23  C   UNL     1       0.492  -0.701  -1.530  0.00  0.00    -0.014 C 
ATOM     24  C   UNL     1       0.111  -0.061  -0.193  0.00  0.00    -0.074 C 
ATOM     25  C   UNL     1       0.157   1.463  -0.326  0.00  0.00    -0.014 C 
ENDBRANCH  21  24
BRANCH  21  26
ATOM     26  C   UNL     1      -1.295  -1.943   0.291  0.00  0.00    -0.044 C 
BRANCH  26  27
ATOM     27  C   UNL     1      -0.400  -2.397   1.446  0.00  0.00    +0.124 C 
BRANCH  27  28
ATOM     28  O   UNL     1      -0.863  -1.813   2.666  0.00  0.00    -0.391 OA
ATOM     29  H   UNL     1      -1.771  -2.053   2.897  0.00  0.00    +0.210 HD
ENDBRANCH  27  28
BRANCH  27  30
ATOM     30  C   UNL     1      -0.448  -3.922   1.561  0.00  0.00    +0.189 C 
BRANCH  30  31
ATOM     31  O   UNL     1       0.476  -4.354   2.562  0.00  0.00    -0.373 OA
BRANCH  31  32
ATOM     32  C   UNL     1       0.509  -5.770   2.749  0.00  0.00    +0.195 C 
BRANCH  32  33
ATOM     33  C   UNL     1       1.512  -6.111   3.822  0.00  0.00    -0.022 A 
ATOM     34  C   UNL     1       2.830  -6.351   3.485  0.00  0.00    +0.006 A 
ATOM     35  C   UNL     1       3.749  -6.664   4.468  0.00  0.00    +0.000 A 
ATOM     36  C   UNL     1       3.350  -6.737   5.790  0.00  0.00    +0.000 A 
ATOM     37  C   UNL     1       2.031  -6.495   6.127  0.00  0.00    +0.000 A 
ATOM     38  C   UNL     1       1.113  -6.178   5.144  0.00  0.00    +0.006 A 
ENDBRANCH  32  33
ENDBRANCH  31  32
ENDBRANCH  30  31
ENDBRANCH  27  30
ENDBRANCH  26  27
ENDBRANCH  21  26
ENDBRANCH   1  21
TORSDOF 12
