REMARK  Name = ZINC13988857
REMARK  7 active torsions:
REMARK  status: ('A' for Active; 'I' for Inactive)
REMARK    1  A    between atoms: C_1  and  C_2
REMARK    2  A    between atoms: C_5  and  C_33
REMARK    3  A    between atoms: C_6  and  N_8
REMARK    4  A    between atoms: C_9  and  C_11
REMARK    5  A    between atoms: C_11  and  C_12
REMARK    6  A    between atoms: C_12  and  C_13
REMARK    7  A    between atoms: N_15  and  N_16
REMARK                            x       y       z     vdW  Elec       q    Type
REMARK                         _______ _______ _______ _____ _____    ______ ____
ROOT
ATOM      1  C   UNL     1       5.952   5.790  -0.263  0.00  0.00    +0.230 C 
ATOM      2  O   UNL     1       6.926   5.300   0.267  0.00  0.00    -0.274 OA
ATOM      3  N   UNL     1       4.737   5.233  -0.089  0.00  0.00    -0.233 N 
ATOM      4  H   UNL     1       3.949   5.666  -0.451  0.00  0.00    +0.173 HD
ENDROOT
BRANCH   3   5
ATOM      5  N   UNL     1       4.614   4.028   0.615  0.00  0.00    -0.217 N 
ATOM      6  C   UNL     1       3.393   3.552   0.928  0.00  0.00    +0.327 C 
ATOM      7  O   UNL     1       3.279   2.449   1.426  0.00  0.00    -0.250 OA
ATOM      8  N   UNL     1       2.297   4.300   0.690  0.00  0.00    -0.221 N 
ATOM      9  C   UNL     1       2.443   5.679   0.490  0.00  0.00    +0.057 A 
ATOM     10  C   UNL     1       3.375   6.396   1.223  0.00  0.00    +0.025 A 
ATOM     11  C   UNL     1       3.513   7.758   1.023  0.00  0.00    +0.002 A 
ATOM     12  C   UNL     1       2.721   8.414   0.099  0.00  0.00    +0.001 A 
ATOM     13  C   UNL     1       1.791   7.706  -0.644  0.00  0.00    +0.017 A 
ATOM     14  C   UNL     1       1.650   6.344  -0.448  0.00  0.00    +0.035 A 
ATOM     15  S   UNL     1       0.469   5.416  -1.375  0.00  0.00    -0.086 S 
ATOM     16  C   UNL     1       0.078   4.094  -0.272  0.00  0.00    +0.035 A 
ATOM     17  C   UNL     1       1.043   3.676   0.647  0.00  0.00    +0.057 A 
ATOM     18  C   UNL     1       0.748   2.639   1.518  0.00  0.00    +0.025 A 
ATOM     19  C   UNL     1      -0.493   2.028   1.471  0.00  0.00    +0.002 A 
ATOM     20  C   UNL     1      -1.444   2.445   0.559  0.00  0.00    +0.001 A 
ATOM     21  C   UNL     1      -1.160   3.480  -0.316  0.00  0.00    +0.017 A 
ATOM     22  H   UNL     1       5.408   3.536   0.877  0.00  0.00    +0.174 HD
ENDBRANCH   3   5
BRANCH   1  23
ATOM     23  C   UNL     1       6.100   7.023  -1.117  0.00  0.00    +0.106 C 
BRANCH  23  24
ATOM     24  C   UNL     1       7.582   7.375  -1.253  0.00  0.00    +0.105 C 
BRANCH  24  26
ATOM     25  N   UNL     1       8.956   9.107  -2.364  0.00  0.00    -0.285 N 
ATOM     26  C   UNL     1       7.730   8.608  -2.106  0.00  0.00    +0.218 C 
ATOM     27  O   UNL     1       6.746   9.152  -2.561  0.00  0.00    -0.275 OA
ATOM     28  H   UNL     1       9.745   8.640  -2.049  0.00  0.00    +0.155 HD
BRANCH  25  34
ATOM     29  C   UNL     1       7.149  12.290  -5.647  0.00  0.00    +0.044 C 
ATOM     30  C   UNL     1       8.228  11.864  -4.684  0.00  0.00    -0.049 A 
ATOM     31  C   UNL     1       9.352  12.652  -4.516  0.00  0.00    +0.004 A 
ATOM     32  C   UNL     1      10.345  12.265  -3.634  0.00  0.00    +0.005 A 
ATOM     33  C   UNL     1      10.216  11.090  -2.920  0.00  0.00    -0.029 A 
ATOM     34  C   UNL     1       9.089  10.297  -3.087  0.00  0.00    +0.037 A 
ATOM     35  C   UNL     1       8.096  10.686  -3.977  0.00  0.00    +0.027 A 
ATOM     36  C   UNL     1      11.299  10.669  -1.960  0.00  0.00    +0.045 C 
ENDBRANCH  25  34
ENDBRANCH  24  26
ENDBRANCH  23  24
ENDBRANCH   1  23
TORSDOF 5
