REMARK  Name = ZINC16945482
REMARK  7 active torsions:
REMARK  status: ('A' for Active; 'I' for Inactive)
REMARK    1  A    between atoms: C_1  and  C_2
REMARK    2  A    between atoms: C_3  and  C_34
REMARK    3  A    between atoms: N_9  and  C_29
REMARK    4  A    between atoms: C_10  and  S_12
REMARK    5  A    between atoms: S_12  and  C_13
REMARK    6  A    between atoms: C_13  and  C_15
REMARK    7  A    between atoms: C_13  and  C_16
REMARK                            x       y       z     vdW  Elec       q    Type
REMARK                         _______ _______ _______ _____ _____    ______ ____
ROOT
ATOM      1  C   UNL     1     -10.410   0.117   3.150  0.00  0.00    +0.045 C 
ATOM      2  C   UNL     1      -8.980  -0.116   2.736  0.00  0.00    -0.026 A 
ATOM      3  C   UNL     1      -8.566  -1.344   2.390  0.00  0.00    -0.008 A 
ATOM      4  S   UNL     1      -6.845  -1.104   1.993  0.00  0.00    -0.073 S 
ATOM      5  C   UNL     1      -6.731   0.639   2.304  0.00  0.00    +0.117 A 
ATOM      6  C   UNL     1      -8.034   0.986   2.707  0.00  0.00    +0.075 A 
ATOM      7  C   UNL     1      -8.240   2.365   3.029  0.00  0.00    +0.263 A 
ATOM      8  O   UNL     1      -9.336   2.758   3.388  0.00  0.00    -0.267 OA
ATOM      9  N   UNL     1      -7.207   3.221   2.931  0.00  0.00    -0.284 N 
ATOM     10  C   UNL     1      -5.972   2.799   2.531  0.00  0.00    +0.174 A 
ATOM     11  N   UNL     1      -5.756   1.537   2.223  0.00  0.00    -0.216 NA
ATOM     12  C   UNL     1      -9.365  -2.621   2.346  0.00  0.00    +0.052 C 
ENDROOT
BRANCH   9  13
ATOM     13  C   UNL     1      -7.412   4.634   3.259  0.00  0.00    +0.093 C 
ATOM     14  C   UNL     1      -7.924   4.771   4.708  0.00  0.00    +0.025 C 
ATOM     15  C   UNL     1      -8.938   5.941   4.643  0.00  0.00    +0.002 C 
ATOM     16  C   UNL     1      -9.633   5.716   3.276  0.00  0.00    +0.002 C 
ATOM     17  C   UNL     1      -8.497   5.235   2.349  0.00  0.00    +0.025 C 
ENDBRANCH   9  13
BRANCH  10  18
ATOM     18  S   UNL     1      -4.651   3.960   2.418  0.00  0.00    -0.075 S 
BRANCH  18  19
ATOM     19  C   UNL     1      -3.319   2.867   1.862  0.00  0.00    +0.137 C 
ATOM     20  C   UNL     1      -3.009   1.844   2.957  0.00  0.00    +0.029 C 
BRANCH  19  21
ATOM     21  C   UNL     1      -2.086   3.684   1.574  0.00  0.00    +0.233 C 
ATOM     22  O   UNL     1      -1.925   4.753   2.125  0.00  0.00    -0.274 OA
ATOM     23  N   UNL     1      -1.163   3.228   0.706  0.00  0.00    -0.260 N 
ATOM     24  C   UNL     1      -1.335   1.935   0.019  0.00  0.00    +0.209 C 
ATOM     25  C   UNL     1      -0.014   1.209   0.009  0.00  0.00    +0.235 C 
ATOM     26  O   UNL     1       0.002  -0.004   0.002  0.00  0.00    -0.274 OA
ATOM     27  N   UNL     1       1.147   1.890   0.001  0.00  0.00    -0.283 N 
ATOM     28  C   UNL     1       1.157   3.288   0.058  0.00  0.00    +0.055 A 
ATOM     29  C   UNL     1      -0.006   3.970   0.421  0.00  0.00    +0.058 A 
ATOM     30  C   UNL     1      -0.009   5.351   0.488  0.00  0.00    +0.025 A 
ATOM     31  C   UNL     1       1.144   6.056   0.190  0.00  0.00    +0.002 A 
ATOM     32  C   UNL     1       2.295   5.383  -0.173  0.00  0.00    +0.002 A 
ATOM     33  C   UNL     1       2.306   4.001  -0.240  0.00  0.00    +0.025 A 
ATOM     34  H   UNL     1       1.987   1.406  -0.044  0.00  0.00    +0.155 HD
ENDBRANCH  19  21
ENDBRANCH  18  19
ENDBRANCH  10  18
TORSDOF 4
