REMARK  Name = ZINC11491749
REMARK  9 active torsions:
REMARK  status: ('A' for Active; 'I' for Inactive)
REMARK    1  A    between atoms: C_1  and  C_2
REMARK    2  A    between atoms: C_5  and  C_13
REMARK    3  A    between atoms: C_7  and  N_8
REMARK    4  A    between atoms: C_13  and  O_15
REMARK    5  A    between atoms: O_15  and  C_16
REMARK    6  A    between atoms: C_16  and  C_18
REMARK    7  A    between atoms: C_16  and  C_19
REMARK    8  A    between atoms: N_21  and  C_22
REMARK    9  A    between atoms: C_25  and  N_29
REMARK                            x       y       z     vdW  Elec       q    Type
REMARK                         _______ _______ _______ _____ _____    ______ ____
ROOT
ATOM      1  C   UNL     1       2.455   0.805   0.111  0.00  0.00    +0.259 C 
ATOM      2  C   UNL     1       2.458   0.008   1.417  0.00  0.00    +0.062 C 
ENDROOT
BRANCH   1   3
ATOM      3  C   UNL     1       1.179   1.599   0.010  0.00  0.00    +0.258 C 
ATOM      4  O   UNL     1       1.222   2.809  -0.069  0.00  0.00    -0.271 OA
ATOM      5  N   UNL     1      -0.011   0.966   0.007  0.00  0.00    -0.281 N 
ATOM      6  H   UNL     1      -0.044  -0.003  -0.013  0.00  0.00    +0.155 HD
BRANCH   5   7
ATOM      7  C   UNL     1      -1.198   1.707   0.028  0.00  0.00    +0.052 A 
ATOM      8  C   UNL     1      -1.208   2.992   0.553  0.00  0.00    +0.027 A 
ATOM      9  C   UNL     1      -2.381   3.720   0.572  0.00  0.00    +0.034 A 
ATOM     10  C   UNL     1      -3.546   3.172   0.069  0.00  0.00    +0.128 A 
ATOM     11  C   UNL     1      -3.541   1.892  -0.455  0.00  0.00    +0.054 A 
ATOM     12  C   UNL     1      -2.369   1.160  -0.483  0.00  0.00    +0.064 A 
ATOM     13 CL   UNL     1      -2.362  -0.444  -1.147  0.00  0.00    -0.082 Cl
BRANCH  10  14
ATOM     14  N   UNL     1      -4.801   3.956   0.090  0.00  0.00    +0.056 N 
ATOM     15  O   UNL     1      -4.807   5.083   0.551  0.00  0.00    -0.126 OA
ATOM     16  O   UNL     1      -5.828   3.474  -0.353  0.00  0.00    -0.126 OA
ENDBRANCH  10  14
ENDBRANCH   5   7
ENDBRANCH   1   3
BRANCH   1  17
ATOM     17  O   UNL     1       3.591   1.709   0.093  0.00  0.00    -0.449 OA
BRANCH  17  18
ATOM     18  C   UNL     1       4.738   1.240  -0.434  0.00  0.00    +0.340 C 
ATOM     19  O   UNL     1       4.788   0.106  -0.868  0.00  0.00    -0.245 OA
BRANCH  18  24
ATOM     20  C   UNL     1       9.397   4.618  -0.629  0.00  0.00    +0.046 C 
ATOM     21  C   UNL     1       8.178   3.733  -0.579  0.00  0.00    -0.027 A 
ATOM     22  C   UNL     1       7.000   4.213  -0.038  0.00  0.00    +0.006 A 
ATOM     23  C   UNL     1       5.879   3.410   0.006  0.00  0.00    +0.015 A 
ATOM     24  C   UNL     1       5.935   2.104  -0.486  0.00  0.00    +0.061 A 
ATOM     25  C   UNL     1       7.125   1.621  -1.031  0.00  0.00    +0.041 A 
ATOM     26  C   UNL     1       8.243   2.437  -1.076  0.00  0.00    +0.050 A 
BRANCH  26  27
ATOM     27  N   UNL     1       9.441   1.956  -1.624  0.00  0.00    -0.323 N 
ATOM     28  C   UNL     1      10.195   2.589  -2.571  0.00  0.00    +0.091 A 
ATOM     29  C   UNL     1      11.268   1.818  -2.839  0.00  0.00    +0.019 A 
ATOM     30  C   UNL     1      11.171   0.663  -2.036  0.00  0.00    +0.019 A 
ATOM     31  C   UNL     1      10.045   0.774  -1.303  0.00  0.00    +0.091 A 
ENDBRANCH  26  27
ENDBRANCH  18  24
ENDBRANCH  17  18
ENDBRANCH   1  17
TORSDOF 7
