REMARK  Name = ZINC35667442
REMARK  9 active torsions:
REMARK  status: ('A' for Active; 'I' for Inactive)
REMARK    1  A    between atoms: C_1  and  C_2
REMARK    2  A    between atoms: C_2  and  N_3
REMARK    3  A    between atoms: N_3  and  C_4
REMARK    4  A    between atoms: C_4  and  C_5
REMARK    5  A    between atoms: C_5  and  N_7
REMARK    6  A    between atoms: C_10  and  C_21
REMARK    7  A    between atoms: N_12  and  C_13
REMARK    8  A    between atoms: C_16  and  C_20
REMARK    9  A    between atoms: C_17  and  C_19
REMARK                            x       y       z     vdW  Elec       q    Type
REMARK                         _______ _______ _______ _____ _____    ______ ____
ROOT
ATOM      1  N   UNL     1       1.552  -3.735  -2.673  0.00  0.00    -0.148 NA
ATOM      2  C   UNL     1       2.176  -4.165  -3.770  0.00  0.00    +0.205 A 
ATOM      3  N   UNL     1       2.721  -3.382  -4.737  0.00  0.00    -0.326 N 
ATOM      4  C   UNL     1       3.272  -4.217  -5.701  0.00  0.00    +0.066 A 
ATOM      5  C   UNL     1       3.060  -5.488  -5.316  0.00  0.00    +0.120 A 
ATOM      6  N   UNL     1       2.384  -5.465  -4.113  0.00  0.00    -0.287 N 
ATOM      7  H   UNL     1       2.724  -2.412  -4.752  0.00  0.00    +0.169 HD
ENDROOT
BRANCH   6   8
ATOM      8  C   UNL     1       1.979  -6.584  -3.376  0.00  0.00    +0.049 A 
ATOM      9  C   UNL     1       1.295  -6.419  -2.179  0.00  0.00    +0.026 A 
ATOM     10  C   UNL     1       0.897  -7.525  -1.454  0.00  0.00    +0.005 A 
ATOM     11  C   UNL     1       1.179  -8.797  -1.919  0.00  0.00    -0.047 A 
ATOM     12  C   UNL     1       1.860  -8.965  -3.111  0.00  0.00    -0.046 A 
ATOM     13  C   UNL     1       2.256  -7.862  -3.843  0.00  0.00    +0.029 A 
ATOM     14  C   UNL     1       2.166 -10.352  -3.614  0.00  0.00    +0.044 C 
ATOM     15  C   UNL     1       0.744 -10.002  -1.126  0.00  0.00    +0.044 C 
ENDBRANCH   6   8
BRANCH   4  16
ATOM     16  C   UNL     1       3.968  -3.785  -6.932  0.00  0.00    -0.000 A 
ATOM     17  C   UNL     1       4.471  -4.734  -7.823  0.00  0.00    +0.011 A 
ATOM     18  C   UNL     1       5.120  -4.324  -8.969  0.00  0.00    +0.020 A 
ATOM     19  C   UNL     1       5.272  -2.975  -9.237  0.00  0.00    +0.041 A 
ATOM     20  C   UNL     1       4.776  -2.028  -8.357  0.00  0.00    +0.020 A 
ATOM     21  C   UNL     1       4.120  -2.426  -7.210  0.00  0.00    +0.011 A 
ATOM     22 CL   UNL     1       6.090  -2.467 -10.682  0.00  0.00    -0.084 Cl
ENDBRANCH   4  16
BRANCH   1  23
ATOM     23  C   UNL     1       1.415  -2.433  -2.455  0.00  0.00    +0.222 C 
ATOM     24  O   UNL     1       1.859  -1.632  -3.255  0.00  0.00    -0.276 OA
BRANCH  23  25
ATOM     25  C   UNL     1       0.710  -1.947  -1.215  0.00  0.00    +0.017 C 
BRANCH  25  26
ATOM     26  N   UNL     1       0.690  -0.478  -1.207  0.00  0.00    +0.385 N 
ATOM     27  H   UNL     1       0.202  -0.144  -2.024  0.00  0.00    -0.085 HD
ATOM     28  H   UNL     1       1.636  -0.129  -1.214  0.00  0.00    -0.085 HD
BRANCH  26  30
ATOM     29  C   UNL     1      -0.019   1.526   0.010  0.00  0.00    -0.017 C 
ATOM     30  C   UNL     1       0.002  -0.004   0.002  0.00  0.00    -0.085 C 
ENDBRANCH  26  30
ENDBRANCH  25  26
ENDBRANCH  23  25
ENDBRANCH   1  23
TORSDOF 6
