REMARK  Name = ZINC10200675
REMARK  6 active torsions:
REMARK  status: ('A' for Active; 'I' for Inactive)
REMARK    1  A    between atoms: C_1  and  C_2
REMARK    2  A    between atoms: C_5  and  C_31
REMARK    3  A    between atoms: C_10  and  C_12
REMARK    4  A    between atoms: C_12  and  S_13
REMARK    5  A    between atoms: S_13  and  C_14
REMARK    6  A    between atoms: N_18  and  C_19
REMARK                            x       y       z     vdW  Elec       q    Type
REMARK                         _______ _______ _______ _____ _____    ______ ____
ROOT
ATOM      1  C   UNL     1       5.882  -2.444   1.853  0.00  0.00    +0.198 A 
ATOM      2  N   UNL     1       6.009  -1.180   1.530  0.00  0.00    -0.120 NA
ATOM      3  N   UNL     1       7.376  -0.877   1.493  0.00  0.00    -0.112 NA
ATOM      4  C   UNL     1       8.042  -1.964   1.794  0.00  0.00    +0.225 A 
ATOM      5  N   UNL     1       7.137  -2.963   2.030  0.00  0.00    -0.259 N 
ATOM      6  N   UNL     1       9.425  -2.082   1.865  0.00  0.00    -0.299 N 
ATOM      7  C   UNL     1      10.055  -3.393   2.066  0.00  0.00    +0.108 C 
ATOM      8  C   UNL     1      11.090  -3.618   0.959  0.00  0.00    +0.019 C 
ATOM      9  C   UNL     1      12.072  -2.445   0.939  0.00  0.00    +0.003 C 
ATOM     10  C   UNL     1      11.316  -1.149   0.638  0.00  0.00    +0.019 C 
ATOM     11  C   UNL     1      10.284  -0.897   1.736  0.00  0.00    +0.108 C 
ENDROOT
BRANCH   5  12
ATOM     12  C   UNL     1       7.441  -4.285   2.387  0.00  0.00    +0.052 A 
ATOM     13  C   UNL     1       7.905  -4.571   3.664  0.00  0.00    +0.026 A 
ATOM     14  C   UNL     1       8.203  -5.874   4.013  0.00  0.00    +0.002 A 
ATOM     15  C   UNL     1       8.039  -6.892   3.092  0.00  0.00    +0.000 A 
ATOM     16  C   UNL     1       7.577  -6.610   1.820  0.00  0.00    +0.002 A 
ATOM     17  C   UNL     1       7.272  -5.310   1.467  0.00  0.00    +0.026 A 
ENDBRANCH   5  12
BRANCH   1  18
ATOM     18  S   UNL     1       4.364  -3.320   2.034  0.00  0.00    -0.076 S 
BRANCH  18  19
ATOM     19  C   UNL     1       3.094  -2.078   1.666  0.00  0.00    +0.173 C 
BRANCH  19  27
ATOM     20  C   UNL     1      -0.053   1.183  -0.434  0.00  0.00    +0.009 C 
ATOM     21  C   UNL     1      -0.046  -0.311  -0.107  0.00  0.00    +0.004 C 
ATOM     22  C   UNL     1      -1.484  -0.801   0.075  0.00  0.00    +0.009 C 
ATOM     23  C   UNL     1      -1.480  -2.303   0.370  0.00  0.00    +0.004 C 
ATOM     24  C   UNL     1      -0.712  -2.562   1.670  0.00  0.00    +0.111 C 
ATOM     25  N   UNL     1       0.626  -1.965   1.557  0.00  0.00    -0.300 N 
ATOM     26  C   UNL     1       0.739  -0.547   1.187  0.00  0.00    +0.111 C 
ATOM     27  C   UNL     1       1.729  -2.704   1.787  0.00  0.00    +0.226 C 
ATOM     28  O   UNL     1       1.623  -3.873   2.091  0.00  0.00    -0.275 OA
ATOM     29  C   UNL     1      -0.800  -3.047  -0.781  0.00  0.00    +0.009 C 
ENDBRANCH  19  27
ENDBRANCH  18  19
ENDBRANCH   1  18
TORSDOF 4
