REMARK  Name = ZINC65074858
REMARK  10 active torsions:
REMARK  status: ('A' for Active; 'I' for Inactive)
REMARK    1  A    between atoms: C_1  and  C_2
REMARK    2  A    between atoms: C_2  and  C_3
REMARK    3  A    between atoms: C_2  and  C_4
REMARK    4  A    between atoms: C_4  and  C_5
REMARK    5  A    between atoms: C_8  and  S_11
REMARK    6  A    between atoms: S_11  and  N_14
REMARK    7  A    between atoms: N_25  and  C_26
REMARK    8  A    between atoms: C_26  and  C_27
REMARK    9  A    between atoms: C_30  and  O_33
REMARK   10  A    between atoms: O_33  and  C_34
REMARK                            x       y       z     vdW  Elec       q    Type
REMARK                         _______ _______ _______ _____ _____    ______ ____
ROOT
ATOM      1  N   UNL     1       6.736   2.003   0.355  0.00  0.00    -0.176 NA
ATOM      2  C   UNL     1       6.539   3.458   0.413  0.00  0.00    +0.111 C 
ATOM      3  C   UNL     1       5.553   3.777   1.541  0.00  0.00    +0.047 C 
ATOM      4  C   UNL     1       6.061   3.162   2.847  0.00  0.00    +0.075 C 
ATOM      5  C   UNL     1       6.143   1.640   2.694  0.00  0.00    +0.047 C 
ATOM      6  C   UNL     1       7.130   1.295   1.581  0.00  0.00    +0.111 C 
ATOM      7  C   UNL     1       5.116   3.504   3.964  0.00  0.00    +0.089 C 
ATOM      8  N   UNL     1       5.500   3.886   5.123  0.00  0.00    -0.374 N 
ATOM      9  C   UNL     1       6.899   4.046   5.503  0.00  0.00    +0.129 C 
ATOM     10  C   UNL     1       7.800   3.309   4.509  0.00  0.00    +0.102 C 
ATOM     11  N   UNL     1       7.400   3.692   3.144  0.00  0.00    -0.303 NA
ATOM     12  N   UNL     1       3.771   3.401   3.728  0.00  0.00    -0.329 N 
ATOM     13  H   UNL     1       8.075   3.371   2.466  0.00  0.00    +0.123 HD
ATOM     14  H   UNL     1       3.451   3.115   2.858  0.00  0.00    +0.147 HD
ATOM     15  H   UNL     1       4.821   4.080   5.788  0.00  0.00    +0.161 HD
ENDROOT
BRANCH   1  16
ATOM     16  S   UNL     1       6.512   1.176  -1.062  0.00  0.00    +0.061 S 
ATOM     17  O   UNL     1       7.276  -0.018  -0.961  0.00  0.00    -0.153 OA
ATOM     18  O   UNL     1       6.699   2.114  -2.113  0.00  0.00    -0.153 OA
BRANCH  16  22
ATOM     19  C   UNL     1       2.165  -0.079  -1.208  0.00  0.00    -0.047 A 
ATOM     20  C   UNL     1       2.551   1.137  -1.739  0.00  0.00    +0.005 A 
ATOM     21  C   UNL     1       3.879   1.521  -1.694  0.00  0.00    +0.029 A 
ATOM     22  C   UNL     1       4.820   0.688  -1.118  0.00  0.00    +0.105 A 
ATOM     23  C   UNL     1       4.434  -0.528  -0.587  0.00  0.00    +0.029 A 
ATOM     24  C   UNL     1       3.106  -0.910  -0.627  0.00  0.00    +0.005 A 
BRANCH  19  25
ATOM     25  C   UNL     1       0.718  -0.497  -1.257  0.00  0.00    +0.038 C 
BRANCH  25  27
ATOM     26  C   UNL     1      -0.019   1.526   0.010  0.00  0.00    +0.007 C 
ATOM     27  C   UNL     1       0.002  -0.004   0.002  0.00  0.00    -0.013 C 
ATOM     28  C   UNL     1      -1.433  -0.534   0.013  0.00  0.00    +0.007 C 
ENDBRANCH  25  27
ENDBRANCH  19  25
ENDBRANCH  16  22
ENDBRANCH   1  16
BRANCH  12  29
ATOM     29  C   UNL     1       2.814   3.725   4.790  0.00  0.00    +0.138 C 
BRANCH  29  30
ATOM     30  C   UNL     1       1.410   3.533   4.277  0.00  0.00    -0.030 A 
ATOM     31  C   UNL     1       0.747   4.582   3.669  0.00  0.00    +0.009 A 
ATOM     32  C   UNL     1      -0.540   4.408   3.198  0.00  0.00    +0.046 A 
ATOM     33  C   UNL     1      -1.167   3.179   3.335  0.00  0.00    +0.120 A 
ATOM     34  C   UNL     1      -0.499   2.126   3.945  0.00  0.00    +0.046 A 
ATOM     35  C   UNL     1       0.790   2.304   4.410  0.00  0.00    +0.009 A 
BRANCH  33  36
ATOM     36  O   UNL     1      -2.433   3.005   2.873  0.00  0.00    -0.495 OA
ATOM     37  C   UNL     1      -3.016   1.712   3.049  0.00  0.00    +0.277 C 
ENDBRANCH  33  36
ENDBRANCH  29  30
ENDBRANCH  12  29
TORSDOF 7
