REMARK  Name = ZINC66848057
REMARK  4 active torsions:
REMARK  status: ('A' for Active; 'I' for Inactive)
REMARK    1  A    between atoms: C_1  and  C_2
REMARK    2  A    between atoms: C_2  and  C_4
REMARK    3  A    between atoms: C_2  and  N_18
REMARK    4  A    between atoms: C_22  and  C_25
REMARK                            x       y       z     vdW  Elec       q    Type
REMARK                         _______ _______ _______ _____ _____    ______ ____
ROOT
ATOM      1  C   UNL     1       0.337   1.489   0.242  0.00  0.00    +0.034 C 
ATOM      2  C   UNL     1       0.035   0.005   0.024  0.00  0.00    +0.140 C 
ENDROOT
BRANCH   2   3
ATOM      3  C   UNL     1       0.628  -0.800   1.152  0.00  0.00    +0.233 C 
ATOM      4  O   UNL     1       1.712  -1.326   1.017  0.00  0.00    -0.274 OA
ATOM      5  N   UNL     1      -0.048  -0.935   2.311  0.00  0.00    -0.297 N 
ATOM      6  C   UNL     1      -1.315  -0.223   2.525  0.00  0.00    +0.126 C 
ATOM      7  C   UNL     1      -2.396  -1.246   2.896  0.00  0.00    +0.125 C 
ATOM      8  N   UNL     1      -1.877  -2.108   3.968  0.00  0.00    -0.314 N 
ATOM      9  C   UNL     1      -0.610  -2.820   3.753  0.00  0.00    +0.125 C 
ATOM     10  C   UNL     1       0.468  -1.801   3.380  0.00  0.00    +0.126 C 
ATOM     11  C   UNL     1      -2.574  -2.247   5.162  0.00  0.00    +0.099 A 
ATOM     12  C   UNL     1      -3.836  -1.677   5.295  0.00  0.00    +0.042 A 
ATOM     13  C   UNL     1      -4.518  -1.823   6.490  0.00  0.00    +0.005 A 
ATOM     14  C   UNL     1      -3.912  -2.537   7.516  0.00  0.00    +0.018 A 
ATOM     15  C   UNL     1      -2.657  -3.076   7.315  0.00  0.00    +0.084 A 
ATOM     16  N   UNL     1      -2.032  -2.925   6.162  0.00  0.00    -0.350 N 
ATOM     17  H   UNL     1      -1.153  -3.318   6.046  0.00  0.00    +0.166 HD
ENDBRANCH   2   3
BRANCH   2  18
ATOM     18  N   UNL     1       0.622  -0.432  -1.250  0.00  0.00    -0.287 NA
ATOM     19  C   UNL     1       2.027  -0.012  -1.355  0.00  0.00    +0.113 C 
ATOM     20  C   UNL     1       2.615  -0.537  -2.667  0.00  0.00    +0.176 C 
ATOM     21  O   UNL     1       1.825  -0.064  -3.761  0.00  0.00    -0.369 OA
ATOM     22  C   UNL     1       0.451  -0.456  -3.691  0.00  0.00    +0.162 C 
ATOM     23  C   UNL     1      -0.159   0.071  -2.390  0.00  0.00    +0.121 C 
BRANCH  22  24
ATOM     24  C   UNL     1      -0.296   0.119  -4.867  0.00  0.00    -0.015 A 
ATOM     25  C   UNL     1       0.050   1.361  -5.365  0.00  0.00    +0.006 A 
ATOM     26  C   UNL     1      -0.635   1.890  -6.444  0.00  0.00    +0.003 A 
ATOM     27  C   UNL     1      -1.667   1.177  -7.024  0.00  0.00    +0.038 A 
ATOM     28  C   UNL     1      -2.014  -0.067  -6.526  0.00  0.00    +0.124 A 
ATOM     29  C   UNL     1      -1.323  -0.598  -5.450  0.00  0.00    +0.044 A 
ATOM     30  F   UNL     1      -3.023  -0.765  -7.093  0.00  0.00    -0.205 F 
ENDBRANCH  22  24
ENDBRANCH   2  18
TORSDOF 3
