REMARK  Name = ZINC35778926
REMARK  18 active torsions:
REMARK  status: ('A' for Active; 'I' for Inactive)
REMARK    1  A    between atoms: C_1  and  C_2
REMARK    2  A    between atoms: C_6  and  O_8
REMARK    3  A    between atoms: O_8  and  C_9
REMARK    4  A    between atoms: C_9  and  C_10
REMARK    5  A    between atoms: C_20  and  C_22
REMARK    6  A    between atoms: C_22  and  N_23
REMARK    7  A    between atoms: N_23  and  C_24
REMARK    8  A    between atoms: N_23  and  C_34
REMARK    9  A    between atoms: C_24  and  C_25
REMARK   10  A    between atoms: C_25  and  C_27
REMARK   11  A    between atoms: C_25  and  O_33
REMARK   12  A    between atoms: C_27  and  O_28
REMARK   13  A    between atoms: O_28  and  C_29
REMARK   14  A    between atoms: C_29  and  C_30
REMARK   15  A    between atoms: C_30  and  C_31
REMARK   16  A    between atoms: C_30  and  C_32
REMARK   17  A    between atoms: C_34  and  C_35
REMARK   18  A    between atoms: C_34  and  C_36
REMARK                            x       y       z     vdW  Elec       q    Type
REMARK                         _______ _______ _______ _____ _____    ______ ____
ROOT
ATOM      1  C   UNL     1      -0.355  -4.893   2.907  0.00  0.00    +0.144 C 
ATOM      2  C   UNL     1       0.960  -4.439   3.539  0.00  0.00    -0.014 A 
ATOM      3  C   UNL     1       2.209  -4.870   3.094  0.00  0.00    +0.013 A 
ATOM      4  C   UNL     1       3.333  -4.423   3.699  0.00  0.00    +0.046 A 
ATOM      5  S   UNL     1       2.669  -3.345   4.960  0.00  0.00    -0.101 S 
ATOM      6  C   UNL     1       0.950  -3.573   4.588  0.00  0.00    -0.004 A 
ATOM      7  C   UNL     1      -0.235  -2.965   5.265  0.00  0.00    +0.061 C 
ATOM      8  C   UNL     1      -1.463  -3.135   4.357  0.00  0.00    +0.113 C 
ATOM      9  N   UNL     1      -1.447  -4.501   3.809  0.00  0.00    -0.292 N 
ATOM     10  C   UNL     1      -2.418  -5.379   4.129  0.00  0.00    +0.200 C 
ATOM     11  O   UNL     1      -2.395  -6.502   3.671  0.00  0.00    -0.278 OA
ENDROOT
BRANCH   1  12
ATOM     12  C   UNL     1      -0.538  -4.216   1.547  0.00  0.00    +0.256 C 
BRANCH  12  13
ATOM     13  O   UNL     1      -0.426  -2.800   1.702  0.00  0.00    -0.490 OA
BRANCH  13  19
ATOM     14  C   UNL     1      -0.506   1.605  -0.400  0.00  0.00    +0.044 C 
ATOM     15  C   UNL     1      -0.610   0.104  -0.483  0.00  0.00    -0.047 A 
ATOM     16  C   UNL     1      -0.847  -0.506  -1.702  0.00  0.00    +0.003 A 
ATOM     17  C   UNL     1      -0.943  -1.883  -1.781  0.00  0.00    +0.004 A 
ATOM     18  C   UNL     1      -0.803  -2.653  -0.643  0.00  0.00    +0.045 A 
ATOM     19  C   UNL     1      -0.565  -2.044   0.581  0.00  0.00    +0.121 A 
ATOM     20  C   UNL     1      -0.463  -0.662   0.657  0.00  0.00    +0.049 A 
ENDBRANCH  13  19
ENDBRANCH  12  13
ENDBRANCH   1  12
BRANCH  10  21
ATOM     21  C   UNL     1      -3.533  -4.965   5.054  0.00  0.00    +0.019 C 
BRANCH  21  22
ATOM     22  N   UNL     1      -4.349  -6.138   5.393  0.00  0.00    +0.389 N 
ATOM     23  H   UNL     1      -4.428  -6.738   4.586  0.00  0.00    -0.081 HD
BRANCH  22  24
ATOM     24  C   UNL     1      -3.711  -6.878   6.491  0.00  0.00    -0.074 C 
ATOM     25  C   UNL     1      -2.310  -7.319   6.063  0.00  0.00    -0.014 C 
ATOM     26  C   UNL     1      -3.608  -5.974   7.722  0.00  0.00    -0.014 C 
ENDBRANCH  22  24
BRANCH  22  27
ATOM     27  C   UNL     1      -5.687  -5.700   5.810  0.00  0.00    -0.044 C 
BRANCH  27  28
ATOM     28  C   UNL     1      -6.583  -6.923   6.017  0.00  0.00    +0.124 C 
BRANCH  28  29
ATOM     29  O   UNL     1      -6.688  -7.649   4.790  0.00  0.00    -0.391 OA
ATOM     30  H   UNL     1      -7.067  -7.138   4.062  0.00  0.00    +0.210 HD
ENDBRANCH  28  29
BRANCH  28  31
ATOM     31  C   UNL     1      -7.975  -6.467   6.460  0.00  0.00    +0.189 C 
BRANCH  31  32
ATOM     32  O   UNL     1      -8.776  -7.610   6.765  0.00  0.00    -0.377 OA
BRANCH  32  33
ATOM     33  C   UNL     1     -10.102  -7.293   7.192  0.00  0.00    +0.163 C 
BRANCH  33  34
ATOM     34  C   UNL     1     -10.865  -8.586   7.489  0.00  0.00    +0.009 C 
ATOM     35  C   UNL     1     -10.217  -9.299   8.677  0.00  0.00    +0.009 C 
ATOM     36  C   UNL     1     -12.320  -8.254   7.825  0.00  0.00    +0.009 C 
ENDBRANCH  33  34
ENDBRANCH  32  33
ENDBRANCH  31  32
ENDBRANCH  28  31
ENDBRANCH  27  28
ENDBRANCH  22  27
ENDBRANCH  21  22
ENDBRANCH  10  21
TORSDOF 13
