REMARK  Name = ZINC10513032
REMARK  10 active torsions:
REMARK  status: ('A' for Active; 'I' for Inactive)
REMARK    1  A    between atoms: C_1  and  C_2
REMARK    2  A    between atoms: C_2  and  C_3
REMARK    3  A    between atoms: C_3  and  C_4
REMARK    4  A    between atoms: C_4  and  N_5
REMARK    5  A    between atoms: N_5  and  C_6
REMARK    6  A    between atoms: C_9  and  S_22
REMARK    7  A    between atoms: C_11  and  N_12
REMARK    8  A    between atoms: N_12  and  S_13
REMARK    9  A    between atoms: S_13  and  C_16
REMARK   10  A    between atoms: S_22  and  N_25
REMARK                            x       y       z     vdW  Elec       q    Type
REMARK                         _______ _______ _______ _____ _____    ______ ____
ROOT
ATOM      1  C   UNL     1       1.200  -0.877  -0.280  0.00  0.00    +0.050 A 
ATOM      2  C   UNL     1       2.428  -0.258  -0.458  0.00  0.00    +0.027 A 
ATOM      3  C   UNL     1       2.504   1.121  -0.527  0.00  0.00    +0.030 A 
ATOM      4  C   UNL     1       1.358   1.886  -0.419  0.00  0.00    +0.107 A 
ATOM      5  C   UNL     1       0.129   1.278  -0.241  0.00  0.00    +0.055 A 
ATOM      6  C   UNL     1       0.044  -0.104  -0.171  0.00  0.00    +0.071 A 
ENDROOT
BRANCH   4   7
ATOM      7  S   UNL     1       1.463   3.643  -0.509  0.00  0.00    +0.061 S 
ATOM      8  O   UNL     1       2.654   3.942  -1.224  0.00  0.00    -0.153 OA
ATOM      9  O   UNL     1       0.187   4.106  -0.927  0.00  0.00    -0.153 OA
BRANCH   7  10
ATOM     10  N   UNL     1       1.686   4.199   1.035  0.00  0.00    -0.172 NA
ATOM     11  C   UNL     1       0.538   4.542   1.890  0.00  0.00    +0.137 C 
ATOM     12  C   UNL     1       0.716   3.828   3.239  0.00  0.00    +0.177 C 
ATOM     13  O   UNL     1       2.010   4.132   3.764  0.00  0.00    -0.377 OA
ATOM     14  C   UNL     1       3.093   3.670   2.953  0.00  0.00    +0.177 C 
ATOM     15  C   UNL     1       3.038   4.371   1.591  0.00  0.00    +0.137 C 
ENDBRANCH   7  10
ENDBRANCH   4   7
BRANCH   1  16
ATOM     16  N   UNL     1       1.120  -2.273  -0.209  0.00  0.00    -0.342 N 
ATOM     17  H   UNL     1       0.261  -2.704  -0.084  0.00  0.00    +0.146 HD
BRANCH  16  18
ATOM     18  C   UNL     1       2.336  -3.083  -0.323  0.00  0.00    +0.101 C 
BRANCH  18  19
ATOM     19  C   UNL     1       1.974  -4.565  -0.214  0.00  0.00    +0.018 C 
BRANCH  19  21
ATOM     20  C   UNL     1       2.881  -6.893  -0.224  0.00  0.00    +0.004 C 
ATOM     21  C   UNL     1       3.244  -5.410  -0.333  0.00  0.00    -0.002 C 
ENDBRANCH  19  21
ENDBRANCH  18  19
ENDBRANCH  16  18
ENDBRANCH   1  16
BRANCH   6  22
ATOM     22  N   UNL     1      -1.200  -0.723   0.010  0.00  0.00    -0.214 N 
ATOM     23  H   UNL     1      -1.267  -1.529   0.545  0.00  0.00    +0.174 HD
BRANCH  22  24
ATOM     24  S   UNL     1      -2.555  -0.078  -0.690  0.00  0.00    +0.079 S 
ATOM     25  O   UNL     1      -3.614  -0.991  -0.441  0.00  0.00    -0.149 OA
ATOM     26  O   UNL     1      -2.612   1.284  -0.286  0.00  0.00    -0.149 OA
BRANCH  24  27
ATOM     27  C   UNL     1      -2.290  -0.076  -2.432  0.00  0.00    +0.147 A 
ATOM     28  C   UNL     1      -2.586  -1.036  -3.341  0.00  0.00    +0.038 A 
ATOM     29  C   UNL     1      -2.285  -0.815  -4.673  0.00  0.00    +0.030 A 
ATOM     30  C   UNL     1      -1.703   0.357  -5.029  0.00  0.00    +0.080 A 
ATOM     31  S   UNL     1      -1.570   1.196  -3.458  0.00  0.00    -0.057 S 
ATOM     32 CL   UNL     1      -1.220   0.903  -6.604  0.00  0.00    -0.076 Cl
ENDBRANCH  24  27
ENDBRANCH  22  24
ENDBRANCH   6  22
TORSDOF 9
