REMARK  Name = ZINC43253763
REMARK  6 active torsions:
REMARK  status: ('A' for Active; 'I' for Inactive)
REMARK    1  A    between atoms: C_1  and  C_2
REMARK    2  A    between atoms: C_5  and  C_8
REMARK    3  A    between atoms: N_16  and  C_19
REMARK    4  A    between atoms: N_26  and  C_27
REMARK    5  A    between atoms: C_27  and  C_28
REMARK    6  A    between atoms: N_30  and  C_31
REMARK                            x       y       z     vdW  Elec       q    Type
REMARK                         _______ _______ _______ _____ _____    ______ ____
ROOT
ATOM      1  C   UNL     1       0.059  -4.275  -0.021  0.00  0.00    +0.130 C 
ATOM      2  C   UNL     1      -1.294  -4.831   0.402  0.00  0.00    +0.139 C 
ATOM      3  C   UNL     1      -1.049  -4.848   1.958  0.00  0.00    +0.241 C 
ATOM      4  C   UNL     1      -2.406  -4.940   2.463  0.00  0.00    +0.254 C 
ATOM      5  O   UNL     1      -2.780  -5.510   3.465  0.00  0.00    -0.272 OA
ATOM      6  N   UNL     1      -3.174  -4.244   1.566  0.00  0.00    -0.236 N 
ATOM      7  C   UNL     1      -2.512  -3.961   0.393  0.00  0.00    +0.230 C 
ATOM      8  O   UNL     1      -2.837  -3.171  -0.467  0.00  0.00    -0.275 OA
ATOM      9  O   UNL     1       0.160  -5.480   2.071  0.00  0.00    -0.282 OA
ATOM     10  N   UNL     1       1.000  -4.795   1.020  0.00  0.00    -0.170 NA
ENDROOT
BRANCH   1  15
ATOM     11  C   UNL     1      -0.018   1.503   0.011  0.00  0.00    +0.044 C 
ATOM     12  C   UNL     1       0.002  -0.004   0.002  0.00  0.00    -0.050 A 
ATOM     13  C   UNL     1      -0.220  -0.692  -1.176  0.00  0.00    +0.003 A 
ATOM     14  C   UNL     1      -0.201  -2.074  -1.184  0.00  0.00    +0.005 A 
ATOM     15  C   UNL     1       0.040  -2.768  -0.013  0.00  0.00    -0.027 A 
ATOM     16  C   UNL     1       0.263  -2.081   1.165  0.00  0.00    +0.005 A 
ATOM     17  C   UNL     1       0.248  -0.699   1.172  0.00  0.00    +0.003 A 
ENDBRANCH   1  15
BRANCH   6  18
ATOM     18  C   UNL     1      -4.563  -3.852   1.821  0.00  0.00    +0.084 C 
ATOM     19  C   UNL     1      -5.409  -5.103   2.064  0.00  0.00    +0.023 C 
ATOM     20  C   UNL     1      -6.859  -4.694   2.331  0.00  0.00    +0.002 C 
ATOM     21  C   UNL     1      -6.916  -3.792   3.565  0.00  0.00    +0.000 C 
ATOM     22  C   UNL     1      -6.069  -2.541   3.322  0.00  0.00    +0.002 C 
ATOM     23  C   UNL     1      -4.620  -2.950   3.056  0.00  0.00    +0.023 C 
ENDBRANCH   6  18
BRANCH  10  24
ATOM     24  C   UNL     1       1.969  -5.731   0.434  0.00  0.00    +0.211 C 
BRANCH  24  25
ATOM     25  C   UNL     1       2.972  -6.138   1.482  0.00  0.00    +0.230 C 
ATOM     26  O   UNL     1       2.888  -5.691   2.607  0.00  0.00    -0.274 OA
ATOM     27  N   UNL     1       3.962  -6.997   1.170  0.00  0.00    -0.311 N 
ATOM     28  H   UNL     1       4.029  -7.354   0.271  0.00  0.00    +0.149 HD
BRANCH  27  29
ATOM     29  C   UNL     1       4.938  -7.392   2.189  0.00  0.00    +0.073 C 
ATOM     30  C   UNL     1       6.411  -7.434   1.779  0.00  0.00    +0.024 C 
ATOM     31  C   UNL     1       5.643  -8.738   2.008  0.00  0.00    +0.024 C 
ENDBRANCH  27  29
ENDBRANCH  24  25
ENDBRANCH  10  24
TORSDOF 5
