REMARK  Name = ZINC20663062
REMARK  6 active torsions:
REMARK  status: ('A' for Active; 'I' for Inactive)
REMARK    1  A    between atoms: C_1  and  C_2
REMARK    2  A    between atoms: C_5  and  C_8
REMARK    3  A    between atoms: C_9  and  C_10
REMARK    4  A    between atoms: C_9  and  N_28
REMARK    5  A    between atoms: C_29  and  C_31
REMARK    6  A    between atoms: C_34  and  C_37
REMARK                            x       y       z     vdW  Elec       q    Type
REMARK                         _______ _______ _______ _____ _____    ______ ____
ROOT
ATOM      1  C   UNL     1      -1.413   2.078  -0.099  0.00  0.00    +0.036 C 
ATOM      2  C   UNL     1      -1.265   3.412   0.068  0.00  0.00    +0.097 C 
ENDROOT
BRANCH   2   3
ATOM      3  C   UNL     1      -2.447   4.266   0.253  0.00  0.00    +0.261 C 
ATOM      4  O   UNL     1      -2.894   4.452   1.369  0.00  0.00    -0.269 OA
ATOM      5  N   UNL     1      -3.036   4.842  -0.813  0.00  0.00    -0.296 N 
ATOM      6  C   UNL     1      -4.156   5.775  -0.639  0.00  0.00    +0.113 C 
ATOM      7  C   UNL     1      -5.314   5.391  -1.541  0.00  0.00    +0.027 C 
ATOM      8  C   UNL     1      -4.846   5.168  -2.980  0.00  0.00    +0.018 C 
ATOM      9  C   UNL     1      -3.795   4.054  -2.977  0.00  0.00    +0.054 C 
ATOM     10  C   UNL     1      -2.575   4.545  -2.179  0.00  0.00    +0.117 C 
ATOM     11  C   UNL     1      -4.344   2.836  -2.272  0.00  0.00    +0.027 A 
ATOM     12  C   UNL     1      -3.815   1.630  -2.611  0.00  0.00    +0.022 A 
ATOM     13  C   UNL     1      -4.225   0.463  -1.956  0.00  0.00    +0.007 A 
ATOM     14  C   UNL     1      -5.149   0.559  -0.957  0.00  0.00    +0.070 A 
ATOM     15  C   UNL     1      -5.677   1.817  -0.635  0.00  0.00    +0.251 A 
ATOM     16  O   UNL     1      -6.468   1.920   0.289  0.00  0.00    -0.268 OA
ATOM     17  N   UNL     1      -5.318   2.920  -1.337  0.00  0.00    -0.312 N 
ATOM     18  C   UNL     1      -6.041   4.157  -1.039  0.00  0.00    +0.130 C 
ENDBRANCH   2   3
BRANCH   1  23
ATOM     19  C   UNL     1       3.203  -1.348  -0.166  0.00  0.00    +0.044 C 
ATOM     20  C   UNL     1       1.993  -0.449  -0.150  0.00  0.00    -0.050 A 
ATOM     21  C   UNL     1       2.068   0.796   0.451  0.00  0.00    +0.004 A 
ATOM     22  C   UNL     1       0.966   1.624   0.470  0.00  0.00    +0.008 A 
ATOM     23  C   UNL     1      -0.231   1.203  -0.120  0.00  0.00    -0.023 A 
ATOM     24  C   UNL     1      -0.298  -0.057  -0.725  0.00  0.00    +0.008 A 
ATOM     25  C   UNL     1       0.813  -0.873  -0.735  0.00  0.00    +0.004 A 
ENDBRANCH   1  23
BRANCH   2  26
ATOM     26  N   UNL     1       0.013   3.979   0.064  0.00  0.00    -0.277 N 
ATOM     27  C   UNL     1       0.415   4.741   1.100  0.00  0.00    +0.248 C 
ATOM     28  O   UNL     1      -0.300   4.868   2.075  0.00  0.00    -0.270 OA
ATOM     29  H   UNL     1       0.690   3.803  -0.785  0.00  0.00    +0.155 HD
BRANCH  27  30
ATOM     30  C   UNL     1       1.726   5.423   1.050  0.00  0.00    +0.037 A 
ATOM     31  C   UNL     1       2.502   5.367  -0.108  0.00  0.00    +0.013 A 
ATOM     32  C   UNL     1       3.722   6.010  -0.149  0.00  0.00    +0.004 A 
ATOM     33  C   UNL     1       4.181   6.700   0.958  0.00  0.00    -0.050 A 
ATOM     34  C   UNL     1       3.419   6.755   2.112  0.00  0.00    +0.004 A 
ATOM     35  C   UNL     1       2.195   6.122   2.164  0.00  0.00    +0.013 A 
ATOM     36  C   UNL     1       5.517   7.396   0.908  0.00  0.00    +0.044 C 
ENDBRANCH  27  30
ENDBRANCH   2  26
TORSDOF 4
