REMARK  Name = ZINC30960893
REMARK  15 active torsions:
REMARK  status: ('A' for Active; 'I' for Inactive)
REMARK    1  A    between atoms: C_1  and  C_2
REMARK    2  A    between atoms: C_2  and  C_3
REMARK    3  A    between atoms: C_3  and  O_4
REMARK    4  A    between atoms: O_4  and  C_5
REMARK    5  A    between atoms: C_6  and  O_32
REMARK    6  A    between atoms: C_8  and  C_12
REMARK    7  A    between atoms: N_13  and  N_14
REMARK    8  A    between atoms: C_15  and  C_17
REMARK    9  A    between atoms: C_17  and  C_19
REMARK   10  A    between atoms: C_17  and  N_22
REMARK   11  A    between atoms: C_19  and  C_20
REMARK   12  A    between atoms: C_19  and  C_21
REMARK   13  A    between atoms: C_23  and  C_25
REMARK   14  A    between atoms: C_28  and  C_31
REMARK   15  A    between atoms: O_32  and  C_33
REMARK                            x       y       z     vdW  Elec       q    Type
REMARK                         _______ _______ _______ _____ _____    ______ ____
ROOT
ATOM      1  N   UNL     1      -0.884   0.288   3.378  0.00  0.00    -0.205 N 
ATOM      2  C   UNL     1      -1.615   1.416   3.269  0.00  0.00    +0.253 C 
ATOM      3  O   UNL     1      -1.224   2.444   3.781  0.00  0.00    -0.272 OA
ATOM      4  H   UNL     1      -1.224  -0.637   2.890  0.00  0.00    +0.177 HD
ENDROOT
BRANCH   1   6
ATOM      5  C   UNL     1       0.938  -0.818   4.338  0.00  0.00    +0.138 C 
ATOM      6  N   UNL     1       0.308   0.295   4.114  0.00  0.00    -0.188 NA
BRANCH   5  10
ATOM      7  C   UNL     1       0.465  -4.096   1.677  0.00  0.00    +0.176 A 
ATOM      8  C   UNL     1       0.938  -4.314   2.970  0.00  0.00    +0.163 A 
ATOM      9  C   UNL     1       1.099  -3.249   3.836  0.00  0.00    +0.059 A 
ATOM     10  C   UNL     1       0.774  -1.956   3.416  0.00  0.00    -0.001 A 
ATOM     11  C   UNL     1       0.300  -1.745   2.120  0.00  0.00    +0.028 A 
ATOM     12  C   UNL     1       0.148  -2.812   1.258  0.00  0.00    +0.064 A 
ATOM     13 BR   UNL     1      -0.494  -2.524  -0.497  0.00  0.00    -0.046 Br
BRANCH   8  14
ATOM     14  O   UNL     1       1.247  -5.574   3.377  0.00  0.00    -0.491 OA
ATOM     15  C   UNL     1       1.726  -5.724   4.715  0.00  0.00    +0.277 C 
ENDBRANCH   8  14
BRANCH   7  16
ATOM     16  O   UNL     1       0.313  -5.145   0.825  0.00  0.00    -0.487 OA
BRANCH  16  17
ATOM     17  C   UNL     1       1.435  -5.484   0.008  0.00  0.00    +0.229 C 
BRANCH  17  19
ATOM     18  C   UNL     1       2.279  -7.043  -1.753  0.00  0.00    +0.007 C 
ATOM     19  C   UNL     1       1.078  -6.679  -0.878  0.00  0.00    +0.038 C 
ENDBRANCH  17  19
ENDBRANCH  16  17
ENDBRANCH   7  16
ENDBRANCH   5  10
ENDBRANCH   1   6
BRANCH   2  20
ATOM     20  C   UNL     1      -2.917   1.400   2.510  0.00  0.00    +0.163 C 
BRANCH  20  21
ATOM     21  N   UNL     1      -3.891   2.253   3.193  0.00  0.00    -0.300 N 
ATOM     22  C   UNL     1      -5.211   2.029   3.035  0.00  0.00    +0.245 C 
ATOM     23  O   UNL     1      -5.593   1.119   2.325  0.00  0.00    -0.270 OA
ATOM     24  H   UNL     1      -3.546   3.076   3.836  0.00  0.00    +0.150 HD
BRANCH  22  25
ATOM     25  C   UNL     1      -6.195   2.891   3.725  0.00  0.00    +0.037 A 
ATOM     26  C   UNL     1      -5.760   3.933   4.546  0.00  0.00    +0.013 A 
ATOM     27  C   UNL     1      -6.683   4.736   5.184  0.00  0.00    +0.004 A 
ATOM     28  C   UNL     1      -8.037   4.503   5.019  0.00  0.00    -0.050 A 
ATOM     29  C   UNL     1      -8.475   3.469   4.211  0.00  0.00    +0.004 A 
ATOM     30  C   UNL     1      -7.562   2.662   3.564  0.00  0.00    +0.013 A 
ATOM     31  C   UNL     1      -9.040   5.381   5.723  0.00  0.00    +0.044 C 
ENDBRANCH  22  25
ENDBRANCH  20  21
BRANCH  20  32
ATOM     32  C   UNL     1      -2.686   1.924   1.091  0.00  0.00    +0.012 C 
ATOM     33  C   UNL     1      -1.801   0.942   0.322  0.00  0.00    +0.009 C 
ATOM     34  C   UNL     1      -1.997   3.288   1.157  0.00  0.00    +0.009 C 
ENDBRANCH  20  32
ENDBRANCH   2  20
TORSDOF 10
