REMARK  Name = ZINC21461994
REMARK  12 active torsions:
REMARK  status: ('A' for Active; 'I' for Inactive)
REMARK    1  A    between atoms: C_1  and  C_2
REMARK    2  A    between atoms: C_5  and  C_31
REMARK    3  A    between atoms: C_6  and  N_8
REMARK    4  A    between atoms: C_18  and  S_19
REMARK    5  A    between atoms: S_19  and  C_20
REMARK    6  A    between atoms: C_20  and  C_21
REMARK    7  A    between atoms: N_23  and  C_24
REMARK    8  A    between atoms: C_24  and  C_25
REMARK    9  A    between atoms: C_24  and  C_26
REMARK   10  A    between atoms: C_24  and  C_28
REMARK   11  A    between atoms: C_28  and  C_29
REMARK   12  A    between atoms: C_28  and  C_30
REMARK                            x       y       z     vdW  Elec       q    Type
REMARK                         _______ _______ _______ _____ _____    ______ ____
ROOT
ATOM      1  N   UNL     1       0.037  -2.767  -0.012  0.00  0.00    -0.255 N 
ATOM      2  C   UNL     1       1.239  -2.146  -0.021  0.00  0.00    +0.267 A 
ATOM      3  O   UNL     1       2.277  -2.781  -0.034  0.00  0.00    -0.267 OA
ATOM      4  C   UNL     1       1.245  -0.677  -0.013  0.00  0.00    +0.065 A 
ATOM      5  C   UNL     1       2.432   0.055  -0.021  0.00  0.00    +0.015 A 
ATOM      6  C   UNL     1       2.381   1.421  -0.013  0.00  0.00    +0.001 A 
ATOM      7  C   UNL     1       1.161   2.086   0.002  0.00  0.00    +0.002 A 
ATOM      8  C   UNL     1      -0.017   1.394   0.010  0.00  0.00    +0.028 A 
ATOM      9  C   UNL     1       0.002  -0.004   0.002  0.00  0.00    +0.079 A 
ATOM     10  N   UNL     1      -1.141  -0.729   0.009  0.00  0.00    -0.223 NA
ATOM     11  C   UNL     1      -1.121  -2.039   0.003  0.00  0.00    +0.177 A 
ENDROOT
BRANCH   1  17
ATOM     12  C   UNL     1      -0.118  -7.010   2.469  0.00  0.00    +0.044 C 
ATOM     13  C   UNL     1      -0.099  -6.248   1.169  0.00  0.00    -0.048 A 
ATOM     14  C   UNL     1      -0.140  -6.931  -0.033  0.00  0.00    +0.004 A 
ATOM     15  C   UNL     1      -0.123  -6.235  -1.228  0.00  0.00    +0.005 A 
ATOM     16  C   UNL     1      -0.069  -4.855  -1.224  0.00  0.00    -0.026 A 
ATOM     17  C   UNL     1      -0.022  -4.167  -0.019  0.00  0.00    +0.055 A 
ATOM     18  C   UNL     1      -0.040  -4.868   1.179  0.00  0.00    +0.030 A 
ATOM     19  C   UNL     1      -0.056  -4.097  -2.526  0.00  0.00    +0.046 C 
ENDBRANCH   1  17
BRANCH  11  20
ATOM     20  S   UNL     1      -2.657  -2.903   0.014  0.00  0.00    -0.078 S 
BRANCH  20  21
ATOM     21  C   UNL     1      -3.804  -1.504   0.032  0.00  0.00    +0.173 C 
BRANCH  21  22
ATOM     22  C   UNL     1      -5.221  -2.016   0.043  0.00  0.00    +0.224 C 
ATOM     23  O   UNL     1      -5.434  -3.210   0.040  0.00  0.00    -0.275 OA
ATOM     24  N   UNL     1      -6.252  -1.148   0.058  0.00  0.00    -0.297 N 
ATOM     25  H   UNL     1      -6.059  -0.065   0.061  0.00  0.00    +0.150 HD
BRANCH  24  26
ATOM     26  C   UNL     1      -7.630  -1.646   0.069  0.00  0.00    +0.121 C 
ATOM     27  C   UNL     1      -7.851  -2.503   1.317  0.00  0.00    +0.048 C 
BRANCH  26  28
ATOM     28  C   UNL     1      -8.600  -0.463   0.084  0.00  0.00    +0.020 C 
ATOM     29  C   UNL     1      -8.465   0.324  -1.221  0.00  0.00    +0.010 C 
ATOM     30  C   UNL     1     -10.033  -0.981   0.222  0.00  0.00    +0.010 C 
ENDBRANCH  26  28
BRANCH  26  31
ATOM     31  C   UNL     1      -7.867  -2.460  -1.134  0.00  0.00    +0.088 C 
ATOM     32  N   UNL     1      -8.050  -3.088  -2.063  0.00  0.00    -0.194 NA
ENDBRANCH  26  31
ENDBRANCH  24  26
ENDBRANCH  21  22
ENDBRANCH  20  21
ENDBRANCH  11  20
TORSDOF 7
