REMARK  Name = ZINC08832423
REMARK  8 active torsions:
REMARK  status: ('A' for Active; 'I' for Inactive)
REMARK    1  A    between atoms: C_1  and  C_2
REMARK    2  A    between atoms: C_2  and  C_3
REMARK    3  A    between atoms: C_2  and  C_4
REMARK    4  A    between atoms: C_2  and  C_5
REMARK    5  A    between atoms: C_12  and  N_16
REMARK    6  A    between atoms: C_13  and  C_14
REMARK    7  A    between atoms: C_17  and  C_19
REMARK    8  A    between atoms: C_22  and  C_24
REMARK                            x       y       z     vdW  Elec       q    Type
REMARK                         _______ _______ _______ _____ _____    ______ ____
ROOT
ATOM      1  N   UNL     1      -1.115   2.230   0.020  0.00  0.00    -0.272 N 
ATOM      2  C   UNL     1      -0.935   3.566   0.026  0.00  0.00    +0.284 C 
ATOM      3  O   UNL     1       0.190   4.029   0.023  0.00  0.00    -0.266 OA
ATOM      4  H   UNL     1      -2.012   1.861   0.022  0.00  0.00    +0.156 HD
ENDROOT
BRANCH   1  11
ATOM      5  C   UNL     1       3.920  -1.697   0.335  0.00  0.00    -0.000 C 
ATOM      6  C   UNL     1       2.906  -2.487  -0.497  0.00  0.00    +0.009 C 
ATOM      7  C   UNL     1       1.486  -2.170  -0.025  0.00  0.00    +0.037 C 
ATOM      8  C   UNL     1       1.299  -0.658  -0.014  0.00  0.00    -0.018 A 
ATOM      9  C   UNL     1       2.363   0.174  -0.019  0.00  0.00    -0.004 A 
ATOM     10  S   UNL     1       1.665   1.801  -0.004  0.00  0.00    -0.077 S 
ATOM     11  C   UNL     1      -0.017   1.383   0.010  0.00  0.00    +0.090 A 
ATOM     12  C   UNL     1       0.002  -0.004   0.002  0.00  0.00    +0.084 A 
ATOM     13  C   UNL     1       3.811  -0.210  -0.034  0.00  0.00    +0.047 C 
BRANCH   5  15
ATOM     14  C   UNL     1       5.635  -2.005  -1.456  0.00  0.00    +0.011 C 
ATOM     15  C   UNL     1       5.333  -2.198   0.032  0.00  0.00    -0.035 C 
ATOM     16  C   UNL     1       6.344  -1.406   0.864  0.00  0.00    +0.011 C 
ATOM     17  C   UNL     1       5.434  -3.683   0.385  0.00  0.00    +0.011 C 
ENDBRANCH   5  15
BRANCH  12  18
ATOM     18  C   UNL     1      -1.212  -0.763   0.010  0.00  0.00    +0.102 C 
ATOM     19  N   UNL     1      -2.175  -1.365   0.016  0.00  0.00    -0.191 NA
ENDBRANCH  12  18
ENDBRANCH   1  11
BRANCH   2  20
ATOM     20  C   UNL     1      -2.095   4.459   0.037  0.00  0.00    +0.190 A 
ATOM     21  C   UNL     1      -2.055   5.837   0.050  0.00  0.00    +0.055 A 
ATOM     22  C   UNL     1      -3.381   6.280   0.053  0.00  0.00    +0.051 A 
ATOM     23  C   UNL     1      -4.175   5.168   0.051  0.00  0.00    +0.137 A 
ATOM     24  O   UNL     1      -3.390   4.078   0.042  0.00  0.00    -0.450 OA
BRANCH  23  25
ATOM     25  C   UNL     1      -5.652   5.166   0.058  0.00  0.00    +0.036 A 
ATOM     26  C   UNL     1      -6.350   5.932   0.994  0.00  0.00    +0.014 A 
ATOM     27  C   UNL     1      -7.729   5.930   0.992  0.00  0.00    +0.021 A 
ATOM     28  C   UNL     1      -8.422   5.161   0.071  0.00  0.00    +0.042 A 
ATOM     29  C   UNL     1      -7.737   4.394  -0.856  0.00  0.00    +0.040 A 
ATOM     30  C   UNL     1      -6.356   4.392  -0.868  0.00  0.00    +0.053 A 
ATOM     31 CL   UNL     1      -5.498   3.431  -2.032  0.00  0.00    -0.083 Cl
ATOM     32 CL   UNL     1     -10.158   5.159   0.081  0.00  0.00    -0.083 Cl
ENDBRANCH  23  25
ENDBRANCH   2  20
TORSDOF 5
