REMARK  Name = ZINC13304875
REMARK  6 active torsions:
REMARK  status: ('A' for Active; 'I' for Inactive)
REMARK    1  A    between atoms: C_4  and  C_7
REMARK    2  A    between atoms: N_9  and  C_10
REMARK    3  A    between atoms: C_10  and  C_26
REMARK    4  A    between atoms: C_11  and  C_12
REMARK    5  A    between atoms: C_15  and  C_17
REMARK    6  A    between atoms: C_20  and  N_23
REMARK                            x       y       z     vdW  Elec       q    Type
REMARK                         _______ _______ _______ _____ _____    ______ ____
ROOT
ATOM      1  C   UNL     1      -3.043   4.378   0.168  0.00  0.00    +0.100 C 
ATOM      2  C   UNL     1      -1.693   4.720   0.013  0.00  0.00    +0.074 C 
ENDROOT
BRANCH   1   3
ATOM      3  C   UNL     1      -4.089   5.436   0.117  0.00  0.00    +0.261 C 
ATOM      4  O   UNL     1      -4.374   6.058   1.120  0.00  0.00    -0.269 OA
ATOM      5  N   UNL     1      -4.720   5.705  -1.043  0.00  0.00    -0.296 N 
ATOM      6  C   UNL     1      -4.462   4.893  -2.241  0.00  0.00    +0.108 C 
ATOM      7  C   UNL     1      -5.806   4.380  -2.781  0.00  0.00    +0.019 C 
ATOM      8  C   UNL     1      -6.742   5.568  -3.017  0.00  0.00    +0.003 C 
ATOM      9  C   UNL     1      -7.000   6.287  -1.691  0.00  0.00    +0.019 C 
ATOM     10  C   UNL     1      -5.674   6.818  -1.137  0.00  0.00    +0.108 C 
ENDBRANCH   1   3
BRANCH   2  11
ATOM     11  C   UNL     1      -0.728   3.725  -0.045  0.00  0.00    +0.131 A 
ATOM     12  C   UNL     1       0.729   3.925  -0.097  0.00  0.00    +0.050 A 
ATOM     13  C   UNL     1       1.283   2.687  -0.144  0.00  0.00    +0.050 A 
ATOM     14  C   UNL     1       0.224   1.745  -0.121  0.00  0.00    +0.136 A 
ATOM     15  O   UNL     1      -0.952   2.393  -0.068  0.00  0.00    -0.455 OA
BRANCH  14  16
ATOM     16  C   UNL     1       0.382   0.337  -0.156  0.00  0.00    +0.017 A 
ATOM     17  C   UNL     1       1.659  -0.230  -0.330  0.00  0.00    +0.014 A 
ATOM     18  C   UNL     1       1.799  -1.589  -0.356  0.00  0.00    +0.033 A 
ATOM     19  C   UNL     1       0.688  -2.409  -0.223  0.00  0.00    +0.126 A 
ATOM     20  C   UNL     1      -0.575  -1.861  -0.056  0.00  0.00    +0.033 A 
ATOM     21  C   UNL     1      -0.739  -0.506  -0.022  0.00  0.00    +0.014 A 
BRANCH  19  22
ATOM     22  N   UNL     1       0.853  -3.880  -0.258  0.00  0.00    +0.056 N 
ATOM     23  O   UNL     1      -0.199  -4.663  -0.132  0.00  0.00    -0.126 OA
ATOM     24  O   UNL     1       2.050  -4.405  -0.416  0.00  0.00    -0.126 OA
ENDBRANCH  19  22
ENDBRANCH  14  16
ENDBRANCH   2  11
BRANCH   1  27
ATOM     25  C   UNL     1      -4.051   2.732   1.486  0.00  0.00    +0.248 C 
ATOM     26  O   UNL     1      -4.380   3.579   2.292  0.00  0.00    -0.270 OA
ATOM     27  N   UNL     1      -3.395   3.089   0.363  0.00  0.00    -0.277 N 
ATOM     28  H   UNL     1      -3.176   2.420  -0.304  0.00  0.00    +0.155 HD
BRANCH  25  32
ATOM     29  C   UNL     1      -4.969  -1.352   2.201  0.00  0.00    +0.000 A 
ATOM     30  C   UNL     1      -5.416  -0.381   3.080  0.00  0.00    +0.001 A 
ATOM     31  C   UNL     1      -5.122   0.947   2.854  0.00  0.00    +0.013 A 
ATOM     32  C   UNL     1      -4.370   1.311   1.735  0.00  0.00    +0.037 A 
ATOM     33  C   UNL     1      -3.926   0.327   0.849  0.00  0.00    +0.013 A 
ATOM     34  C   UNL     1      -4.224  -0.998   1.090  0.00  0.00    +0.001 A 
ENDBRANCH  25  32
ENDBRANCH   1  27
TORSDOF 6
