REMARK  Name = ZINC16534110
REMARK  9 active torsions:
REMARK  status: ('A' for Active; 'I' for Inactive)
REMARK    1  A    between atoms: C_1  and  O_2
REMARK    2  A    between atoms: O_2  and  C_3
REMARK    3  A    between atoms: C_6  and  N_9
REMARK    4  A    between atoms: C_10  and  O_38
REMARK    5  A    between atoms: C_11  and  C_22
REMARK    6  A    between atoms: C_12  and  C_14
REMARK    7  A    between atoms: C_14  and  C_15
REMARK    8  A    between atoms: N_26  and  C_30
REMARK    9  A    between atoms: C_30  and  C_31
REMARK                            x       y       z     vdW  Elec       q    Type
REMARK                         _______ _______ _______ _____ _____    ______ ____
ROOT
ATOM      1  N   UNL     1      -0.777   6.832  -3.361  0.00  0.00    -0.200 N 
ATOM      2  C   UNL     1       0.572   6.864  -3.414  0.00  0.00    +0.223 A 
ATOM      3  C   UNL     1       1.042   6.430  -2.177  0.00  0.00    +0.062 A 
ATOM      4  C   UNL     1      -0.094   6.128  -1.387  0.00  0.00    +0.079 A 
ATOM      5  N   UNL     1      -1.160   6.373  -2.096  0.00  0.00    -0.167 NA
ENDROOT
BRANCH   3   6
ATOM      6  C   UNL     1       2.443   6.306  -1.771  0.00  0.00    +0.043 C 
ATOM      7  C   UNL     1       3.326   5.648  -2.569  0.00  0.00    +0.099 C 
ATOM      8  C   UNL     1       4.710   5.440  -2.324  0.00  0.00    +0.269 C 
ATOM      9  O   UNL     1       5.338   5.820  -1.353  0.00  0.00    -0.268 OA
ATOM     10  N   UNL     1       5.196   4.742  -3.369  0.00  0.00    -0.216 N 
ATOM     11  C   UNL     1       4.210   4.501  -4.249  0.00  0.00    +0.313 C 
ATOM     12  O   UNL     1       4.340   3.892  -5.294  0.00  0.00    -0.252 OA
ATOM     13  N   UNL     1       3.056   5.029  -3.800  0.00  0.00    -0.265 N 
ATOM     14  H   UNL     1       2.195   4.991  -4.247  0.00  0.00    +0.157 HD
BRANCH  10  15
ATOM     15  C   UNL     1       6.588   4.312  -3.523  0.00  0.00    +0.153 C 
BRANCH  15  16
ATOM     16  C   UNL     1       6.764   2.950  -2.905  0.00  0.00    -0.029 A 
ATOM     17  C   UNL     1       7.123   2.836  -1.574  0.00  0.00    +0.008 A 
ATOM     18  C   UNL     1       7.280   1.586  -1.005  0.00  0.00    +0.038 A 
ATOM     19  C   UNL     1       7.087   0.448  -1.770  0.00  0.00    +0.123 A 
ATOM     20  C   UNL     1       6.733   0.564  -3.103  0.00  0.00    +0.038 A 
ATOM     21  C   UNL     1       6.571   1.814  -3.669  0.00  0.00    +0.008 A 
ATOM     22  F   UNL     1       7.246  -0.773  -1.216  0.00  0.00    -0.205 F 
ENDBRANCH  15  16
ENDBRANCH  10  15
ENDBRANCH   3   6
BRANCH   1  26
ATOM     23  C   UNL     1      -3.366   7.915  -6.447  0.00  0.00    +0.120 A 
ATOM     24  C   UNL     1      -3.700   6.873  -5.595  0.00  0.00    +0.048 A 
ATOM     25  C   UNL     1      -2.844   6.514  -4.574  0.00  0.00    +0.031 A 
ATOM     26  C   UNL     1      -1.647   7.196  -4.399  0.00  0.00    +0.069 A 
ATOM     27  C   UNL     1      -1.315   8.242  -5.249  0.00  0.00    +0.031 A 
ATOM     28  C   UNL     1      -2.170   8.597  -6.273  0.00  0.00    +0.048 A 
BRANCH  23  30
ATOM     29  C   UNL     1      -3.801   9.350  -8.293  0.00  0.00    +0.277 C 
ATOM     30  O   UNL     1      -4.209   8.268  -7.453  0.00  0.00    -0.495 OA
ENDBRANCH  23  30
ENDBRANCH   1  26
BRANCH   2  31
ATOM     31  O   UNL     1       1.326   7.252  -4.470  0.00  0.00    -0.492 OA
ATOM     32  H   UNL     1       1.537   8.195  -4.478  0.00  0.00    +0.294 HD
ENDBRANCH   2  31
BRANCH   4  33
ATOM     33  C   UNL     1      -0.074   5.619   0.032  0.00  0.00    +0.093 C 
BRANCH  33  34
ATOM     34  C   UNL     1      -0.054   4.112   0.024  0.00  0.00    -0.041 A 
ATOM     35  C   UNL     1       1.153   3.438   0.009  0.00  0.00    +0.007 A 
ATOM     36  C   UNL     1       1.173   2.056   0.002  0.00  0.00    +0.038 A 
ATOM     37  C   UNL     1      -0.016   1.347   0.009  0.00  0.00    +0.123 A 
ATOM     38  C   UNL     1      -1.224   2.023   0.019  0.00  0.00    +0.038 A 
ATOM     39  C   UNL     1      -1.242   3.405   0.032  0.00  0.00    +0.007 A 
ATOM     40  F   UNL     1       0.002  -0.004   0.002  0.00  0.00    -0.205 F 
ENDBRANCH  33  34
ENDBRANCH   4  33
TORSDOF 8
