REMARK  Name = ZINC62039653
REMARK  9 active torsions:
REMARK  status: ('A' for Active; 'I' for Inactive)
REMARK    1  A    between atoms: C_1  and  C_2
REMARK    2  A    between atoms: C_9  and  C_29
REMARK    3  A    between atoms: C_10  and  C_11
REMARK    4  A    between atoms: C_11  and  C_12
REMARK    5  A    between atoms: N_14  and  C_15
REMARK    6  A    between atoms: C_16  and  C_26
REMARK    7  A    between atoms: C_21  and  C_25
REMARK    8  A    between atoms: C_32  and  C_36
REMARK    9  A    between atoms: C_33  and  C_35
REMARK                            x       y       z     vdW  Elec       q    Type
REMARK                         _______ _______ _______ _____ _____    ______ ____
ROOT
ATOM      1  C   UNL     1      -0.269  -3.933   2.962  0.00  0.00    +0.152 C 
ENDROOT
BRANCH   1  11
ATOM      2  C   UNL     1       0.567   1.464   0.023  0.00  0.00    +0.047 C 
ATOM      3  C   UNL     1       0.475  -0.040   0.024  0.00  0.00    -0.008 A 
ATOM      4  C   UNL     1       0.629  -0.738  -1.133  0.00  0.00    +0.008 A 
ATOM      5  C   UNL     1       0.541  -2.140  -1.117  0.00  0.00    +0.018 A 
ATOM      6  C   UNL     1       0.303  -2.794   0.039  0.00  0.00    +0.093 A 
ATOM      7  N   UNL     1       0.145  -2.106   1.208  0.00  0.00    -0.302 N 
ATOM      8  C   UNL     1       0.233  -0.738   1.225  0.00  0.00    +0.141 A 
ATOM      9  N   UNL     1       0.052  -0.325   2.471  0.00  0.00    -0.227 NA
ATOM     10  C   UNL     1      -0.145  -1.391   3.263  0.00  0.00    +0.093 A 
ATOM     11  C   UNL     1      -0.100  -2.512   2.490  0.00  0.00    +0.060 A 
BRANCH  10  12
ATOM     12  C   UNL     1      -0.385  -1.354   4.727  0.00  0.00    +0.002 A 
ATOM     13  C   UNL     1       0.238  -2.281   5.561  0.00  0.00    +0.010 A 
ATOM     14  C   UNL     1       0.011  -2.242   6.922  0.00  0.00    +0.004 A 
ATOM     15  C   UNL     1      -0.833  -1.286   7.458  0.00  0.00    -0.047 A 
ATOM     16  C   UNL     1      -1.454  -0.364   6.634  0.00  0.00    -0.047 A 
ATOM     17  C   UNL     1      -1.229  -0.390   5.272  0.00  0.00    +0.013 A 
ATOM     18  C   UNL     1      -2.372   0.674   7.226  0.00  0.00    +0.044 C 
ATOM     19  C   UNL     1      -1.077  -1.249   8.944  0.00  0.00    +0.044 C 
ENDBRANCH  10  12
ENDBRANCH   1  11
BRANCH   1  20
ATOM     20  C   UNL     1       1.085  -4.538   3.230  0.00  0.00    +0.223 C 
ATOM     21  O   UNL     1       2.089  -3.880   3.055  0.00  0.00    -0.275 OA
ATOM     22  N   UNL     1       1.181  -5.810   3.665  0.00  0.00    -0.279 N 
ATOM     23  H   UNL     1       0.379  -6.337   3.805  0.00  0.00    +0.155 HD
BRANCH  22  24
ATOM     24  C   UNL     1       2.427  -6.367   3.911  0.00  0.00    +0.084 A 
ATOM     25  C   UNL     1       2.716  -7.649   4.352  0.00  0.00    +0.068 A 
ATOM     26  C   UNL     1       4.116  -7.989   4.534  0.00  0.00    -0.023 A 
ATOM     27  C   UNL     1       4.971  -6.985   4.242  0.00  0.00    -0.004 A 
ATOM     28  S   UNL     1       3.933  -5.644   3.737  0.00  0.00    -0.077 S 
ATOM     29  C   UNL     1       6.466  -7.023   4.326  0.00  0.00    +0.046 C 
ATOM     30  C   UNL     1       6.905  -8.491   4.433  0.00  0.00    -0.009 C 
ATOM     31  C   UNL     1       6.060  -9.184   5.505  0.00  0.00    +0.008 C 
ATOM     32  C   UNL     1       4.620  -9.343   5.011  0.00  0.00    +0.037 C 
ATOM     33  C   UNL     1       8.384  -8.556   4.821  0.00  0.00    +0.008 C 
BRANCH  25  34
ATOM     34  C   UNL     1       1.652  -8.620   4.624  0.00  0.00    +0.244 C 
ATOM     35  O   UNL     1       1.260  -9.357   3.738  0.00  0.00    -0.270 OA
ATOM     36  N   UNL     1       1.109  -8.698   5.855  0.00  0.00    -0.325 N 
ATOM     37  H   UNL     1       1.422  -8.111   6.561  0.00  0.00    +0.145 HD
ATOM     38  H   UNL     1       0.406  -9.341   6.035  0.00  0.00    +0.145 HD
ENDBRANCH  25  34
ENDBRANCH  22  24
ENDBRANCH   1  20
TORSDOF 5
