REMARK  Name = ZINC15032805
REMARK  9 active torsions:
REMARK  status: ('A' for Active; 'I' for Inactive)
REMARK    1  A    between atoms: C_1  and  C_2
REMARK    2  A    between atoms: C_2  and  C_3
REMARK    3  A    between atoms: C_6  and  C_15
REMARK    4  A    between atoms: C_13  and  O_14
REMARK    5  A    between atoms: C_15  and  N_16
REMARK    6  A    between atoms: C_24  and  C_31
REMARK    7  A    between atoms: C_26  and  C_28
REMARK    8  A    between atoms: C_28  and  C_29
REMARK    9  A    between atoms: C_28  and  C_30
REMARK                            x       y       z     vdW  Elec       q    Type
REMARK                         _______ _______ _______ _____ _____    ______ ____
ROOT
ATOM      1  N   UNL     1       5.449  -2.500  -1.087  0.00  0.00    -0.295 NA
ATOM      2  C   UNL     1       4.587  -2.877   0.041  0.00  0.00    +0.103 C 
ATOM      3  C   UNL     1       3.315  -2.026   0.015  0.00  0.00    +0.122 C 
ATOM      4  N   UNL     1       3.679  -0.604   0.086  0.00  0.00    -0.313 N 
ATOM      5  C   UNL     1       4.541  -0.227  -1.043  0.00  0.00    +0.122 C 
ATOM      6  C   UNL     1       5.813  -1.078  -1.017  0.00  0.00    +0.103 C 
ATOM      7  C   UNL     1       2.549   0.196   0.137  0.00  0.00    +0.125 A 
ATOM      8  C   UNL     1       2.666   1.585   0.208  0.00  0.00    +0.064 A 
ATOM      9  C   UNL     1       1.510   2.339   0.256  0.00  0.00    +0.017 A 
ATOM     10  N   UNL     1       0.336   1.724   0.233  0.00  0.00    -0.347 N 
ATOM     11  C   UNL     1       0.259   0.410   0.166  0.00  0.00    +0.112 A 
ATOM     12  N   UNL     1       1.335  -0.348   0.118  0.00  0.00    -0.219 NA
ATOM     13  C   UNL     1       1.582   3.842   0.332  0.00  0.00    +0.063 C 
ATOM     14  H   UNL     1      -0.594   2.311   0.271  0.00  0.00    +0.167 HD
ENDROOT
BRANCH  11  15
ATOM     15  C   UNL     1      -1.099  -0.244   0.143  0.00  0.00    +0.049 C 
ATOM     16  C   UNL     1      -1.861   0.119   1.419  0.00  0.00    +0.015 C 
ATOM     17  C   UNL     1      -1.882   0.248  -1.076  0.00  0.00    +0.015 C 
ENDBRANCH  11  15
BRANCH   1  18
ATOM     18  C   UNL     1       6.647  -3.348  -1.141  0.00  0.00    +0.120 C 
BRANCH  18  22
ATOM     19  C   UNL     1       5.014  -5.161  -4.713  0.00  0.00    -0.005 A 
ATOM     20  C   UNL     1       5.537  -4.585  -3.591  0.00  0.00    +0.019 A 
ATOM     21  C   UNL     1       6.717  -3.838  -3.678  0.00  0.00    +0.022 A 
ATOM     22  C   UNL     1       7.301  -3.209  -2.492  0.00  0.00    -0.016 A 
ATOM     23  C   UNL     1       8.445  -2.492  -2.643  0.00  0.00    +0.097 A 
ATOM     24  C   UNL     1       9.039  -2.380  -3.916  0.00  0.00    +0.338 A 
ATOM     25  O   UNL     1      10.067  -1.738  -4.037  0.00  0.00    -0.245 OA
ATOM     26  O   UNL     1       8.500  -2.959  -5.000  0.00  0.00    -0.422 OA
ATOM     27  C   UNL     1       7.362  -3.682  -4.920  0.00  0.00    +0.143 A 
ATOM     28  C   UNL     1       6.817  -4.273  -6.049  0.00  0.00    +0.092 A 
ATOM     29  C   UNL     1       5.648  -5.010  -5.945  0.00  0.00    +0.124 A 
BRANCH  19  31
ATOM     30  C   UNL     1       2.562  -5.109  -5.081  0.00  0.00    +0.009 C 
ATOM     31  C   UNL     1       3.743  -5.965  -4.619  0.00  0.00    +0.035 C 
ENDBRANCH  19  31
BRANCH  29  32
ATOM     32  O   UNL     1       5.115  -5.588  -7.051  0.00  0.00    -0.506 OA
ATOM     33  H   UNL     1       5.612  -5.471  -8.026  0.00  0.00    +0.292 HD
ENDBRANCH  29  32
ENDBRANCH  18  22
ENDBRANCH   1  18
TORSDOF 5
