REMARK  Name = ZINC49487639
REMARK  8 active torsions:
REMARK  status: ('A' for Active; 'I' for Inactive)
REMARK    1  A    between atoms: C_1  and  N_2
REMARK    2  A    between atoms: N_2  and  C_3
REMARK    3  A    between atoms: N_2  and  C_4
REMARK    4  A    between atoms: C_4  and  C_6
REMARK    5  A    between atoms: C_4  and  C_26
REMARK    6  A    between atoms: C_6  and  N_7
REMARK    7  A    between atoms: C_8  and  C_10
REMARK    8  A    between atoms: N_12  and  C_13
REMARK                            x       y       z     vdW  Elec       q    Type
REMARK                         _______ _______ _______ _____ _____    ______ ____
ROOT
ATOM      1  N   UNL     1      -1.680   1.294  -1.418  0.00  0.00    -0.309 N 
ATOM      2  C   UNL     1      -2.064   1.919  -2.549  0.00  0.00    +0.299 C 
ATOM      3  O   UNL     1      -2.640   1.299  -3.419  0.00  0.00    -0.265 OA
ATOM      4  H   UNL     1      -1.220   1.789  -0.722  0.00  0.00    +0.149 HD
ENDROOT
BRANCH   2   5
ATOM      5  C   UNL     1      -1.780   3.374  -2.731  0.00  0.00    +0.303 C 
ATOM      6  O   UNL     1      -1.204   3.993  -1.860  0.00  0.00    -0.265 OA
ATOM      7  N   UNL     1      -2.163   3.999  -3.862  0.00  0.00    -0.278 N 
ATOM      8  H   UNL     1      -2.689   3.523  -4.524  0.00  0.00    +0.155 HD
BRANCH   7   9
ATOM      9  C   UNL     1      -1.804   5.332  -4.080  0.00  0.00    +0.034 A 
ATOM     10  C   UNL     1      -2.693   6.167  -4.752  0.00  0.00    +0.028 A 
ATOM     11  C   UNL     1      -2.383   7.487  -4.976  0.00  0.00    -0.023 A 
ATOM     12  C   UNL     1      -1.155   7.938  -4.487  0.00  0.00    +0.043 A 
ATOM     13  C   UNL     1      -0.252   7.109  -3.839  0.00  0.00    -0.022 A 
ATOM     14  C   UNL     1      -0.566   5.783  -3.610  0.00  0.00    +0.028 A 
ATOM     15  C   UNL     1       0.967   7.923  -3.524  0.00  0.00    +0.056 C 
ATOM     16  C   UNL     1       0.646   9.338  -4.060  0.00  0.00    +0.118 C 
ATOM     17  N   UNL     1      -0.711   9.255  -4.590  0.00  0.00    -0.271 N 
ATOM     18  C   UNL     1      -1.530  10.214  -5.075  0.00  0.00    +0.220 C 
ATOM     19  O   UNL     1      -1.097  11.304  -5.383  0.00  0.00    -0.275 OA
ATOM     20  C   UNL     1      -2.998   9.893  -5.227  0.00  0.00    +0.101 C 
ATOM     21  C   UNL     1      -3.240   8.468  -5.717  0.00  0.00    +0.046 C 
ENDBRANCH   7   9
ENDBRANCH   2   5
BRANCH   1  22
ATOM     22  C   UNL     1      -1.958  -0.133  -1.239  0.00  0.00    +0.094 C 
BRANCH  22  23
ATOM     23  C   UNL     1      -1.316  -0.619   0.062  0.00  0.00    -0.020 C 
BRANCH  23  24
ATOM     24  C   UNL     1       0.184  -0.546  -0.061  0.00  0.00    -0.052 A 
ATOM     25  C   UNL     1       0.867   0.494   0.491  0.00  0.00    +0.003 A 
ATOM     26  C   UNL     1       2.253   0.578   0.388  0.00  0.00    +0.001 A 
ATOM     27  C   UNL     1       2.967  -0.377  -0.270  0.00  0.00    +0.008 A 
ATOM     28  C   UNL     1       2.297  -1.466  -0.853  0.00  0.00    -0.018 A 
ATOM     29  C   UNL     1       0.887  -1.555  -0.742  0.00  0.00    -0.016 A 
ATOM     30  C   UNL     1       0.218  -2.647  -1.321  0.00  0.00    +0.009 A 
ATOM     31  C   UNL     1       0.931  -3.605  -1.973  0.00  0.00    +0.001 A 
ATOM     32  C   UNL     1       2.319  -3.521  -2.076  0.00  0.00    +0.001 A 
ATOM     33  C   UNL     1       2.999  -2.471  -1.540  0.00  0.00    +0.008 A 
ENDBRANCH  23  24
BRANCH  23  35
ATOM     34  C   UNL     1      -3.225   0.232   1.238  0.00  0.00    -0.096 C 
ATOM     35  N   UNL     1      -1.758   0.233   1.174  0.00  0.00    +0.382 N 
ATOM     36  C   UNL     1      -1.212  -0.287   2.435  0.00  0.00    -0.096 C 
ATOM     37  H   UNL     1      -1.427   1.175   1.028  0.00  0.00    -0.082 HD
ENDBRANCH  23  35
ENDBRANCH  22  23
ENDBRANCH   1  22
TORSDOF 6
