REMARK  Name = ZINC36064301
REMARK  13 active torsions:
REMARK  status: ('A' for Active; 'I' for Inactive)
REMARK    1  A    between atoms: C_1  and  C_2
REMARK    2  A    between atoms: C_2  and  O_3
REMARK    3  A    between atoms: O_3  and  C_4
REMARK    4  A    between atoms: C_4  and  C_6
REMARK    5  A    between atoms: C_12  and  C_14
REMARK    6  A    between atoms: C_17  and  C_19
REMARK    7  A    between atoms: C_19  and  N_20
REMARK    8  A    between atoms: N_20  and  C_21
REMARK    9  A    between atoms: N_20  and  C_30
REMARK   10  A    between atoms: C_21  and  C_22
REMARK   11  A    between atoms: C_25  and  O_28
REMARK   12  A    between atoms: O_28  and  C_29
REMARK   13  A    between atoms: C_30  and  C_31
REMARK                            x       y       z     vdW  Elec       q    Type
REMARK                         _______ _______ _______ _____ _____    ______ ____
ROOT
ATOM      1  C   UNL     1       2.203  -8.967  -4.003  0.00  0.00    +0.020 C 
ENDROOT
BRANCH   1   5
ATOM      2  C   UNL     1       0.806  -5.736  -4.859  0.00  0.00    +0.164 A 
ATOM      3  C   UNL     1       0.510  -6.437  -5.987  0.00  0.00    +0.230 A 
ATOM      4  O   UNL     1       0.980  -7.682  -5.809  0.00  0.00    -0.449 OA
ATOM      5  C   UNL     1       1.552  -7.745  -4.598  0.00  0.00    +0.179 A 
ATOM      6  N   UNL     1       1.459  -6.585  -4.020  0.00  0.00    -0.210 NA
BRANCH   2  13
ATOM      7  C   UNL     1       0.151  -2.932  -0.747  0.00  0.00    +0.101 C 
ATOM      8  C   UNL     1      -0.399  -2.161  -1.949  0.00  0.00    +0.033 C 
ATOM      9  C   UNL     1       0.539  -2.352  -3.145  0.00  0.00    +0.109 C 
ATOM     10  N   UNL     1       0.719  -3.791  -3.381  0.00  0.00    -0.296 N 
ATOM     11  C   UNL     1       1.158  -4.640  -2.266  0.00  0.00    +0.109 C 
ATOM     12  C   UNL     1       0.212  -4.424  -1.080  0.00  0.00    +0.033 C 
ATOM     13  C   UNL     1       0.484  -4.321  -4.598  0.00  0.00    +0.268 C 
ATOM     14  O   UNL     1       0.008  -3.633  -5.480  0.00  0.00    -0.268 OA
BRANCH   7  15
ATOM     15  C   UNL     1      -0.752  -2.719   0.441  0.00  0.00    +0.310 C 
ATOM     16  O   UNL     1      -1.291  -3.664   0.967  0.00  0.00    -0.251 OA
BRANCH  15  17
ATOM     17  O   UNL     1      -0.957  -1.480   0.915  0.00  0.00    -0.465 OA
BRANCH  17  19
ATOM     18  C   UNL     1      -1.936   0.122   2.437  0.00  0.00    +0.048 C 
ATOM     19  C   UNL     1      -1.825  -1.353   2.043  0.00  0.00    +0.229 C 
ENDBRANCH  17  19
ENDBRANCH  15  17
ENDBRANCH   7  15
ENDBRANCH   2  13
ENDBRANCH   1   5
BRANCH   1  20
ATOM     20  N   UNL     1       1.190  -9.775  -3.312  0.00  0.00    +0.391 N 
ATOM     21  H   UNL     1       0.661  -9.188  -2.685  0.00  0.00    -0.080 HD
BRANCH  20  22
ATOM     22  C   UNL     1       0.283 -10.374  -4.302  0.00  0.00    -0.042 C 
BRANCH  22  23
ATOM     23  C   UNL     1      -0.828 -11.101  -3.589  0.00  0.00    -0.064 A 
ATOM     24  C   UNL     1      -0.676 -12.434  -3.255  0.00  0.00    +0.005 A 
ATOM     25  C   UNL     1      -1.693 -13.104  -2.603  0.00  0.00    +0.046 A 
ATOM     26  C   UNL     1      -2.867 -12.438  -2.283  0.00  0.00    +0.120 A 
ATOM     27  C   UNL     1      -3.017 -11.100  -2.619  0.00  0.00    +0.046 A 
ATOM     28  C   UNL     1      -1.994 -10.434  -3.266  0.00  0.00    +0.005 A 
BRANCH  26  29
ATOM     29  O   UNL     1      -3.869 -13.094  -1.641  0.00  0.00    -0.495 OA
ATOM     30  C   UNL     1      -5.049 -12.345  -1.343  0.00  0.00    +0.277 C 
ENDBRANCH  26  29
ENDBRANCH  22  23
ENDBRANCH  20  22
BRANCH  20  31
ATOM     31  C   UNL     1       1.851 -10.840  -2.547  0.00  0.00    -0.042 C 
BRANCH  31  32
ATOM     32  C   UNL     1       2.656 -10.229  -1.429  0.00  0.00    -0.064 A 
ATOM     33  C   UNL     1       3.990  -9.926  -1.624  0.00  0.00    +0.004 A 
ATOM     34  C   UNL     1       4.729  -9.366  -0.600  0.00  0.00    +0.038 A 
ATOM     35  C   UNL     1       4.133  -9.108   0.623  0.00  0.00    +0.123 A 
ATOM     36  C   UNL     1       2.796  -9.412   0.818  0.00  0.00    +0.038 A 
ATOM     37  C   UNL     1       2.058  -9.968  -0.210  0.00  0.00    +0.004 A 
ATOM     38  F   UNL     1       4.854  -8.560   1.625  0.00  0.00    -0.205 F 
ENDBRANCH  31  32
ENDBRANCH  20  31
ENDBRANCH   1  20
TORSDOF 11
