REMARK  Name = ZINC15276293
REMARK  5 active torsions:
REMARK  status: ('A' for Active; 'I' for Inactive)
REMARK    1  A    between atoms: C_1  and  C_2
REMARK    2  A    between atoms: C_2  and  C_29
REMARK    3  A    between atoms: C_7  and  C_9
REMARK    4  A    between atoms: C_14  and  O_15
REMARK    5  A    between atoms: N_19  and  C_22
REMARK                            x       y       z     vdW  Elec       q    Type
REMARK                         _______ _______ _______ _____ _____    ______ ____
ROOT
ATOM      1  C   UNL     1       3.086  -5.252  -1.489  0.00  0.00    +0.002 C 
ATOM      2  C   UNL     1       2.477  -5.393  -0.092  0.00  0.00    +0.045 C 
ATOM      3  C   UNL     1       1.901  -4.098   0.354  0.00  0.00    +0.086 C 
ATOM      4  C   UNL     1       0.476  -4.150  -0.326  0.00  0.00    +0.077 C 
ATOM      5  C   UNL     1       0.072  -5.527   0.143  0.00  0.00    -0.023 C 
ATOM      6  C   UNL     1      -0.033  -2.860   0.196  0.00  0.00    +0.229 C 
ATOM      7  O   UNL     1      -1.167  -2.599   0.538  0.00  0.00    -0.275 OA
ATOM      8  N   UNL     1       1.052  -2.024   0.208  0.00  0.00    -0.210 N 
ATOM      9  C   UNL     1       2.240  -2.701   0.097  0.00  0.00    +0.229 C 
ATOM     10  O   UNL     1       3.333  -2.241  -0.159  0.00  0.00    -0.275 OA
ATOM     11  N   UNL     1       1.310  -6.321  -0.119  0.00  0.00    +0.395 N 
ATOM     12  H   UNL     1       1.422  -7.040   0.605  0.00  0.00    -0.083 HD
ATOM     13  H   UNL     1       1.246  -6.770  -1.041  0.00  0.00    -0.083 HD
ENDROOT
BRANCH   5  14
ATOM     14  C   UNL     1      -1.090  -6.049  -0.662  0.00  0.00    -0.018 A 
ATOM     15  C   UNL     1      -1.424  -5.449  -1.861  0.00  0.00    +0.025 A 
ATOM     16  C   UNL     1      -2.488  -5.930  -2.603  0.00  0.00    +0.041 A 
ATOM     17  C   UNL     1      -3.225  -7.007  -2.142  0.00  0.00    +0.023 A 
ATOM     18  C   UNL     1      -2.897  -7.606  -0.941  0.00  0.00    +0.047 A 
ATOM     19  C   UNL     1      -1.828  -7.128  -0.198  0.00  0.00    +0.119 A 
ATOM     20 CL   UNL     1      -2.903  -5.179  -4.112  0.00  0.00    -0.084 Cl
BRANCH  19  21
ATOM     21  O   UNL     1      -1.503  -7.716   0.984  0.00  0.00    -0.507 OA
ATOM     22  H   UNL     1      -2.008  -7.385   1.740  0.00  0.00    +0.292 HD
ENDBRANCH  19  21
ENDBRANCH   5  14
BRANCH   8  23
ATOM     23  C   UNL     1       0.959  -0.629   0.326  0.00  0.00    +0.044 A 
ATOM     24  C   UNL     1      -0.285  -0.023   0.434  0.00  0.00    +0.025 A 
ATOM     25  C   UNL     1      -0.374   1.351   0.549  0.00  0.00    +0.022 A 
ATOM     26  C   UNL     1       0.775   2.122   0.558  0.00  0.00    +0.041 A 
ATOM     27  C   UNL     1       2.016   1.519   0.451  0.00  0.00    +0.022 A 
ATOM     28  C   UNL     1       2.110   0.146   0.335  0.00  0.00    +0.025 A 
ATOM     29 CL   UNL     1       0.659   3.848   0.703  0.00  0.00    -0.084 Cl
ENDBRANCH   8  23
BRANCH   2  30
ATOM     30  C   UNL     1       3.515  -5.872   0.889  0.00  0.00    +0.346 C 
ATOM     31  O   UNL     1       4.095  -5.078   1.592  0.00  0.00    -0.248 OA
ATOM     32  O   UNL     1       3.796  -7.181   0.983  0.00  0.00    -0.248 OA
ENDBRANCH   2  30
TORSDOF 4
