REMARK  Name = ZINC24035034
REMARK  11 active torsions:
REMARK  status: ('A' for Active; 'I' for Inactive)
REMARK    1  A    between atoms: C_1  and  C_2
REMARK    2  A    between atoms: C_2  and  C_35
REMARK    3  A    between atoms: C_7  and  C_11
REMARK    4  A    between atoms: N_12  and  N_13
REMARK    5  A    between atoms: N_13  and  C_14
REMARK    6  A    between atoms: C_17  and  S_23
REMARK    7  A    between atoms: C_19  and  N_20
REMARK    8  A    between atoms: S_23  and  N_26
REMARK    9  A    between atoms: N_26  and  C_27
REMARK   10  A    between atoms: C_30  and  O_33
REMARK   11  A    between atoms: O_33  and  C_34
REMARK                            x       y       z     vdW  Elec       q    Type
REMARK                         _______ _______ _______ _____ _____    ______ ____
ROOT
ATOM      1  C   UNL     1      -0.397   2.618   6.585  0.00  0.00    +0.079 A 
ATOM      2  C   UNL     1      -1.743   2.967   6.583  0.00  0.00    +0.029 A 
ATOM      3  C   UNL     1      -2.339   3.417   7.745  0.00  0.00    +0.031 A 
ATOM      4  C   UNL     1      -1.599   3.520   8.909  0.00  0.00    +0.111 A 
ATOM      5  C   UNL     1      -0.260   3.174   8.914  0.00  0.00    +0.063 A 
ATOM      6  C   UNL     1       0.342   2.717   7.758  0.00  0.00    +0.150 A 
ENDROOT
BRANCH   6   7
ATOM      7  N   UNL     1       1.773   2.340   7.766  0.00  0.00    +0.058 N 
ATOM      8  O   UNL     1       2.155   1.402   7.106  0.00  0.00    -0.126 OA
ATOM      9  O   UNL     1       2.560   2.971   8.432  0.00  0.00    -0.126 OA
ENDBRANCH   6   7
BRANCH   4  10
ATOM     10  S   UNL     1      -2.363   4.095  10.388  0.00  0.00    +0.072 S 
ATOM     11  O   UNL     1      -1.346   4.728  11.152  0.00  0.00    -0.150 OA
ATOM     12  O   UNL     1      -3.552   4.768   9.996  0.00  0.00    -0.150 OA
BRANCH  10  13
ATOM     13  N   UNL     1      -2.837   2.760  11.245  0.00  0.00    -0.216 N 
ATOM     14  H   UNL     1      -2.457   2.586  12.121  0.00  0.00    +0.174 HD
BRANCH  13  15
ATOM     15  C   UNL     1      -3.785   1.883  10.707  0.00  0.00    +0.048 A 
ATOM     16  C   UNL     1      -4.934   2.383  10.110  0.00  0.00    +0.028 A 
ATOM     17  C   UNL     1      -5.869   1.517   9.578  0.00  0.00    +0.047 A 
ATOM     18  C   UNL     1      -5.660   0.147   9.640  0.00  0.00    +0.120 A 
ATOM     19  C   UNL     1      -4.513  -0.354  10.237  0.00  0.00    +0.047 A 
ATOM     20  C   UNL     1      -3.574   0.511  10.764  0.00  0.00    +0.028 A 
BRANCH  18  21
ATOM     21  O   UNL     1      -6.581  -0.706   9.117  0.00  0.00    -0.495 OA
ATOM     22  C   UNL     1      -6.302  -2.104   9.216  0.00  0.00    +0.277 C 
ENDBRANCH  18  21
ENDBRANCH  13  15
ENDBRANCH  10  13
ENDBRANCH   4  10
BRANCH   1  23
ATOM     23  N   UNL     1       0.208   2.164   5.413  0.00  0.00    -0.236 N 
ATOM     24  H   UNL     1       1.163   1.995   5.395  0.00  0.00    +0.174 HD
BRANCH  23  26
ATOM     25  C   UNL     1       0.002   1.528   3.170  0.00  0.00    +0.134 C 
ATOM     26  N   UNL     1      -0.563   1.951   4.263  0.00  0.00    -0.190 NA
BRANCH  25  32
ATOM     27  C   UNL     1      -0.939   3.080  -0.241  0.00  0.00    +0.012 C 
ATOM     28  C   UNL     1      -0.712   1.597  -0.540  0.00  0.00    -0.025 C 
ATOM     29  C   UNL     1      -1.978   0.730  -0.395  0.00  0.00    -0.000 C 
ATOM     30  C   UNL     1      -2.906   1.292   0.691  0.00  0.00    +0.031 C 
ATOM     31  C   UNL     1      -2.122   1.528   1.959  0.00  0.00    -0.021 C 
ATOM     32  C   UNL     1      -0.805   1.305   1.966  0.00  0.00    -0.028 C 
ATOM     33  C   UNL     1      -0.171   0.796   0.659  0.00  0.00    +0.026 C 
ATOM     34  C   UNL     1      -1.029  -0.370   0.110  0.00  0.00    +0.013 C 
ATOM     35  C   UNL     1       0.059   1.360  -1.840  0.00  0.00    +0.012 C 
ENDBRANCH  25  32
ENDBRANCH  23  26
ENDBRANCH   1  23
TORSDOF 8
