REMARK  Name = ZINC35201141
REMARK  10 active torsions:
REMARK  status: ('A' for Active; 'I' for Inactive)
REMARK    1  A    between atoms: C_1  and  C_2
REMARK    2  A    between atoms: C_2  and  O_3
REMARK    3  A    between atoms: O_3  and  C_4
REMARK    4  A    between atoms: C_4  and  C_6
REMARK    5  A    between atoms: C_12  and  C_14
REMARK    6  A    between atoms: N_27  and  C_30
REMARK    7  A    between atoms: C_28  and  N_29
REMARK    8  A    between atoms: C_30  and  C_31
REMARK    9  A    between atoms: C_31  and  C_32
REMARK   10  A    between atoms: C_31  and  C_33
REMARK                            x       y       z     vdW  Elec       q    Type
REMARK                         _______ _______ _______ _____ _____    ______ ____
ROOT
ATOM      1  C   UNL     1       1.362  -6.136  -5.715  0.00  0.00    +0.075 A 
ATOM      2  C   UNL     1       1.913  -6.612  -4.524  0.00  0.00    +0.033 A 
ATOM      3  C   UNL     1       2.087  -7.987  -4.388  0.00  0.00    +0.083 A 
ATOM      4  C   UNL     1       1.707  -8.855  -5.447  0.00  0.00    +0.150 A 
ATOM      5  N   UNL     1       1.883 -10.172  -5.297  0.00  0.00    -0.211 NA
ATOM      6  C   UNL     1       2.401 -10.695  -4.192  0.00  0.00    +0.143 A 
ATOM      7  C   UNL     1       2.552 -12.097  -4.118  0.00  0.00    +0.047 A 
ATOM      8  C   UNL     1       3.080 -12.658  -2.997  0.00  0.00    +0.005 A 
ATOM      9  C   UNL     1       3.469 -11.838  -1.926  0.00  0.00    +0.018 A 
ATOM     10  C   UNL     1       3.319 -10.499  -2.011  0.00  0.00    +0.096 A 
ATOM     11  N   UNL     1       2.791  -9.924  -3.130  0.00  0.00    -0.268 N 
ATOM     12  C   UNL     1       2.656  -8.577  -3.175  0.00  0.00    +0.268 A 
ATOM     13  O   UNL     1       2.999  -7.880  -2.238  0.00  0.00    -0.267 OA
ATOM     14  N   UNL     1       1.184  -8.353  -6.568  0.00  0.00    -0.313 N 
ATOM     15  C   UNL     1       1.001  -7.056  -6.725  0.00  0.00    +0.110 A 
ENDROOT
BRANCH   1  22
ATOM     16  C   UNL     1      -1.802  -2.716  -3.859  0.00  0.00    +0.101 C 
ATOM     17  C   UNL     1      -1.143  -2.136  -5.112  0.00  0.00    +0.033 C 
ATOM     18  C   UNL     1       0.339  -2.521  -5.131  0.00  0.00    +0.109 C 
ATOM     19  N   UNL     1       0.449  -3.982  -5.013  0.00  0.00    -0.297 N 
ATOM     20  C   UNL     1      -0.224  -4.653  -3.892  0.00  0.00    +0.109 C 
ATOM     21  C   UNL     1      -1.700  -4.243  -3.888  0.00  0.00    +0.033 C 
ATOM     22  C   UNL     1       1.155  -4.692  -5.915  0.00  0.00    +0.250 C 
ATOM     23  O   UNL     1       1.619  -4.141  -6.894  0.00  0.00    -0.270 OA
BRANCH  16  24
ATOM     24  C   UNL     1      -3.253  -2.311  -3.820  0.00  0.00    +0.310 C 
ATOM     25  O   UNL     1      -4.116  -3.155  -3.816  0.00  0.00    -0.251 OA
BRANCH  24  26
ATOM     26  O   UNL     1      -3.585  -1.010  -3.790  0.00  0.00    -0.465 OA
BRANCH  26  28
ATOM     27  C   UNL     1      -5.161   0.821  -3.723  0.00  0.00    +0.048 C 
ATOM     28  C   UNL     1      -4.979  -0.698  -3.754  0.00  0.00    +0.229 C 
ENDBRANCH  26  28
ENDBRANCH  24  26
ENDBRANCH  16  24
ENDBRANCH   1  22
BRANCH  15  29
ATOM     29  N   UNL     1       0.452  -6.588  -7.900  0.00  0.00    -0.344 N 
ATOM     30  H   UNL     1       0.379  -5.634  -8.056  0.00  0.00    +0.144 HD
ATOM     31  H   UNL     1       0.137  -7.214  -8.571  0.00  0.00    +0.144 HD
ENDBRANCH  15  29
BRANCH  14  32
ATOM     32  C   UNL     1       0.799  -9.265  -7.648  0.00  0.00    +0.128 C 
BRANCH  32  33
ATOM     33  C   UNL     1      -0.657  -9.695  -7.458  0.00  0.00    +0.003 C 
ATOM     34  C   UNL     1      -1.571  -8.478  -7.610  0.00  0.00    +0.009 C 
ATOM     35  C   UNL     1      -1.021 -10.742  -8.512  0.00  0.00    +0.009 C 
ENDBRANCH  32  33
ENDBRANCH  14  32
TORSDOF 7
