REMARK  Name = ZINC64182159
REMARK  5 active torsions:
REMARK  status: ('A' for Active; 'I' for Inactive)
REMARK    1  A    between atoms: C_1  and  C_2
REMARK    2  A    between atoms: C_5  and  S_8
REMARK    3  A    between atoms: S_8  and  N_11
REMARK    4  A    between atoms: C_15  and  C_17
REMARK    5  A    between atoms: C_22  and  C_25
REMARK                            x       y       z     vdW  Elec       q    Type
REMARK                         _______ _______ _______ _____ _____    ______ ____
ROOT
ATOM      1  C   UNL     1       1.884  -6.389   1.961  0.00  0.00    +0.235 C 
ATOM      2  O   UNL     1       0.820  -6.880   1.647  0.00  0.00    -0.274 OA
ATOM      3  N   UNL     1       2.545  -6.848   3.042  0.00  0.00    -0.296 N 
ATOM      4  C   UNL     1       2.060  -8.016   3.797  0.00  0.00    +0.113 C 
ATOM      5  C   UNL     1       3.120  -9.116   3.698  0.00  0.00    +0.054 C 
ATOM      6  C   UNL     1       4.486  -8.551   3.951  0.00  0.00    -0.043 C 
ATOM      7  C   UNL     1       4.786  -7.261   3.864  0.00  0.00    -0.004 C 
ATOM      8  C   UNL     1       3.781  -6.205   3.511  0.00  0.00    +0.135 C 
ENDROOT
BRANCH   6   9
ATOM      9  C   UNL     1       5.516  -9.446   4.304  0.00  0.00    -0.016 C 
ATOM     10  C   UNL     1       5.446 -10.833   4.344  0.00  0.00    +0.003 A 
ATOM     11  C   UNL     1       4.401 -11.745   4.066  0.00  0.00    +0.010 A 
ATOM     12  C   UNL     1       4.621 -13.077   4.191  0.00  0.00    +0.001 A 
ATOM     13  C   UNL     1       5.863 -13.581   4.592  0.00  0.00    +0.002 A 
ATOM     14  C   UNL     1       6.908 -12.768   4.874  0.00  0.00    +0.026 A 
ATOM     15  C   UNL     1       6.756 -11.360   4.766  0.00  0.00    +0.043 A 
ATOM     16  N   UNL     1       7.601 -10.374   4.980  0.00  0.00    -0.380 N 
ATOM     17  C   UNL     1       6.930  -9.098   4.713  0.00  0.00    +0.149 C 
ATOM     18  H   UNL     1       8.522 -10.475   5.265  0.00  0.00    +0.160 HD
ENDBRANCH   6   9
BRANCH   1  23
ATOM     19  N   UNL     1       1.395  -4.569   0.415  0.00  0.00    -0.165 NA
ATOM     20  C   UNL     1       1.646  -4.696  -1.032  0.00  0.00    +0.110 C 
ATOM     21  C   UNL     1       3.171  -4.943  -1.150  0.00  0.00    +0.019 C 
ATOM     22  C   UNL     1       3.438  -5.838   0.088  0.00  0.00    +0.031 C 
ATOM     23  C   UNL     1       2.466  -5.266   1.142  0.00  0.00    +0.166 C 
BRANCH  19  24
ATOM     24  S   UNL     1       0.122  -3.769   1.108  0.00  0.00    +0.062 S 
ATOM     25  O   UNL     1      -0.057  -4.331   2.400  0.00  0.00    -0.153 OA
ATOM     26  O   UNL     1      -0.917  -3.742   0.138  0.00  0.00    -0.153 OA
BRANCH  24  31
ATOM     27  C   UNL     1       1.848   1.952   1.942  0.00  0.00    +0.044 C 
ATOM     28  C   UNL     1       1.417   0.523   1.733  0.00  0.00    -0.050 A 
ATOM     29  C   UNL     1       0.807   0.151   0.550  0.00  0.00    +0.005 A 
ATOM     30  C   UNL     1       0.411  -1.160   0.359  0.00  0.00    +0.029 A 
ATOM     31  C   UNL     1       0.626  -2.098   1.351  0.00  0.00    +0.106 A 
ATOM     32  C   UNL     1       1.237  -1.726   2.534  0.00  0.00    +0.029 A 
ATOM     33  C   UNL     1       1.637  -0.416   2.723  0.00  0.00    +0.005 A 
ENDBRANCH  24  31
ENDBRANCH  19  24
ENDBRANCH   1  23
TORSDOF 4
