REMARK  Name = ZINC59819669
REMARK  7 active torsions:
REMARK  status: ('A' for Active; 'I' for Inactive)
REMARK    1  A    between atoms: C_1  and  C_2
REMARK    2  A    between atoms: C_9  and  C_11
REMARK    3  A    between atoms: C_11  and  S_12
REMARK    4  A    between atoms: S_12  and  C_13
REMARK    5  A    between atoms: N_18  and  N_19
REMARK    6  A    between atoms: C_20  and  C_21
REMARK    7  A    between atoms: C_20  and  C_22
REMARK                            x       y       z     vdW  Elec       q    Type
REMARK                         _______ _______ _______ _____ _____    ______ ____
ROOT
ATOM      1  C   UNL     1       3.777   0.514   5.386  0.00  0.00    +0.211 A 
ATOM      2  N   UNL     1       4.374   1.157   6.396  0.00  0.00    -0.186 NA
ATOM      3  C   UNL     1       5.102   0.309   7.092  0.00  0.00    +0.232 A 
ATOM      4  N   UNL     1       4.977  -0.910   6.525  0.00  0.00    -0.245 N 
ATOM      5  N   UNL     1       4.114  -0.753   5.429  0.00  0.00    -0.144 NA
ATOM      6  N   UNL     1       5.860   0.613   8.207  0.00  0.00    -0.205 N 
ATOM      7  H   UNL     1       6.366  -0.083   8.655  0.00  0.00    +0.177 HD
ATOM      8  H   UNL     1       5.399  -1.733   6.819  0.00  0.00    +0.192 HD
ENDROOT
BRANCH   6   9
ATOM      9  N   UNL     1       5.899   1.928   8.691  0.00  0.00    -0.184 NA
ATOM     10  C   UNL     1       6.611   2.213   9.738  0.00  0.00    +0.063 C 
ATOM     11  C   UNL     1       7.396   1.131  10.434  0.00  0.00    +0.068 C 
BRANCH  10  12
ATOM     12  C   UNL     1       6.651   3.597  10.247  0.00  0.00    -0.002 A 
ATOM     13  C   UNL     1       7.421   3.909  11.370  0.00  0.00    +0.011 A 
ATOM     14  C   UNL     1       7.454   5.205  11.841  0.00  0.00    +0.016 A 
ATOM     15  C   UNL     1       6.728   6.196  11.202  0.00  0.00    +0.018 A 
ATOM     16  C   UNL     1       5.963   5.893  10.088  0.00  0.00    +0.016 A 
ATOM     17  C   UNL     1       5.924   4.602   9.604  0.00  0.00    +0.011 A 
ATOM     18 BR   UNL     1       6.779   7.970  11.855  0.00  0.00    -0.050 Br
ENDBRANCH  10  12
ENDBRANCH   6   9
BRANCH   1  19
ATOM     19  S   UNL     1       2.707   1.249   4.195  0.00  0.00    -0.075 S 
BRANCH  19  20
ATOM     20  C   UNL     1       2.232  -0.133   3.120  0.00  0.00    +0.173 C 
BRANCH  20  28
ATOM     21  C   UNL     1       0.008   1.528  -0.006  0.00  0.00    +0.028 C 
ATOM     22  C   UNL     1       0.016  -0.002  -0.007  0.00  0.00    +0.073 C 
ATOM     23  C   UNL     1       0.633  -0.512  -1.313  0.00  0.00    +0.022 C 
ATOM     24  C   UNL     1       0.765  -2.035  -1.250  0.00  0.00    +0.003 C 
ATOM     25  C   UNL     1       1.692  -2.421  -0.095  0.00  0.00    +0.019 C 
ATOM     26  C   UNL     1       1.087  -1.933   1.225  0.00  0.00    +0.108 C 
ATOM     27  N   UNL     1       0.819  -0.492   1.122  0.00  0.00    -0.298 N 
ATOM     28  C   UNL     1       1.304   0.365   2.042  0.00  0.00    +0.226 C 
ATOM     29  O   UNL     1       0.994   1.537   2.003  0.00  0.00    -0.275 OA
ENDBRANCH  20  28
ENDBRANCH  19  20
ENDBRANCH   1  19
TORSDOF 5
