REMARK  Name = ZINC55125154
REMARK  4 active torsions:
REMARK  status: ('A' for Active; 'I' for Inactive)
REMARK    1  A    between atoms: C_1  and  C_2
REMARK    2  A    between atoms: C_6  and  C_12
REMARK    3  A    between atoms: C_9  and  N_11
REMARK    4  A    between atoms: N_14  and  C_15
REMARK                            x       y       z     vdW  Elec       q    Type
REMARK                         _______ _______ _______ _____ _____    ______ ____
ROOT
ATOM      1  C   UNL     1      -2.115  -0.061   3.751  0.00  0.00    +0.216 C 
ATOM      2  O   UNL     1      -1.527   0.640   4.548  0.00  0.00    -0.276 OA
ATOM      3  N   UNL     1      -3.398  -0.405   3.975  0.00  0.00    -0.310 N 
ATOM      4  H   UNL     1      -3.868  -0.966   3.338  0.00  0.00    +0.149 HD
ENDROOT
BRANCH   3   5
ATOM      5  C   UNL     1      -4.084   0.067   5.180  0.00  0.00    +0.035 C 
ATOM      6  C   UNL     1      -4.105   1.597   5.189  0.00  0.00    +0.029 C 
ATOM      7  C   UNL     1      -4.821   2.090   6.447  0.00  0.00    -0.008 C 
ATOM      8  C   UNL     1      -6.256   1.561   6.458  0.00  0.00    +0.007 C 
ATOM      9  C   UNL     1      -6.236   0.031   6.450  0.00  0.00    -0.008 C 
ATOM     10  C   UNL     1      -5.520  -0.463   5.191  0.00  0.00    +0.029 C 
ATOM     11  C   UNL     1      -5.496  -0.476   7.689  0.00  0.00    +0.007 C 
ATOM     12  C   UNL     1      -4.060   0.054   7.678  0.00  0.00    -0.008 C 
ATOM     13  C   UNL     1      -4.081   1.583   7.687  0.00  0.00    +0.007 C 
ATOM     14  C   UNL     1      -3.344  -0.440   6.420  0.00  0.00    +0.029 C 
ENDBRANCH   3   5
BRANCH   1  19
ATOM     15  C   UNL     1      -0.019   1.526   0.010  0.00  0.00    +0.006 C 
ATOM     16  C   UNL     1       0.002  -0.004   0.002  0.00  0.00    -0.029 C 
ATOM     17  C   UNL     1      -1.433  -0.534   0.013  0.00  0.00    +0.002 C 
ATOM     18  C   UNL     1      -2.149  -0.040   1.272  0.00  0.00    +0.013 C 
ATOM     19  C   UNL     1      -1.409  -0.547   2.511  0.00  0.00    +0.073 C 
ATOM     20  C   UNL     1       0.026  -0.018   2.500  0.00  0.00    -0.003 C 
ATOM     21  C   UNL     1       0.742  -0.511   1.242  0.00  0.00    -0.072 C 
BRANCH  21  22
ATOM     22  N   UNL     1       2.120  -0.002   1.231  0.00  0.00    +0.380 N 
ATOM     23  H   UNL     1       2.107   1.006   1.237  0.00  0.00    -0.090 HD
ATOM     24  H   UNL     1       2.608  -0.337   2.049  0.00  0.00    -0.090 HD
ATOM     25  H   UNL     1       2.592  -0.328   0.401  0.00  0.00    -0.090 HD
ENDBRANCH  21  22
ENDBRANCH   1  19
TORSDOF 3
