REMARK  Name = ZINC15184129
REMARK  11 active torsions:
REMARK  status: ('A' for Active; 'I' for Inactive)
REMARK    1  A    between atoms: C_1  and  C_2
REMARK    2  A    between atoms: C_2  and  N_3
REMARK    3  A    between atoms: N_3  and  C_4
REMARK    4  A    between atoms: N_3  and  C_6
REMARK    5  A    between atoms: C_4  and  C_5
REMARK    6  A    between atoms: C_9  and  C_12
REMARK    7  A    between atoms: C_12  and  N_13
REMARK    8  A    between atoms: N_13  and  C_14
REMARK    9  A    between atoms: C_14  and  C_15
REMARK   10  A    between atoms: C_15  and  C_16
REMARK   11  A    between atoms: C_16  and  N_17
REMARK                            x       y       z     vdW  Elec       q    Type
REMARK                         _______ _______ _______ _____ _____    ______ ____
ROOT
ATOM      1  N   UNL     1      -2.301  -0.209  -6.759  0.00  0.00    +0.382 N 
ATOM      2  H   UNL     1      -2.745   0.527  -6.231  0.00  0.00    -0.085 HD
ATOM      3  H   UNL     1      -1.361   0.067  -6.998  0.00  0.00    -0.085 HD
ENDROOT
BRANCH   1   4
ATOM      4  C   UNL     1      -2.261  -1.436  -5.951  0.00  0.00    -0.047 C 
BRANCH   4   8
ATOM      5  C   UNL     1      -0.038  -0.713  -2.373  0.00  0.00    +0.030 A 
ATOM      6  C   UNL     1      -1.410  -0.495  -2.396  0.00  0.00    +0.023 A 
ATOM      7  C   UNL     1      -2.125  -0.729  -3.554  0.00  0.00    +0.003 A 
ATOM      8  C   UNL     1      -1.477  -1.180  -4.690  0.00  0.00    -0.064 A 
ATOM      9  C   UNL     1      -0.112  -1.398  -4.670  0.00  0.00    +0.003 A 
ATOM     10  C   UNL     1       0.610  -1.161  -3.517  0.00  0.00    +0.023 A 
BRANCH   5  11
ATOM     11  N   UNL     1       0.688  -0.476  -1.203  0.00  0.00    -0.330 N 
BRANCH  11  13
ATOM     12  C   UNL     1      -0.019   1.526   0.010  0.00  0.00    +0.024 C 
ATOM     13  C   UNL     1       0.002  -0.004   0.002  0.00  0.00    +0.102 C 
ENDBRANCH  11  13
BRANCH  11  14
ATOM     14  C   UNL     1       2.135  -0.701  -1.182  0.00  0.00    +0.102 C 
ATOM     15  C   UNL     1       2.421  -2.145  -0.763  0.00  0.00    +0.024 C 
ENDBRANCH  11  14
ENDBRANCH   5  11
ENDBRANCH   4   8
ENDBRANCH   1   4
BRANCH   1  16
ATOM     16  C   UNL     1      -3.065  -0.458  -7.989  0.00  0.00    -0.081 C 
BRANCH  16  17
ATOM     17  C   UNL     1      -3.107   0.819  -8.831  0.00  0.00    +0.000 C 
BRANCH  17  18
ATOM     18  C   UNL     1      -3.903   0.559 -10.111  0.00  0.00    +0.116 C 
BRANCH  18  19
ATOM     19  N   UNL     1      -3.943   1.782 -10.917  0.00  0.00    -0.224 N 
ATOM     20  C   UNL     1      -4.899   2.730 -10.812  0.00  0.00    +0.246 C 
ATOM     21  O   UNL     1      -5.851   2.734 -10.062  0.00  0.00    -0.273 OA
ATOM     22  C   UNL     1      -4.529   3.783 -11.825  0.00  0.00    +0.113 C 
ATOM     23  C   UNL     1      -4.289   5.139 -11.148  0.00  0.00    +0.035 C 
ATOM     24  C   UNL     1      -4.814   6.171 -12.180  0.00  0.00    +0.003 C 
ATOM     25  C   UNL     1      -6.056   5.462 -12.775  0.00  0.00    +0.003 C 
ATOM     26  C   UNL     1      -5.641   3.976 -12.858  0.00  0.00    +0.035 C 
ATOM     27  N   UNL     1      -3.303   3.279 -12.447  0.00  0.00    -0.285 N 
ATOM     28  C   UNL     1      -3.033   2.102 -11.847  0.00  0.00    +0.309 C 
ATOM     29  O   UNL     1      -2.074   1.407 -12.121  0.00  0.00    -0.252 OA
ATOM     30  H   UNL     1      -2.787   3.707 -13.148  0.00  0.00    +0.151 HD
ENDBRANCH  18  19
ENDBRANCH  17  18
ENDBRANCH  16  17
ENDBRANCH   1  16
TORSDOF 9
