REMARK  Name = ZINC47146202
REMARK  4 active torsions:
REMARK  status: ('A' for Active; 'I' for Inactive)
REMARK    1  A    between atoms: C_3  and  C_33
REMARK    2  A    between atoms: C_5  and  N_7
REMARK    3  A    between atoms: C_12  and  C_26
REMARK    4  A    between atoms: C_29  and  O_32
REMARK                            x       y       z     vdW  Elec       q    Type
REMARK                         _______ _______ _______ _____ _____    ______ ____
ROOT
ATOM      1  N   UNL     1       1.237  -2.082  -0.022  0.00  0.00    -0.209 N 
ATOM      2  C   UNL     1       0.112  -2.844  -0.021  0.00  0.00    +0.232 C 
ATOM      3  O   UNL     1      -1.022  -2.470   0.193  0.00  0.00    -0.274 OA
ATOM      4  C   UNL     1       0.554  -4.238  -0.335  0.00  0.00    +0.110 C 
ATOM      5  C   UNL     1      -0.194  -5.402   0.266  0.00  0.00    +0.072 C 
ATOM      6  C   UNL     1       0.513  -6.672  -0.117  0.00  0.00    +0.033 A 
ATOM      7  C   UNL     1       1.786  -6.855  -0.533  0.00  0.00    +0.088 A 
ATOM      8  N   UNL     1       2.120  -8.154  -0.826  0.00  0.00    -0.311 N 
ATOM      9  H   UNL     1       3.013  -8.366  -1.141  0.00  0.00    +0.170 HD
ATOM     10  C   UNL     1       1.209  -9.133  -0.674  0.00  0.00    +0.289 A 
ATOM     11  O   UNL     1       1.340 -10.327  -0.883  0.00  0.00    -0.260 OA
ATOM     12  S   UNL     1      -0.155  -8.315  -0.128  0.00  0.00    -0.030 S 
ATOM     13  S   UNL     1       2.920  -5.480  -0.663  0.00  0.00    -0.093 S 
ATOM     14  C   UNL     1       1.989  -4.226   0.275  0.00  0.00    +0.152 C 
ATOM     15  C   UNL     1       2.385  -2.808  -0.039  0.00  0.00    +0.240 C 
ATOM     16  O   UNL     1       3.503  -2.395  -0.260  0.00  0.00    -0.274 OA
ENDROOT
BRANCH   1  21
ATOM     17  C   UNL     1      -0.017   1.377   0.010  0.00  0.00    +0.002 A 
ATOM     18  C   UNL     1       1.171   2.086   0.002  0.00  0.00    +0.012 A 
ATOM     19  C   UNL     1       2.380   1.415  -0.013  0.00  0.00    +0.057 A 
ATOM     20  C   UNL     1       2.405   0.034  -0.021  0.00  0.00    +0.036 A 
ATOM     21  C   UNL     1       1.214  -0.680  -0.014  0.00  0.00    +0.044 A 
ATOM     22  C   UNL     1       0.002  -0.004   0.002  0.00  0.00    +0.024 A 
BRANCH  19  23
ATOM     23  C   UNL     1       3.671   2.192  -0.022  0.00  0.00    +0.417 C 
ATOM     24  F   UNL     1       3.391   3.562  -0.012  0.00  0.00    -0.166 F 
ATOM     25  F   UNL     1       4.422   1.861   1.111  0.00  0.00    -0.166 F 
ATOM     26  F   UNL     1       4.399   1.873  -1.173  0.00  0.00    -0.166 F 
ENDBRANCH  19  23
ENDBRANCH   1  21
BRANCH   5  27
ATOM     27  C   UNL     1      -1.605  -5.424  -0.263  0.00  0.00    -0.038 A 
ATOM     28  C   UNL     1      -1.831  -5.554  -1.621  0.00  0.00    +0.008 A 
ATOM     29  C   UNL     1      -3.123  -5.574  -2.108  0.00  0.00    +0.045 A 
ATOM     30  C   UNL     1      -4.195  -5.463  -1.234  0.00  0.00    +0.117 A 
ATOM     31  C   UNL     1      -3.965  -5.333   0.128  0.00  0.00    +0.045 A 
ATOM     32  C   UNL     1      -2.671  -5.319   0.611  0.00  0.00    +0.008 A 
BRANCH  30  33
ATOM     33  O   UNL     1      -5.467  -5.482  -1.711  0.00  0.00    -0.507 OA
ATOM     34  H   UNL     1      -5.855  -6.367  -1.762  0.00  0.00    +0.292 HD
ENDBRANCH  30  33
ENDBRANCH   5  27
TORSDOF 4
