REMARK  Name = ZINC09468511
REMARK  8 active torsions:
REMARK  status: ('A' for Active; 'I' for Inactive)
REMARK    1  A    between atoms: C_1  and  N_2
REMARK    2  A    between atoms: N_9  and  C_14
REMARK    3  A    between atoms: N_12  and  C_13
REMARK    4  A    between atoms: C_14  and  C_15
REMARK    5  A    between atoms: N_17  and  C_18
REMARK    6  A    between atoms: N_17  and  C_21
REMARK    7  A    between atoms: C_18  and  C_19
REMARK    8  A    between atoms: C_21  and  C_22
REMARK                            x       y       z     vdW  Elec       q    Type
REMARK                         _______ _______ _______ _____ _____    ______ ____
ROOT
ATOM      1  C   UNL     1       4.547  -1.862  -3.491  0.00  0.00    +0.225 C 
ENDROOT
BRANCH   1  10
ATOM      2  C   UNL     1       0.491  -4.786  -6.014  0.00  0.00    +0.150 C 
ATOM      3  N   UNL     1       1.752  -5.419  -5.618  0.00  0.00    -0.328 N 
ATOM      4  C   UNL     1       2.089  -6.711  -5.793  0.00  0.00    +0.202 A 
ATOM      5  N   UNL     1       3.289  -6.922  -5.316  0.00  0.00    -0.218 NA
ATOM      6  C   UNL     1       3.783  -5.787  -4.814  0.00  0.00    +0.168 A 
ATOM      7  C   UNL     1       2.818  -4.804  -4.993  0.00  0.00    +0.151 A 
ATOM      8  C   UNL     1       3.083  -3.491  -4.547  0.00  0.00    +0.283 A 
ATOM      9  O   UNL     1       2.253  -2.612  -4.693  0.00  0.00    -0.265 OA
ATOM     10  N   UNL     1       4.266  -3.222  -3.956  0.00  0.00    -0.250 N 
ATOM     11  C   UNL     1       5.193  -4.182  -3.794  0.00  0.00    +0.334 A 
ATOM     12  O   UNL     1       6.250  -3.902  -3.262  0.00  0.00    -0.246 OA
ATOM     13  N   UNL     1       4.978  -5.448  -4.201  0.00  0.00    -0.280 N 
ATOM     14  C   UNL     1       6.013  -6.466  -4.000  0.00  0.00    +0.155 C 
ENDBRANCH   1  10
BRANCH   1  15
ATOM     15  C   UNL     1       4.084  -1.714  -2.064  0.00  0.00    +0.236 C 
ATOM     16  O   UNL     1       3.570  -2.652  -1.493  0.00  0.00    -0.274 OA
ATOM     17  N   UNL     1       4.242  -0.538  -1.424  0.00  0.00    -0.291 N 
BRANCH  17  18
ATOM     18  C   UNL     1       4.863   0.595  -2.114  0.00  0.00    +0.135 C 
BRANCH  18  19
ATOM     19  C   UNL     1       6.353   0.562  -1.892  0.00  0.00    -0.016 C 
ATOM     20  C   UNL     1       7.168   0.566  -2.917  0.00  0.00    +0.005 C 
ENDBRANCH  18  19
ENDBRANCH  17  18
BRANCH  17  21
ATOM     21  C   UNL     1       3.791  -0.394  -0.037  0.00  0.00    +0.150 C 
BRANCH  21  22
ATOM     22  C   UNL     1       2.360   0.076  -0.020  0.00  0.00    +0.008 A 
ATOM     23  C   UNL     1       1.220  -0.657  -0.013  0.00  0.00    +0.014 A 
ATOM     24  C   UNL     1       0.002  -0.004   0.002  0.00  0.00    +0.023 A 
ATOM     25  C   UNL     1      -0.016   1.352   0.009  0.00  0.00    +0.055 A 
ATOM     26  S   UNL     1       1.725   1.745  -0.005  0.00  0.00    -0.085 S 
ATOM     27 BR   UNL     1      -1.501   2.523   0.023  0.00  0.00    -0.043 Br
ENDBRANCH  21  22
ENDBRANCH  17  21
ENDBRANCH   1  15
TORSDOF 6
