REMARK  Name = ZINC08899704
REMARK  10 active torsions:
REMARK  status: ('A' for Active; 'I' for Inactive)
REMARK    1  A    between atoms: C_1  and  C_2
REMARK    2  A    between atoms: C_2  and  N_3
REMARK    3  A    between atoms: C_4  and  C_29
REMARK    4  A    between atoms: C_7  and  S_8
REMARK    5  A    between atoms: S_8  and  C_9
REMARK    6  A    between atoms: C_9  and  C_11
REMARK    7  A    between atoms: C_9  and  C_12
REMARK    8  A    between atoms: N_14  and  C_15
REMARK    9  A    between atoms: C_18  and  S_21
REMARK   10  A    between atoms: S_21  and  N_24
REMARK                            x       y       z     vdW  Elec       q    Type
REMARK                         _______ _______ _______ _____ _____    ______ ____
ROOT
ATOM      1  C   UNL     1      -0.717   1.571   1.249  0.00  0.00    +0.230 C 
ATOM      2  O   UNL     1      -0.341   2.582   1.803  0.00  0.00    -0.274 OA
ATOM      3  N   UNL     1      -1.761   0.878   1.746  0.00  0.00    -0.285 N 
ATOM      4  H   UNL     1      -2.104   0.108   1.266  0.00  0.00    +0.155 HD
ENDROOT
BRANCH   3   5
ATOM      5  C   UNL     1      -2.349   1.270   2.953  0.00  0.00    +0.034 A 
ATOM      6  C   UNL     1      -2.852   0.313   3.825  0.00  0.00    +0.025 A 
ATOM      7  C   UNL     1      -3.427   0.702   5.019  0.00  0.00    +0.030 A 
ATOM      8  C   UNL     1      -3.513   2.044   5.341  0.00  0.00    +0.106 A 
ATOM      9  C   UNL     1      -3.019   3.000   4.473  0.00  0.00    +0.030 A 
ATOM     10  C   UNL     1      -2.437   2.617   3.280  0.00  0.00    +0.025 A 
BRANCH   8  11
ATOM     11  S   UNL     1      -4.254   2.537   6.862  0.00  0.00    +0.061 S 
ATOM     12  O   UNL     1      -4.146   1.429   7.744  0.00  0.00    -0.153 OA
ATOM     13  O   UNL     1      -3.723   3.817   7.176  0.00  0.00    -0.153 OA
BRANCH  11  14
ATOM     14  N   UNL     1      -5.870   2.755   6.571  0.00  0.00    -0.177 NA
ATOM     15  C   UNL     1      -6.504   4.014   6.154  0.00  0.00    +0.109 C 
ATOM     16  C   UNL     1      -8.018   3.746   6.029  0.00  0.00    +0.018 C 
ATOM     17  C   UNL     1      -8.225   2.505   6.936  0.00  0.00    +0.018 C 
ATOM     18  C   UNL     1      -6.912   1.719   6.693  0.00  0.00    +0.109 C 
ENDBRANCH  11  14
ENDBRANCH   8  11
ENDBRANCH   3   5
BRANCH   1  19
ATOM     19  C   UNL     1      -0.017   1.089   0.004  0.00  0.00    +0.137 C 
ATOM     20  C   UNL     1      -0.759   1.606  -1.230  0.00  0.00    +0.029 C 
BRANCH  19  21
ATOM     21  S   UNL     1       1.683   1.710  -0.010  0.00  0.00    -0.074 S 
BRANCH  21  26
ATOM     22  N   UNL     1       3.556   0.998  -1.964  0.00  0.00    -0.300 N 
ATOM     23  C   UNL     1       3.568   0.188  -3.078  0.00  0.00    +0.200 A 
ATOM     24  N   UNL     1       2.367  -0.335  -3.187  0.00  0.00    -0.125 NA
ATOM     25  N   UNL     1       1.619   0.081  -2.229  0.00  0.00    -0.122 NA
ATOM     26  C   UNL     1       2.294   0.895  -1.449  0.00  0.00    +0.193 A 
BRANCH  23  27
ATOM     27  C   UNL     1       4.708  -0.042  -3.980  0.00  0.00    +0.172 A 
ATOM     28  C   UNL     1       4.646  -0.601  -5.221  0.00  0.00    +0.053 A 
ATOM     29  C   UNL     1       5.963  -0.623  -5.721  0.00  0.00    +0.042 A 
ATOM     30  C   UNL     1       6.756  -0.092  -4.770  0.00  0.00    +0.196 A 
ATOM     31  O   UNL     1       5.996   0.258  -3.720  0.00  0.00    -0.460 OA
ENDBRANCH  23  27
BRANCH  22  33
ATOM     32  C   UNL     1       5.472   0.960  -0.445  0.00  0.00    +0.027 C 
ATOM     33  C   UNL     1       4.665   1.798  -1.438  0.00  0.00    +0.122 C 
ENDBRANCH  22  33
ENDBRANCH  21  26
ENDBRANCH  19  21
ENDBRANCH   1  19
TORSDOF 8
