REMARK  Name = ZINC28052730
REMARK  8 active torsions:
REMARK  status: ('A' for Active; 'I' for Inactive)
REMARK    1  A    between atoms: C_1  and  C_2
REMARK    2  A    between atoms: C_5  and  C_8
REMARK    3  A    between atoms: C_11  and  C_34
REMARK    4  A    between atoms: C_21  and  C_24
REMARK    5  A    between atoms: C_26  and  O_32
REMARK    6  A    between atoms: C_29  and  O_30
REMARK    7  A    between atoms: O_30  and  C_31
REMARK    8  A    between atoms: O_32  and  C_33
REMARK                            x       y       z     vdW  Elec       q    Type
REMARK                         _______ _______ _______ _____ _____    ______ ____
ROOT
ATOM      1  C   UNL     1      -2.553   3.869   0.047  0.00  0.00    +0.091 C 
ATOM      2  C   UNL     1      -3.344   3.503  -1.168  0.00  0.00    +0.049 A 
ATOM      3  C   UNL     1      -3.206   3.835  -2.513  0.00  0.00    +0.087 A 
ATOM      4  N   UNL     1      -4.184   3.230  -3.139  0.00  0.00    -0.081 NA
ATOM      5  O   UNL     1      -4.883   2.589  -2.378  0.00  0.00    -0.339 OA
ATOM      6  C   UNL     1      -4.449   2.693  -1.126  0.00  0.00    +0.226 A 
ATOM      7  N   UNL     1      -4.903   2.165   0.065  0.00  0.00    -0.286 N 
ATOM      8  C   UNL     1      -4.414   2.680   1.242  0.00  0.00    +0.019 C 
ATOM      9  C   UNL     1      -3.331   3.485   1.289  0.00  0.00    +0.024 C 
ATOM     10  C   UNL     1      -2.871   4.008   2.511  0.00  0.00    +0.162 C 
ATOM     11  O   UNL     1      -1.885   4.719   2.518  0.00  0.00    -0.292 OA
ATOM     12  C   UNL     1      -3.571   3.710   3.808  0.00  0.00    +0.088 C 
ATOM     13  C   UNL     1      -5.052   3.442   3.522  0.00  0.00    +0.036 C 
ATOM     14  C   UNL     1      -5.146   2.299   2.509  0.00  0.00    +0.060 C 
ATOM     15  C   UNL     1      -2.146   4.714  -3.125  0.00  0.00    +0.069 C 
ATOM     16  H   UNL     1      -5.641   1.350   0.060  0.00  0.00    +0.155 HD
ENDROOT
BRANCH   1  21
ATOM     17  C   UNL     1       2.490   1.048  -0.016  0.00  0.00    +0.044 C 
ATOM     18  C   UNL     1       1.175   1.783   0.000  0.00  0.00    -0.050 A 
ATOM     19  C   UNL     1      -0.013   1.076   0.008  0.00  0.00    +0.003 A 
ATOM     20  C   UNL     1      -1.219   1.751   0.017  0.00  0.00    +0.005 A 
ATOM     21  C   UNL     1      -1.238   3.133   0.030  0.00  0.00    -0.035 A 
ATOM     22  C   UNL     1      -0.050   3.840   0.022  0.00  0.00    +0.005 A 
ATOM     23  C   UNL     1       1.156   3.165   0.008  0.00  0.00    +0.003 A 
ENDBRANCH   1  21
BRANCH  13  24
ATOM     24  C   UNL     1      -5.752   3.049   4.797  0.00  0.00    +0.002 A 
ATOM     25  C   UNL     1      -5.330   1.939   5.503  0.00  0.00    +0.053 A 
ATOM     26  C   UNL     1      -5.970   1.581   6.680  0.00  0.00    +0.121 A 
ATOM     27  C   UNL     1      -7.042   2.331   7.142  0.00  0.00    +0.049 A 
ATOM     28  C   UNL     1      -7.468   3.437   6.433  0.00  0.00    +0.049 A 
ATOM     29  C   UNL     1      -6.824   3.798   5.259  0.00  0.00    +0.124 A 
BRANCH  29  30
ATOM     30  O   UNL     1      -7.242   4.887   4.561  0.00  0.00    -0.495 OA
ATOM     31  C   UNL     1      -8.352   5.613   5.095  0.00  0.00    +0.277 C 
ENDBRANCH  29  30
BRANCH  26  32
ATOM     32  O   UNL     1      -5.551   0.492   7.378  0.00  0.00    -0.495 OA
ATOM     33  C   UNL     1      -6.261   0.178   8.578  0.00  0.00    +0.277 C 
ENDBRANCH  26  32
ENDBRANCH  13  24
TORSDOF 4
