REMARK  Name = ZINC64058419
REMARK  8 active torsions:
REMARK  status: ('A' for Active; 'I' for Inactive)
REMARK    1  A    between atoms: C_1  and  N_2
REMARK    2  A    between atoms: C_6  and  C_9
REMARK    3  A    between atoms: C_6  and  C_26
REMARK    4  A    between atoms: C_9  and  C_10
REMARK    5  A    between atoms: N_12  and  C_13
REMARK    6  A    between atoms: N_12  and  C_14
REMARK    7  A    between atoms: C_14  and  C_15
REMARK    8  A    between atoms: C_29  and  C_32
REMARK                            x       y       z     vdW  Elec       q    Type
REMARK                         _______ _______ _______ _____ _____    ______ ____
ROOT
ATOM      1  C   UNL     1      -0.018   1.461   0.010  0.00  0.00    +0.141 C 
ATOM      2  N   UNL     1       0.002  -0.004   0.002  0.00  0.00    -0.245 N 
ATOM      3  C   UNL     1       0.007  -0.722  -1.128  0.00  0.00    +0.223 C 
ATOM      4  O   UNL     1      -0.004  -0.265  -2.251  0.00  0.00    -0.275 OA
ATOM      5  C   UNL     1       0.028  -2.195  -0.781  0.00  0.00    +0.117 C 
ATOM      6  C   UNL     1       0.035  -2.204   0.761  0.00  0.00    +0.089 C 
ATOM      7  C   UNL     1       0.023  -0.735   1.124  0.00  0.00    +0.233 C 
ATOM      8  O   UNL     1       0.028  -0.290   2.251  0.00  0.00    -0.274 OA
ENDROOT
BRANCH   6   9
ATOM      9  C   UNL     1       1.286  -2.863   1.282  0.00  0.00    -0.031 A 
ATOM     10  C   UNL     1       1.190  -3.983   2.088  0.00  0.00    +0.005 A 
ATOM     11  C   UNL     1       2.332  -4.591   2.568  0.00  0.00    +0.009 A 
ATOM     12  C   UNL     1       3.584  -4.074   2.240  0.00  0.00    -0.018 A 
ATOM     13  C   UNL     1       3.675  -2.946   1.428  0.00  0.00    +0.009 A 
ATOM     14  C   UNL     1       2.526  -2.349   0.949  0.00  0.00    +0.005 A 
BRANCH  12  15
ATOM     15  C   UNL     1       4.816  -4.723   2.753  0.00  0.00    -0.018 A 
ATOM     16  C   UNL     1       4.725  -5.855   3.561  0.00  0.00    +0.008 A 
ATOM     17  C   UNL     1       5.874  -6.455   4.035  0.00  0.00    +0.001 A 
ATOM     18  C   UNL     1       7.113  -5.935   3.711  0.00  0.00    +0.000 A 
ATOM     19  C   UNL     1       7.209  -4.811   2.910  0.00  0.00    +0.001 A 
ATOM     20  C   UNL     1       6.067  -4.207   2.425  0.00  0.00    +0.008 A 
ENDBRANCH  12  15
ENDBRANCH   6   9
BRANCH   6  21
ATOM     21  C   UNL     1      -1.211  -2.907   1.301  0.00  0.00    +0.117 C 
BRANCH  21  22
ATOM     22  C   UNL     1      -1.179  -2.901   2.808  0.00  0.00    +0.217 C 
ATOM     23  O   UNL     1      -0.250  -2.384   3.392  0.00  0.00    -0.276 OA
ATOM     24  N   UNL     1      -2.182  -3.469   3.506  0.00  0.00    -0.301 N 
ATOM     25  C   UNL     1      -3.304  -4.093   2.801  0.00  0.00    +0.132 C 
BRANCH  24  26
ATOM     26  C   UNL     1      -2.150  -3.463   4.971  0.00  0.00    +0.154 C 
BRANCH  26  27
ATOM     27  C   UNL     1      -2.844  -2.203   5.491  0.00  0.00    +0.192 C 
ATOM     28  N   UNL     1      -2.191  -1.006   4.947  0.00  0.00    -0.362 N 
ATOM     29  C   UNL     1      -3.079  -0.356   4.253  0.00  0.00    +0.060 A 
ATOM     30  C   UNL     1      -3.025   0.895   3.483  0.00  0.00    +0.030 A 
ATOM     31  C   UNL     1      -4.131   1.336   2.852  0.00  0.00    +0.040 A 
ATOM     32  C   UNL     1      -5.357   0.643   2.897  0.00  0.00    +0.125 A 
ATOM     33  C   UNL     1      -5.513  -0.515   3.575  0.00  0.00    +0.065 A 
ATOM     34  C   UNL     1      -4.374  -1.088   4.300  0.00  0.00    +0.063 A 
ATOM     35  N   UNL     1      -4.236  -2.165   5.023  0.00  0.00    -0.362 N 
ATOM     36  F   UNL     1      -6.417   1.157   2.235  0.00  0.00    -0.205 F 
ATOM     37  H   UNL     1      -1.265  -0.747   5.080  0.00  0.00    +0.162 HD
ATOM     38  H   UNL     1      -4.924  -2.820   5.216  0.00  0.00    +0.162 HD
ENDBRANCH  26  27
ENDBRANCH  24  26
ENDBRANCH  21  22
ENDBRANCH   6  21
TORSDOF 6
