REMARK  Name = ZINC60195168
REMARK  11 active torsions:
REMARK  status: ('A' for Active; 'I' for Inactive)
REMARK    1  A    between atoms: C_1  and  C_2
REMARK    2  A    between atoms: C_4  and  C_31
REMARK    3  A    between atoms: N_5  and  C_7
REMARK    4  A    between atoms: C_10  and  C_13
REMARK    5  A    between atoms: C_20  and  C_22
REMARK    6  A    between atoms: C_22  and  N_23
REMARK    7  A    between atoms: C_24  and  O_26
REMARK    8  A    between atoms: O_26  and  C_27
REMARK    9  A    between atoms: C_27  and  C_28
REMARK   10  A    between atoms: C_27  and  C_29
REMARK   11  A    between atoms: C_27  and  C_30
REMARK                            x       y       z     vdW  Elec       q    Type
REMARK                         _______ _______ _______ _____ _____    ______ ____
ROOT
ATOM      1  C   UNL     1      -0.328  -6.704   4.332  0.00  0.00    +0.247 C 
ATOM      2  O   UNL     1      -0.872  -7.693   3.881  0.00  0.00    -0.270 OA
ATOM      3  N   UNL     1       0.327  -6.772   5.507  0.00  0.00    -0.293 N 
ATOM      4  C   UNL     1       1.007  -5.590   6.055  0.00  0.00    +0.108 C 
ATOM      5  C   UNL     1       0.508  -5.352   7.483  0.00  0.00    +0.019 C 
ATOM      6  C   UNL     1       0.703  -6.627   8.307  0.00  0.00    +0.003 C 
ATOM      7  C   UNL     1      -0.117  -7.763   7.692  0.00  0.00    +0.024 C 
ATOM      8  C   UNL     1       0.370  -8.027   6.269  0.00  0.00    +0.093 C 
ENDROOT
BRANCH   1  12
ATOM      9  C   UNL     1      -0.494  -3.032   2.202  0.00  0.00    +0.066 A 
ATOM     10  C   UNL     1      -1.570  -3.911   2.154  0.00  0.00    +0.028 A 
ATOM     11  C   UNL     1      -1.520  -5.103   2.843  0.00  0.00    +0.015 A 
ATOM     12  C   UNL     1      -0.386  -5.428   3.591  0.00  0.00    +0.037 A 
ATOM     13  C   UNL     1       0.694  -4.542   3.637  0.00  0.00    +0.015 A 
ATOM     14  C   UNL     1       0.639  -3.355   2.942  0.00  0.00    +0.028 A 
BRANCH   9  19
ATOM     15  C   UNL     1       0.870   0.821  -0.601  0.00  0.00    +0.067 C 
ATOM     16  C   UNL     1       0.067  -0.121   0.258  0.00  0.00    +0.061 A 
ATOM     17  C   UNL     1      -1.266   0.059   0.646  0.00  0.00    +0.047 A 
ATOM     18  C   UNL     1      -1.624  -0.999   1.410  0.00  0.00    +0.042 A 
ATOM     19  N   UNL     1      -0.548  -1.823   1.502  0.00  0.00    -0.237 N 
ATOM     20  N   UNL     1       0.495  -1.249   0.764  0.00  0.00    -0.171 NA
ATOM     21  C   UNL     1      -2.973  -1.222   2.045  0.00  0.00    +0.066 C 
ENDBRANCH   9  19
ENDBRANCH   1  12
BRANCH   8  22
ATOM     22  C   UNL     1      -0.538  -9.063   5.603  0.00  0.00    +0.130 C 
BRANCH  22  23
ATOM     23  N   UNL     1       0.075  -9.518   4.352  0.00  0.00    -0.279 N 
ATOM     24  C   UNL     1      -0.569 -10.406   3.570  0.00  0.00    +0.401 C 
ATOM     25  O   UNL     1      -1.658 -10.830   3.902  0.00  0.00    -0.226 OA
ATOM     26  H   UNL     1       0.945  -9.180   4.088  0.00  0.00    +0.152 HD
BRANCH  24  27
ATOM     27  O   UNL     1      -0.005 -10.825   2.421  0.00  0.00    -0.445 OA
BRANCH  27  28
ATOM     28  C   UNL     1      -0.744 -11.767   1.641  0.00  0.00    +0.107 C 
ATOM     29  C   UNL     1      -2.088 -11.156   1.241  0.00  0.00    +0.055 C 
ATOM     30  C   UNL     1       0.051 -12.121   0.383  0.00  0.00    +0.055 C 
ATOM     31  C   UNL     1      -0.985 -13.033   2.466  0.00  0.00    +0.055 C 
ENDBRANCH  27  28
ENDBRANCH  24  27
ENDBRANCH  22  23
ENDBRANCH   8  22
TORSDOF 6
