REMARK  Name = ZINC34778744
REMARK  8 active torsions:
REMARK  status: ('A' for Active; 'I' for Inactive)
REMARK    1  A    between atoms: C_1  and  C_2
REMARK    2  A    between atoms: C_5  and  C_9
REMARK    3  A    between atoms: C_6  and  C_8
REMARK    4  A    between atoms: C_9  and  N_10
REMARK    5  A    between atoms: C_13  and  C_19
REMARK    6  A    between atoms: C_14  and  C_16
REMARK    7  A    between atoms: N_22  and  C_25
REMARK    8  A    between atoms: C_25  and  C_26
REMARK                            x       y       z     vdW  Elec       q    Type
REMARK                         _______ _______ _______ _____ _____    ______ ____
ROOT
ATOM      1  N   UNL     1      -1.335  -4.653   0.103  0.00  0.00    -0.283 N 
ATOM      2  C   UNL     1      -1.723  -4.843   1.399  0.00  0.00    +0.098 A 
ATOM      3  C   UNL     1      -3.012  -5.303   1.708  0.00  0.00    +0.074 A 
ATOM      4  C   UNL     1      -3.294  -5.459   3.069  0.00  0.00    -0.015 A 
ATOM      5  C   UNL     1      -2.284  -5.149   3.953  0.00  0.00    +0.106 A 
ATOM      6  S   UNL     1      -0.961  -4.644   2.872  0.00  0.00    -0.063 S 
ATOM      7  C   UNL     1      -4.639  -5.944   3.546  0.00  0.00    +0.046 C 
ATOM      8  C   UNL     1      -3.899  -5.559   0.545  0.00  0.00    +0.265 A 
ATOM      9  O   UNL     1      -5.036  -5.959   0.714  0.00  0.00    -0.267 OA
ATOM     10  N   UNL     1      -3.430  -5.343  -0.696  0.00  0.00    -0.257 N 
ATOM     11  C   UNL     1      -2.182  -4.897  -0.914  0.00  0.00    +0.333 A 
ATOM     12  O   UNL     1      -1.808  -4.713  -2.056  0.00  0.00    -0.246 OA
ENDROOT
BRANCH   5  13
ATOM     13  C   UNL     1      -2.295  -5.213   5.368  0.00  0.00    +0.393 C 
ATOM     14  O   UNL     1      -3.303  -5.587   5.956  0.00  0.00    -0.240 OA
ATOM     15  O   UNL     1      -1.297  -4.896   6.004  0.00  0.00    -0.240 OA
ENDBRANCH   5  13
BRANCH   1  16
ATOM     16  C   UNL     1       0.019  -4.173  -0.183  0.00  0.00    +0.162 C 
BRANCH  16  21
ATOM     17  C   UNL     1       0.036   1.605  -0.264  0.00  0.00    +0.044 C 
ATOM     18  C   UNL     1       0.032   0.098  -0.243  0.00  0.00    -0.050 A 
ATOM     19  C   UNL     1      -1.162  -0.588  -0.115  0.00  0.00    +0.004 A 
ATOM     20  C   UNL     1      -1.166  -1.970  -0.096  0.00  0.00    +0.006 A 
ATOM     21  C   UNL     1       0.024  -2.666  -0.205  0.00  0.00    -0.025 A 
ATOM     22  C   UNL     1       1.217  -1.980  -0.334  0.00  0.00    -0.045 A 
ATOM     23  C   UNL     1       1.220  -0.598  -0.358  0.00  0.00    +0.007 A 
ATOM     24  C   UNL     1       2.513  -2.739  -0.453  0.00  0.00    +0.044 C 
ENDBRANCH  16  21
ENDBRANCH   1  16
BRANCH  10  25
ATOM     25  C   UNL     1      -4.306  -5.596  -1.843  0.00  0.00    +0.156 C 
BRANCH  25  26
ATOM     26  C   UNL     1      -5.070  -4.342  -2.178  0.00  0.00    -0.013 C 
ATOM     27  C   UNL     1      -5.018  -3.847  -3.390  0.00  0.00    +0.005 C 
ENDBRANCH  25  26
ENDBRANCH  10  25
TORSDOF 5
