REMARK  Name = ZINC44395880
REMARK  5 active torsions:
REMARK  status: ('A' for Active; 'I' for Inactive)
REMARK    1  A    between atoms: C_1  and  C_2
REMARK    2  A    between atoms: C_2  and  C_4
REMARK    3  A    between atoms: C_2  and  N_16
REMARK    4  A    between atoms: N_6  and  C_7
REMARK    5  A    between atoms: C_21  and  C_23
REMARK                            x       y       z     vdW  Elec       q    Type
REMARK                         _______ _______ _______ _____ _____    ______ ____
ROOT
ATOM      1  C   UNL     1      -0.019   1.526   0.010  0.00  0.00    +0.043 C 
ATOM      2  C   UNL     1       0.002  -0.004   0.002  0.00  0.00    +0.194 C 
ENDROOT
BRANCH   2   3
ATOM      3  N   UNL     1      -1.372  -0.511   0.012  0.00  0.00    -0.217 N 
ATOM      4  C   UNL     1      -1.775  -1.291   1.034  0.00  0.00    +0.268 A 
ATOM      5  O   UNL     1      -1.003  -1.568   1.937  0.00  0.00    -0.266 OA
ATOM      6  C   UNL     1      -3.099  -1.784   1.052  0.00  0.00    +0.074 A 
ATOM      7  C   UNL     1      -3.921  -1.444   0.019  0.00  0.00    +0.035 A 
ATOM      8  C   UNL     1      -3.402  -0.619  -1.006  0.00  0.00    +0.092 A 
ATOM      9  N   UNL     1      -2.162  -0.196  -0.950  0.00  0.00    -0.168 NA
BRANCH   8  10
ATOM     10  C   UNL     1      -4.266  -0.227  -2.147  0.00  0.00    +0.002 A 
ATOM     11  C   UNL     1      -3.758   0.580  -3.163  0.00  0.00    +0.010 A 
ATOM     12  C   UNL     1      -4.566   0.942  -4.222  0.00  0.00    +0.001 A 
ATOM     13  C   UNL     1      -5.877   0.505  -4.276  0.00  0.00    +0.000 A 
ATOM     14  C   UNL     1      -6.387  -0.296  -3.270  0.00  0.00    +0.001 A 
ATOM     15  C   UNL     1      -5.586  -0.669  -2.209  0.00  0.00    +0.010 A 
ENDBRANCH   8  10
ENDBRANCH   2   3
BRANCH   2  16
ATOM     16  C   UNL     1       0.707  -0.490  -1.238  0.00  0.00    +0.244 C 
ATOM     17  O   UNL     1       0.120  -1.191  -2.034  0.00  0.00    -0.273 OA
ATOM     18  N   UNL     1       1.991  -0.146  -1.462  0.00  0.00    -0.252 N 
ATOM     19  H   UNL     1       2.461   0.415  -0.825  0.00  0.00    +0.158 HD
BRANCH  18  20
ATOM     20  C   UNL     1       2.640  -0.593  -2.603  0.00  0.00    +0.227 A 
ATOM     21  C   UNL     1       3.920  -0.330  -2.947  0.00  0.00    +0.037 A 
ATOM     22  C   UNL     1       4.184  -0.969  -4.174  0.00  0.00    +0.089 A 
ATOM     23  N   UNL     1       3.109  -1.591  -4.548  0.00  0.00    -0.081 NA
ATOM     24  O   UNL     1       2.111  -1.373  -3.564  0.00  0.00    -0.339 OA
ATOM     25  C   UNL     1       5.516  -0.895  -4.880  0.00  0.00    +0.059 C 
ATOM     26  C   UNL     1       6.312   0.271  -4.282  0.00  0.00    +0.007 C 
ATOM     27  C   UNL     1       6.328   0.157  -2.756  0.00  0.00    +0.005 C 
ATOM     28  C   UNL     1       4.939   0.491  -2.197  0.00  0.00    +0.042 C 
ENDBRANCH  18  20
ENDBRANCH   2  16
TORSDOF 4
