REMARK  Name = ZINC14625287
REMARK  9 active torsions:
REMARK  status: ('A' for Active; 'I' for Inactive)
REMARK    1  A    between atoms: C_1  and  C_2
REMARK    2  A    between atoms: C_2  and  C_3
REMARK    3  A    between atoms: C_3  and  C_4
REMARK    4  A    between atoms: C_4  and  N_5
REMARK    5  A    between atoms: C_6  and  N_31
REMARK    6  A    between atoms: C_7  and  N_14
REMARK    7  A    between atoms: N_14  and  C_15
REMARK    8  A    between atoms: C_15  and  C_16
REMARK    9  A    between atoms: C_22  and  C_24
REMARK                            x       y       z     vdW  Elec       q    Type
REMARK                         _______ _______ _______ _____ _____    ______ ____
ROOT
ATOM      1  N   UNL     1      -0.572  -2.992  -2.415  0.00  0.00    -0.256 N 
ATOM      2  C   UNL     1      -0.375  -2.443  -3.630  0.00  0.00    +0.252 C 
ATOM      3  O   UNL     1      -0.225  -3.157  -4.603  0.00  0.00    -0.270 OA
ENDROOT
BRANCH   1   6
ATOM      4  N   UNL     1      -0.138  -1.438   0.886  0.00  0.00    -0.280 N 
ATOM      5  C   UNL     1       0.078  -2.255  -0.199  0.00  0.00    +0.127 A 
ATOM      6  C   UNL     1      -0.764  -2.164  -1.289  0.00  0.00    +0.140 A 
ATOM      7  C   UNL     1      -1.814  -1.227  -1.260  0.00  0.00    +0.277 A 
ATOM      8  O   UNL     1      -2.570  -1.123  -2.212  0.00  0.00    -0.266 OA
ATOM      9  N   UNL     1      -1.978  -0.446  -0.175  0.00  0.00    -0.273 N 
ATOM     10  H   UNL     1      -2.724   0.220  -0.153  0.00  0.00    +0.173 HD
ATOM     11  C   UNL     1      -1.151  -0.553   0.880  0.00  0.00    +0.331 A 
ATOM     12  O   UNL     1      -1.323   0.164   1.847  0.00  0.00    -0.246 OA
BRANCH   5  13
ATOM     13  N   UNL     1       1.116  -3.155  -0.196  0.00  0.00    -0.343 N 
ATOM     14  H   UNL     1       1.611  -3.322   0.622  0.00  0.00    +0.144 HD
ATOM     15  H   UNL     1       1.355  -3.623  -1.011  0.00  0.00    +0.144 HD
ENDBRANCH   5  13
BRANCH   4  16
ATOM     16  C   UNL     1       0.744  -1.528   2.052  0.00  0.00    +0.128 C 
BRANCH  16  17
ATOM     17  C   UNL     1       0.180  -2.552   3.040  0.00  0.00    +0.021 C 
BRANCH  17  19
ATOM     18  C   UNL     1       0.538  -3.669   5.245  0.00  0.00    +0.004 C 
ATOM     19  C   UNL     1       1.102  -2.646   4.258  0.00  0.00    -0.002 C 
ENDBRANCH  17  19
ENDBRANCH  16  17
ENDBRANCH   4  16
ENDBRANCH   1   6
BRANCH   2  20
ATOM     20  C   UNL     1      -0.342  -0.973  -3.780  0.00  0.00    +0.051 A 
ATOM     21  C   UNL     1       0.002  -0.165  -2.694  0.00  0.00    +0.014 A 
ATOM     22  C   UNL     1       0.036   1.206  -2.842  0.00  0.00    +0.001 A 
ATOM     23  C   UNL     1      -0.280   1.782  -4.060  0.00  0.00    +0.001 A 
ATOM     24  C   UNL     1      -0.627   0.989  -5.138  0.00  0.00    +0.016 A 
ATOM     25  C   UNL     1      -0.660  -0.386  -5.006  0.00  0.00    +0.030 A 
ATOM     26 BR   UNL     1      -1.136  -1.469  -6.481  0.00  0.00    -0.050 Br
ENDBRANCH   2  20
BRANCH   1  27
ATOM     27  C   UNL     1      -0.587  -4.449  -2.263  0.00  0.00    +0.149 C 
BRANCH  27  28
ATOM     28  C   UNL     1      -2.001  -4.953  -2.392  0.00  0.00    -0.030 A 
ATOM     29  C   UNL     1      -2.831  -4.972  -1.286  0.00  0.00    +0.005 A 
ATOM     30  C   UNL     1      -4.130  -5.430  -1.406  0.00  0.00    +0.000 A 
ATOM     31  C   UNL     1      -4.596  -5.878  -2.627  0.00  0.00    +0.000 A 
ATOM     32  C   UNL     1      -3.764  -5.865  -3.731  0.00  0.00    +0.000 A 
ATOM     33  C   UNL     1      -2.467  -5.402  -3.614  0.00  0.00    +0.005 A 
ENDBRANCH  27  28
ENDBRANCH   1  27
TORSDOF 8
