REMARK  Name = ZINC13637113
REMARK  7 active torsions:
REMARK  status: ('A' for Active; 'I' for Inactive)
REMARK    1  A    between atoms: C_1  and  C_2
REMARK    2  A    between atoms: C_5  and  N_9
REMARK    3  A    between atoms: C_6  and  C_8
REMARK    4  A    between atoms: N_9  and  S_10
REMARK    5  A    between atoms: S_10  and  C_13
REMARK    6  A    between atoms: C_26  and  C_29
REMARK    7  A    between atoms: C_32  and  O_35
REMARK                            x       y       z     vdW  Elec       q    Type
REMARK                         _______ _______ _______ _____ _____    ______ ____
ROOT
ATOM      1  C   UNL     1       3.610   1.985   1.203  0.00  0.00    +0.109 A 
ATOM      2  C   UNL     1       4.135   2.789   0.207  0.00  0.00    +0.030 A 
ATOM      3  C   UNL     1       3.336   3.182  -0.848  0.00  0.00    +0.025 A 
ATOM      4  C   UNL     1       2.010   2.768  -0.906  0.00  0.00    +0.031 A 
ATOM      5  C   UNL     1       1.480   1.966   0.090  0.00  0.00    -0.018 A 
ATOM      6  C   UNL     1       2.293   1.577   1.146  0.00  0.00    +0.034 A 
ATOM      7  C   UNL     1       0.052   1.492   0.085  0.00  0.00    +0.049 C 
ATOM      8  C   UNL     1      -0.606   2.014   1.356  0.00  0.00    -0.023 C 
ATOM      9  C   UNL     1      -1.281   3.118   1.089  0.00  0.00    -0.030 C 
ATOM     10  C   UNL     1      -1.145   3.488  -0.377  0.00  0.00    +0.033 C 
ATOM     11  C   UNL     1      -0.776   2.139  -1.040  0.00  0.00    +0.029 C 
ATOM     12  C   UNL     1       0.026   2.370  -2.295  0.00  0.00    +0.105 C 
ATOM     13  N   UNL     1       1.217   3.169  -1.987  0.00  0.00    -0.336 N 
ATOM     14  H   UNL     1       1.448   3.949  -2.516  0.00  0.00    +0.147 HD
ENDROOT
BRANCH  12  15
ATOM     15  C   UNL     1       0.447   1.036  -2.856  0.00  0.00    -0.027 A 
ATOM     16  C   UNL     1       1.538   0.376  -2.322  0.00  0.00    +0.009 A 
ATOM     17  C   UNL     1       1.922  -0.849  -2.831  0.00  0.00    +0.046 A 
ATOM     18  C   UNL     1       1.219  -1.412  -3.886  0.00  0.00    +0.117 A 
ATOM     19  C   UNL     1       0.128  -0.745  -4.424  0.00  0.00    +0.046 A 
ATOM     20  C   UNL     1      -0.256   0.477  -3.908  0.00  0.00    +0.009 A 
BRANCH  18  21
ATOM     21  O   UNL     1       1.598  -2.615  -4.392  0.00  0.00    -0.507 OA
ATOM     22  H   UNL     1       2.241  -2.554  -5.112  0.00  0.00    +0.292 HD
ENDBRANCH  18  21
ENDBRANCH  12  15
BRANCH   1  23
ATOM     23  S   UNL     1       4.628   1.481   2.550  0.00  0.00    +0.072 S 
ATOM     24  O   UNL     1       5.668   2.442   2.656  0.00  0.00    -0.150 OA
ATOM     25  O   UNL     1       3.753   1.183   3.630  0.00  0.00    -0.150 OA
BRANCH  23  26
ATOM     26  N   UNL     1       5.345   0.053   2.114  0.00  0.00    -0.216 N 
ATOM     27  H   UNL     1       5.188  -0.748   2.637  0.00  0.00    +0.174 HD
BRANCH  26  32
ATOM     28  C   UNL     1       8.724  -0.151  -2.435  0.00  0.00    +0.044 C 
ATOM     29  C   UNL     1       7.825  -0.096  -1.227  0.00  0.00    -0.050 A 
ATOM     30  C   UNL     1       7.811   1.033  -0.428  0.00  0.00    +0.005 A 
ATOM     31  C   UNL     1       6.989   1.086   0.681  0.00  0.00    +0.025 A 
ATOM     32  C   UNL     1       6.177   0.003   0.993  0.00  0.00    +0.051 A 
ATOM     33  C   UNL     1       6.197  -1.131   0.192  0.00  0.00    -0.028 A 
ATOM     34  C   UNL     1       7.018  -1.175  -0.918  0.00  0.00    +0.008 A 
ATOM     35  C   UNL     1       5.322  -2.310   0.531  0.00  0.00    +0.046 C 
ENDBRANCH  26  32
ENDBRANCH  23  26
ENDBRANCH   1  23
TORSDOF 5
