REMARK  Name = ZINC01899313
REMARK  12 active torsions:
REMARK  status: ('A' for Active; 'I' for Inactive)
REMARK    1  A    between atoms: C_1  and  O_2
REMARK    2  A    between atoms: O_2  and  C_3
REMARK    3  A    between atoms: C_4  and  O_31
REMARK    4  A    between atoms: C_7  and  C_9
REMARK    5  A    between atoms: N_10  and  N_11
REMARK    6  A    between atoms: C_12  and  C_14
REMARK    7  A    between atoms: C_14  and  C_15
REMARK    8  A    between atoms: N_17  and  N_18
REMARK    9  A    between atoms: C_19  and  C_20
REMARK   10  A    between atoms: C_23  and  O_28
REMARK   11  A    between atoms: C_24  and  O_26
REMARK   12  A    between atoms: O_26  and  C_27
REMARK                            x       y       z     vdW  Elec       q    Type
REMARK                         _______ _______ _______ _____ _____    ______ ____
ROOT
ATOM      1  C   UNL     1      -9.657   0.526   0.072  0.00  0.00    +0.194 C 
ENDROOT
BRANCH   1   3
ATOM      2  N   UNL     1      -7.189   0.360   0.055  0.00  0.00    -0.207 N 
ATOM      3  C   UNL     1      -8.379  -0.273   0.062  0.00  0.00    +0.241 C 
ATOM      4  O   UNL     1      -8.422  -1.485   0.061  0.00  0.00    -0.274 OA
ATOM      5  H   UNL     1      -7.155   1.329   0.056  0.00  0.00    +0.177 HD
BRANCH   2   7
ATOM      6  C   UNL     1      -4.855   0.227   0.038  0.00  0.00    +0.138 C 
ATOM      7  N   UNL     1      -6.001  -0.383   0.045  0.00  0.00    -0.188 NA
BRANCH   6  12
ATOM      8  C   UNL     1      -1.201  -0.638   0.010  0.00  0.00    +0.163 A 
ATOM      9  C   UNL     1      -1.255  -2.030   0.009  0.00  0.00    +0.173 A 
ATOM     10  C   UNL     1      -2.481  -2.680   0.017  0.00  0.00    +0.063 A 
ATOM     11  C   UNL     1      -3.652  -1.951   0.026  0.00  0.00    +0.028 A 
ATOM     12  C   UNL     1      -3.605  -0.555   0.028  0.00  0.00    -0.001 A 
ATOM     13  C   UNL     1      -2.370   0.099   0.025  0.00  0.00    +0.059 A 
ATOM     14 BR   UNL     1      -2.546  -4.570   0.015  0.00  0.00    -0.046 Br
BRANCH   8  16
ATOM     15  C   UNL     1      -0.017   1.425   0.010  0.00  0.00    +0.277 C 
ATOM     16  O   UNL     1       0.002  -0.004   0.002  0.00  0.00    -0.491 OA
ENDBRANCH   8  16
BRANCH   9  17
ATOM     17  O   UNL     1      -0.104  -2.753  -0.001  0.00  0.00    -0.503 OA
ATOM     18  H   UNL     1       0.236  -2.963   0.880  0.00  0.00    +0.292 HD
ENDBRANCH   9  17
ENDBRANCH   6  12
ENDBRANCH   2   7
ENDBRANCH   1   3
BRANCH   1  19
ATOM     19  C   UNL     1     -10.836  -0.412   0.080  0.00  0.00    +0.241 C 
ATOM     20  O   UNL     1     -10.656  -1.612   0.077  0.00  0.00    -0.274 OA
ATOM     21  N   UNL     1     -12.090   0.081   0.089  0.00  0.00    -0.207 N 
ATOM     22  H   UNL     1     -12.234   1.040   0.091  0.00  0.00    +0.177 HD
BRANCH  21  23
ATOM     23  N   UNL     1     -13.186  -0.791   0.096  0.00  0.00    -0.188 NA
ATOM     24  C   UNL     1     -14.394  -0.316   0.105  0.00  0.00    +0.138 C 
BRANCH  24  25
ATOM     25  C   UNL     1     -15.547  -1.234   0.112  0.00  0.00    -0.001 A 
ATOM     26  C   UNL     1     -15.342  -2.616   0.114  0.00  0.00    +0.028 A 
ATOM     27  C   UNL     1     -16.424  -3.474   0.120  0.00  0.00    +0.063 A 
ATOM     28  C   UNL     1     -17.715  -2.966   0.124  0.00  0.00    +0.173 A 
ATOM     29  C   UNL     1     -17.927  -1.590   0.122  0.00  0.00    +0.163 A 
ATOM     30  C   UNL     1     -16.849  -0.725   0.122  0.00  0.00    +0.059 A 
ATOM     31 BR   UNL     1     -16.144  -5.344   0.124  0.00  0.00    -0.046 Br
BRANCH  29  32
ATOM     32  O   UNL     1     -19.194  -1.096   0.125  0.00  0.00    -0.491 OA
ATOM     33  C   UNL     1     -19.337   0.326   0.122  0.00  0.00    +0.277 C 
ENDBRANCH  29  32
BRANCH  28  34
ATOM     34  O   UNL     1     -18.777  -3.816   0.129  0.00  0.00    -0.503 OA
ATOM     35  H   UNL     1     -19.081  -4.059   1.014  0.00  0.00    +0.292 HD
ENDBRANCH  28  34
ENDBRANCH  24  25
ENDBRANCH  21  23
ENDBRANCH   1  19
TORSDOF 10
