REMARK  Name = ZINC16049880
REMARK  11 active torsions:
REMARK  status: ('A' for Active; 'I' for Inactive)
REMARK    1  A    between atoms: C_1  and  C_2
REMARK    2  A    between atoms: C_2  and  O_3
REMARK    3  A    between atoms: O_3  and  C_4
REMARK    4  A    between atoms: C_4  and  C_6
REMARK    5  A    between atoms: C_7  and  C_15
REMARK    6  A    between atoms: C_12  and  C_14
REMARK    7  A    between atoms: C_15  and  O_16
REMARK    8  A    between atoms: O_16  and  C_17
REMARK    9  A    between atoms: C_17  and  C_19
REMARK   10  A    between atoms: C_26  and  C_31
REMARK   11  A    between atoms: C_27  and  C_30
REMARK                            x       y       z     vdW  Elec       q    Type
REMARK                         _______ _______ _______ _____ _____    ______ ____
ROOT
ATOM      1  C   UNL     1       2.673   3.490  -0.073  0.00  0.00    +0.343 C 
ATOM      2  O   UNL     1       2.784   4.698   0.009  0.00  0.00    -0.245 OA
ENDROOT
BRANCH   1   3
ATOM      3  C   UNL     1       1.373   2.893  -0.430  0.00  0.00    +0.102 A 
ATOM      4  C   UNL     1       1.240   1.507  -0.526  0.00  0.00    +0.019 A 
ATOM      5  C   UNL     1       0.025   0.940  -0.860  0.00  0.00    +0.002 A 
ATOM      6  C   UNL     1      -1.075   1.737  -1.109  0.00  0.00    +0.015 A 
ATOM      7  C   UNL     1      -0.965   3.123  -1.012  0.00  0.00    +0.065 A 
ATOM      8  C   UNL     1       0.262   3.714  -0.675  0.00  0.00    +0.153 A 
ATOM      9  O   UNL     1       0.361   5.054  -0.590  0.00  0.00    -0.454 OA
ATOM     10  C   UNL     1      -0.683   5.867  -0.818  0.00  0.00    +0.142 A 
ATOM     11  C   UNL     1      -1.915   5.399  -1.151  0.00  0.00    +0.040 A 
ATOM     12  C   UNL     1      -2.123   4.004  -1.266  0.00  0.00    +0.196 A 
ATOM     13  O   UNL     1      -3.214   3.547  -1.563  0.00  0.00    -0.287 OA
ATOM     14  C   UNL     1      -3.051   6.358  -1.395  0.00  0.00    +0.051 C 
BRANCH  10  15
ATOM     15  C   UNL     1      -0.485   7.326  -0.702  0.00  0.00    +0.018 A 
ATOM     16  C   UNL     1       0.517   7.959  -1.441  0.00  0.00    +0.011 A 
ATOM     17  C   UNL     1       0.693   9.322  -1.332  0.00  0.00    +0.001 A 
ATOM     18  C   UNL     1      -0.113  10.062  -0.485  0.00  0.00    +0.000 A 
ATOM     19  C   UNL     1      -1.104   9.441   0.255  0.00  0.00    +0.001 A 
ATOM     20  C   UNL     1      -1.295   8.078   0.151  0.00  0.00    +0.011 A 
ENDBRANCH  10  15
ENDBRANCH   1   3
BRANCH   1  21
ATOM     21  O   UNL     1       3.737   2.698   0.162  0.00  0.00    -0.455 OA
BRANCH  21  22
ATOM     22  C   UNL     1       4.985   3.355   0.508  0.00  0.00    +0.283 C 
BRANCH  22  24
ATOM     23  C   UNL     1       7.109   2.257  -0.108  0.00  0.00    +0.077 C 
ATOM     24  C   UNL     1       6.054   2.317   0.733  0.00  0.00    +0.061 C 
ATOM     25  N   UNL     1       5.943   1.456   1.787  0.00  0.00    -0.269 N 
ATOM     26  C   UNL     1       6.839   0.500   2.062  0.00  0.00    +0.304 C 
ATOM     27  O   UNL     1       6.651  -0.223   3.021  0.00  0.00    -0.252 OA
ATOM     28  N   UNL     1       7.944   0.317   1.314  0.00  0.00    -0.292 N 
ATOM     29  C   UNL     1       8.161   1.199   0.155  0.00  0.00    +0.110 C 
ATOM     30  C   UNL     1       9.504   1.906   0.346  0.00  0.00    +0.033 C 
ATOM     31  H   UNL     1       5.169   1.539   2.366  0.00  0.00    +0.156 HD
ATOM     32  H   UNL     1       8.582  -0.380   1.533  0.00  0.00    +0.151 HD
BRANCH  23  33
ATOM     33  C   UNL     1       7.228   3.153  -1.197  0.00  0.00    +0.339 C 
ATOM     34  O   UNL     1       6.972   2.776  -2.325  0.00  0.00    -0.245 OA
BRANCH  33  35
ATOM     35  O   UNL     1       7.626   4.425  -0.984  0.00  0.00    -0.462 OA
BRANCH  35  37
ATOM     36  C   UNL     1       8.186   6.666  -1.694  0.00  0.00    +0.048 C 
ATOM     37  C   UNL     1       7.724   5.274  -2.129  0.00  0.00    +0.229 C 
ENDBRANCH  35  37
ENDBRANCH  33  35
ENDBRANCH  23  33
ENDBRANCH  22  24
ENDBRANCH  21  22
ENDBRANCH   1  21
TORSDOF 8
