REMARK  Name = ZINC14733181
REMARK  11 active torsions:
REMARK  status: ('A' for Active; 'I' for Inactive)
REMARK    1  A    between atoms: C_1  and  C_2
REMARK    2  A    between atoms: C_2  and  C_3
REMARK    3  A    between atoms: C_2  and  C_4
REMARK    4  A    between atoms: C_4  and  C_5
REMARK    5  A    between atoms: C_5  and  N_6
REMARK    6  A    between atoms: C_9  and  C_11
REMARK    7  A    between atoms: C_23  and  C_25
REMARK    8  A    between atoms: C_28  and  O_33
REMARK    9  A    between atoms: C_30  and  O_31
REMARK   10  A    between atoms: O_31  and  C_32
REMARK   11  A    between atoms: O_33  and  C_34
REMARK                            x       y       z     vdW  Elec       q    Type
REMARK                         _______ _______ _______ _____ _____    ______ ____
ROOT
ATOM      1  N   UNL     1       3.511   8.382  -2.179  0.00  0.00    -0.267 N 
ATOM      2  C   UNL     1       2.948   7.587  -1.254  0.00  0.00    +0.046 A 
ATOM      3  C   UNL     1       2.076   8.350  -0.550  0.00  0.00    +0.023 A 
ATOM      4  C   UNL     1       2.147   9.637  -1.108  0.00  0.00    +0.152 A 
ATOM      5  N   UNL     1       3.035   9.576  -2.086  0.00  0.00    -0.166 NA
ATOM      6  C   UNL     1       1.235   7.845   0.592  0.00  0.00    +0.147 C 
ATOM      7  N   UNL     1       1.345   6.374   0.595  0.00  0.00    -0.293 N 
ATOM      8  C   UNL     1       2.675   5.774   0.410  0.00  0.00    +0.114 C 
ATOM      9  C   UNL     1       3.192   6.122  -0.997  0.00  0.00    +0.074 C 
ATOM     10  C   UNL     1       0.256   5.600   0.768  0.00  0.00    +0.252 C 
ATOM     11  O   UNL     1      -0.847   6.109   0.837  0.00  0.00    -0.270 OA
ENDROOT
BRANCH   4  12
ATOM     12  C   UNL     1       1.380  10.826  -0.685  0.00  0.00    +0.267 C 
ATOM     13  O   UNL     1       0.514  10.721   0.162  0.00  0.00    -0.268 OA
ATOM     14  N   UNL     1       1.639  12.027  -1.239  0.00  0.00    -0.292 N 
ATOM     15  C   UNL     1       0.791  13.194  -0.948  0.00  0.00    +0.136 C 
ATOM     16  C   UNL     1       1.705  14.358  -0.531  0.00  0.00    +0.179 C 
ATOM     17  O   UNL     1       2.716  14.540  -1.526  0.00  0.00    -0.377 OA
ATOM     18  C   UNL     1       3.588  13.419  -1.686  0.00  0.00    +0.179 C 
ATOM     19  C   UNL     1       2.775  12.209  -2.157  0.00  0.00    +0.136 C 
ENDBRANCH   4  12
BRANCH  10  20
ATOM     20  C   UNL     1       0.401   4.138   0.875  0.00  0.00    +0.098 A 
ATOM     21  C   UNL     1       1.149   3.425  -0.074  0.00  0.00    +0.023 A 
ATOM     22  C   UNL     1       1.256   2.057   0.068  0.00  0.00    +0.068 A 
ATOM     23  C   UNL     1       0.624   1.429   1.138  0.00  0.00    +0.218 A 
ATOM     24  N   UNL     1      -0.081   2.123   2.017  0.00  0.00    -0.177 NA
ATOM     25  C   UNL     1      -0.207   3.436   1.926  0.00  0.00    +0.230 A 
BRANCH  25  26
ATOM     26  O   UNL     1      -0.934   4.107   2.851  0.00  0.00    -0.479 OA
ATOM     27  C   UNL     1      -1.526   3.334   3.897  0.00  0.00    +0.279 C 
ENDBRANCH  25  26
BRANCH  23  28
ATOM     28  O   UNL     1       0.729   0.086   1.278  0.00  0.00    -0.480 OA
ATOM     29  C   UNL     1       0.060  -0.504   2.395  0.00  0.00    +0.279 C 
ENDBRANCH  23  28
ENDBRANCH  10  20
BRANCH   1  30
ATOM     30  C   UNL     1       4.520   7.955  -3.152  0.00  0.00    +0.144 C 
BRANCH  30  31
ATOM     31  C   UNL     1       3.826   7.461  -4.423  0.00  0.00    +0.026 C 
BRANCH  31  33
ATOM     32  C   UNL     1       5.633   5.801  -4.892  0.00  0.00    +0.007 C 
ATOM     33  C   UNL     1       4.879   7.015  -5.439  0.00  0.00    -0.015 C 
ATOM     34  C   UNL     1       4.193   6.639  -6.754  0.00  0.00    +0.007 C 
ENDBRANCH  31  33
ENDBRANCH  30  31
ENDBRANCH   1  30
TORSDOF 7
