REMARK  Name = ZINC22337181
REMARK  10 active torsions:
REMARK  status: ('A' for Active; 'I' for Inactive)
REMARK    1  A    between atoms: C_1  and  C_2
REMARK    2  A    between atoms: C_3  and  N_9
REMARK    3  A    between atoms: N_9  and  C_10
REMARK    4  A    between atoms: N_9  and  S_28
REMARK    5  A    between atoms: C_10  and  C_11
REMARK    6  A    between atoms: C_20  and  S_22
REMARK    7  A    between atoms: S_22  and  N_25
REMARK    8  A    between atoms: N_25  and  C_26
REMARK    9  A    between atoms: N_25  and  C_27
REMARK   10  A    between atoms: S_28  and  C_31
REMARK                            x       y       z     vdW  Elec       q    Type
REMARK                         _______ _______ _______ _____ _____    ______ ____
ROOT
ATOM      1  C   UNL     1       2.763   5.780   1.019  0.00  0.00    +0.239 C 
ATOM      2  O   UNL     1       1.937   6.663   0.922  0.00  0.00    -0.273 OA
ATOM      3  N   UNL     1       2.404   4.570   1.494  0.00  0.00    -0.269 N 
ATOM      4  C   UNL     1       3.309   3.430   1.657  0.00  0.00    +0.118 C 
ATOM      5  C   UNL     1       2.435   2.299   2.224  0.00  0.00    +0.056 C 
ATOM      6  C   UNL     1       1.055   2.907   2.342  0.00  0.00    -0.023 A 
ATOM      7  C   UNL     1       1.113   4.220   1.902  0.00  0.00    +0.040 A 
ATOM      8  C   UNL     1      -0.050   4.992   1.918  0.00  0.00    +0.026 A 
ATOM      9  C   UNL     1      -1.237   4.452   2.365  0.00  0.00    +0.030 A 
ATOM     10  C   UNL     1      -1.286   3.139   2.796  0.00  0.00    +0.106 A 
ATOM     11  C   UNL     1      -0.137   2.370   2.789  0.00  0.00    +0.034 A 
ENDROOT
BRANCH  10  12
ATOM     12  S   UNL     1      -2.806   2.450   3.359  0.00  0.00    +0.060 S 
ATOM     13  O   UNL     1      -3.845   3.207   2.753  0.00  0.00    -0.153 OA
ATOM     14  O   UNL     1      -2.698   1.042   3.199  0.00  0.00    -0.153 OA
BRANCH  12  15
ATOM     15  N   UNL     1      -2.900   2.736   4.987  0.00  0.00    -0.183 NA
ATOM     16  C   UNL     1      -3.526   3.966   5.480  0.00  0.00    +0.131 C 
ATOM     17  C   UNL     1      -2.357   1.759   5.935  0.00  0.00    +0.131 C 
ENDBRANCH  12  15
ENDBRANCH  10  12
BRANCH   1  18
ATOM     18  C   UNL     1       4.191   6.035   0.610  0.00  0.00    +0.227 C 
BRANCH  18  19
ATOM     19  N   UNL     1       4.305   7.385   0.053  0.00  0.00    -0.198 N 
BRANCH  19  22
ATOM     20  C   UNL     1       6.981   8.238   0.508  0.00  0.00    +0.047 C 
ATOM     21  C   UNL     1       5.804   8.925   1.151  0.00  0.00    -0.010 A 
ATOM     22  C   UNL     1       4.514   8.476   0.901  0.00  0.00    +0.056 A 
ATOM     23  C   UNL     1       3.432   9.108   1.500  0.00  0.00    +0.025 A 
ATOM     24  C   UNL     1       3.642  10.187   2.338  0.00  0.00    +0.003 A 
ATOM     25  C   UNL     1       4.926  10.636   2.581  0.00  0.00    +0.020 A 
ATOM     26  C   UNL     1       6.006  10.008   1.986  0.00  0.00    +0.046 A 
ATOM     27 CL   UNL     1       7.618  10.576   2.294  0.00  0.00    -0.083 Cl
ENDBRANCH  19  22
BRANCH  19  28
ATOM     28  S   UNL     1       4.186   7.619  -1.582  0.00  0.00    +0.043 S 
ATOM     29  O   UNL     1       4.803   8.877  -1.815  0.00  0.00    -0.155 OA
ATOM     30  O   UNL     1       4.719   6.434  -2.157  0.00  0.00    -0.155 OA
ATOM     31  C   UNL     1       2.405   7.726  -1.910  0.00  0.00    +0.218 C 
ENDBRANCH  19  28
ENDBRANCH  18  19
ENDBRANCH   1  18
TORSDOF 6
