REMARK  Name = ZINC36331057
REMARK  4 active torsions:
REMARK  status: ('A' for Active; 'I' for Inactive)
REMARK    1  A    between atoms: C_1  and  C_2
REMARK    2  A    between atoms: C_2  and  C_4
REMARK    3  A    between atoms: C_2  and  N_16
REMARK    4  A    between atoms: N_16  and  C_17
REMARK                            x       y       z     vdW  Elec       q    Type
REMARK                         _______ _______ _______ _____ _____    ______ ____
ROOT
ATOM      1  C   UNL     1      -0.222   1.437   0.024  0.00  0.00    -0.009 C 
ATOM      2  C   UNL     1      -0.034  -0.081  -0.002  0.00  0.00    -0.044 C 
ENDROOT
BRANCH   2   3
ATOM      3  C   UNL     1       0.624  -0.483  -1.296  0.00  0.00    -0.060 A 
ATOM      4  C   UNL     1       1.994  -0.350  -1.443  0.00  0.00    +0.004 A 
ATOM      5  C   UNL     1       2.607  -0.716  -2.626  0.00  0.00    +0.028 A 
ATOM      6  C   UNL     1       1.846  -1.220  -3.670  0.00  0.00    +0.067 A 
ATOM      7  C   UNL     1       0.464  -1.354  -3.522  0.00  0.00    +0.067 A 
ATOM      8  C   UNL     1      -0.141  -0.989  -2.329  0.00  0.00    +0.029 A 
ATOM      9  N   UNL     1      -0.020  -1.878  -4.718  0.00  0.00    -0.306 N 
ATOM     10  H   UNL     1      -0.948  -2.081  -4.915  0.00  0.00    +0.170 HD
ATOM     11  C   UNL     1       1.019  -2.054  -5.556  0.00  0.00    +0.325 A 
ATOM     12  O   UNL     1       0.941  -2.496  -6.687  0.00  0.00    -0.247 OA
ATOM     13  N   UNL     1       2.158  -1.666  -4.952  0.00  0.00    -0.306 N 
ATOM     14  H   UNL     1       3.046  -1.693  -5.343  0.00  0.00    +0.170 HD
ENDBRANCH   2   3
BRANCH   2  15
ATOM     15  N   UNL     1       0.814  -0.489   1.126  0.00  0.00    +0.385 N 
ATOM     16  H   UNL     1       1.016  -1.475   1.056  0.00  0.00    -0.085 HD
ATOM     17  H   UNL     1       1.677   0.034   1.105  0.00  0.00    -0.085 HD
BRANCH  15  18
ATOM     18  C   UNL     1       0.111  -0.222   2.389  0.00  0.00    -0.068 C 
ATOM     19  C   UNL     1       1.064  -0.466   3.555  0.00  0.00    +0.007 C 
ATOM     20  C   UNL     1       0.446   0.059   4.853  0.00  0.00    +0.164 C 
ATOM     21  S   UNL     1      -1.071  -0.878   5.204  0.00  0.00    -0.031 S 
ATOM     22  O   UNL     1      -1.784  -0.213   6.238  0.00  0.00    -0.174 OA
ATOM     23  O   UNL     1      -0.729  -2.247   5.367  0.00  0.00    -0.174 OA
ATOM     24  C   UNL     1      -1.998  -0.692   3.652  0.00  0.00    +0.164 C 
ATOM     25  C   UNL     1      -1.108  -1.134   2.487  0.00  0.00    +0.007 C 
ENDBRANCH  15  18
ENDBRANCH   2  15
TORSDOF 3
