REMARK  Name = ZINC06824583
REMARK  8 active torsions:
REMARK  status: ('A' for Active; 'I' for Inactive)
REMARK    1  A    between atoms: C_1  and  C_2
REMARK    2  A    between atoms: C_9  and  N_14
REMARK    3  A    between atoms: C_10  and  C_11
REMARK    4  A    between atoms: N_14  and  C_15
REMARK    5  A    between atoms: C_15  and  N_17
REMARK    6  A    between atoms: C_18  and  C_20
REMARK    7  A    between atoms: C_24  and  O_26
REMARK    8  A    between atoms: O_26  and  C_27
REMARK                            x       y       z     vdW  Elec       q    Type
REMARK                         _______ _______ _______ _____ _____    ______ ____
ROOT
ATOM      1  N   UNL     1       0.002  -0.004   0.002  0.00  0.00    -0.291 N 
ATOM      2  H   UNL     1      -0.831  -0.500   0.007  0.00  0.00    +0.154 HD
ENDROOT
BRANCH   1  10
ATOM      3  C   UNL     1       0.330   7.809   0.137  0.00  0.00    +0.008 C 
ATOM      4  C   UNL     1      -0.115   6.373   0.419  0.00  0.00    -0.009 C 
ATOM      5  C   UNL     1      -1.363   6.051  -0.408  0.00  0.00    +0.008 C 
ATOM      6  C   UNL     1      -1.958   4.716   0.045  0.00  0.00    +0.037 C 
ATOM      7  C   UNL     1      -0.860   3.660   0.030  0.00  0.00    -0.023 A 
ATOM      8  C   UNL     1       0.444   4.011   0.020  0.00  0.00    -0.004 A 
ATOM      9  S   UNL     1       1.326   2.476   0.003  0.00  0.00    -0.077 S 
ATOM     10  C   UNL     1      -0.017   1.381   0.010  0.00  0.00    +0.084 A 
ATOM     11  C   UNL     1      -1.116   2.229   0.019  0.00  0.00    +0.068 A 
ATOM     12  C   UNL     1       1.005   5.400   0.024  0.00  0.00    +0.046 C 
BRANCH  11  13
ATOM     13  C   UNL     1      -2.483   1.701   0.021  0.00  0.00    +0.244 C 
ATOM     14  O   UNL     1      -3.047   1.476   1.076  0.00  0.00    -0.270 OA
ATOM     15  N   UNL     1      -3.116   1.464  -1.145  0.00  0.00    -0.325 N 
ATOM     16  H   UNL     1      -2.667   1.643  -1.986  0.00  0.00    +0.145 HD
ATOM     17  H   UNL     1      -4.021   1.115  -1.143  0.00  0.00    +0.145 HD
ENDBRANCH  11  13
ENDBRANCH   1  10
BRANCH   1  18
ATOM     18  C   UNL     1       1.178  -0.662  -0.012  0.00  0.00    +0.141 C 
ATOM     19  S   UNL     1       2.649   0.214  -0.021  0.00  0.00    -0.018 S 
BRANCH  18  20
ATOM     20  N   UNL     1       1.196  -2.010  -0.020  0.00  0.00    -0.264 N 
ATOM     21  C   UNL     1       2.373  -2.667  -0.034  0.00  0.00    +0.250 C 
ATOM     22  O   UNL     1       3.417  -2.046  -0.040  0.00  0.00    -0.270 OA
ATOM     23  H   UNL     1       0.363  -2.506  -0.015  0.00  0.00    +0.157 HD
BRANCH  21  24
ATOM     24  C   UNL     1       2.393  -4.145  -0.042  0.00  0.00    +0.041 A 
ATOM     25  C   UNL     1       1.195  -4.862  -0.029  0.00  0.00    +0.013 A 
ATOM     26  C   UNL     1       1.217  -6.242  -0.042  0.00  0.00    +0.004 A 
ATOM     27  C   UNL     1       2.423  -6.918  -0.057  0.00  0.00    +0.045 A 
ATOM     28  C   UNL     1       3.620  -6.214  -0.064  0.00  0.00    +0.121 A 
ATOM     29  C   UNL     1       3.609  -4.829  -0.057  0.00  0.00    +0.058 A 
BRANCH  28  30
ATOM     30  O   UNL     1       4.802  -6.884  -0.079  0.00  0.00    -0.495 OA
ATOM     31  C   UNL     1       4.739  -8.311  -0.086  0.00  0.00    +0.277 C 
ENDBRANCH  28  30
ENDBRANCH  21  24
ENDBRANCH  18  20
ENDBRANCH   1  18
TORSDOF 6
