REMARK  Name = ZINC62946692
REMARK  3 active torsions:
REMARK  status: ('A' for Active; 'I' for Inactive)
REMARK    1  A    between atoms: C_9  and  C_14
REMARK    2  A    between atoms: N_10  and  C_11
REMARK    3  A    between atoms: C_16  and  N_20
REMARK                            x       y       z     vdW  Elec       q    Type
REMARK                         _______ _______ _______ _____ _____    ______ ____
ROOT
ATOM      1  C   UNL     1      -0.078   0.819  -0.153  0.00  0.00    +0.017 A 
ATOM      2  C   UNL     1       0.965   1.721  -0.133  0.00  0.00    +0.029 A 
ATOM      3  C   UNL     1       2.273   1.263  -0.075  0.00  0.00    +0.069 A 
ATOM      4  C   UNL     1       2.532  -0.118  -0.037  0.00  0.00    +0.091 A 
ATOM      5  C   UNL     1       1.463  -1.019  -0.059  0.00  0.00    +0.045 A 
ATOM      6  C   UNL     1       0.171  -0.546  -0.116  0.00  0.00    +0.020 A 
ATOM      7 BR   UNL     1      -1.275  -1.765  -0.144  0.00  0.00    -0.050 Br
ATOM      8  N   UNL     1       3.877  -0.272   0.015  0.00  0.00    -0.227 NA
ATOM      9  C   UNL     1       4.456   0.904   0.012  0.00  0.00    +0.144 A 
ATOM     10  N   UNL     1       3.506   1.887  -0.043  0.00  0.00    -0.320 N 
ENDROOT
BRANCH   9  11
ATOM     11  C   UNL     1       5.916   1.134   0.062  0.00  0.00    +0.037 A 
ATOM     12  C   UNL     1       6.780   0.121   0.490  0.00  0.00    +0.037 A 
ATOM     13  C   UNL     1       8.144   0.389   0.518  0.00  0.00    +0.044 A 
ATOM     14  C   UNL     1       8.597   1.642   0.123  0.00  0.00    +0.133 A 
ATOM     15  N   UNL     1       7.752   2.574  -0.275  0.00  0.00    -0.261 NA
ATOM     16  C   UNL     1       6.453   2.362  -0.323  0.00  0.00    +0.122 A 
BRANCH  13  17
ATOM     17  N   UNL     1       9.049  -0.590   0.939  0.00  0.00    -0.357 N 
ATOM     18  H   UNL     1       8.727  -1.462   1.214  0.00  0.00    +0.142 HD
ATOM     19  H   UNL     1       9.999  -0.396   0.956  0.00  0.00    +0.142 HD
ENDBRANCH  13  17
ENDBRANCH   9  11
BRANCH  10  20
ATOM     20  C   UNL     1       3.750   3.332  -0.063  0.00  0.00    +0.089 C 
ATOM     21  C   UNL     1       4.170   3.996   1.250  0.00  0.00    +0.027 C 
ATOM     22  C   UNL     1       2.764   4.225   0.692  0.00  0.00    +0.027 C 
ENDBRANCH  10  20
TORSDOF 3
