REMARK  Name = ZINC63384112
REMARK  8 active torsions:
REMARK  status: ('A' for Active; 'I' for Inactive)
REMARK    1  A    between atoms: C_1  and  C_2
REMARK    2  A    between atoms: C_2  and  C_3
REMARK    3  A    between atoms: C_3  and  C_5
REMARK    4  A    between atoms: C_3  and  N_6
REMARK    5  A    between atoms: C_7  and  O_33
REMARK    6  A    between atoms: C_9  and  C_16
REMARK    7  A    between atoms: N_30  and  C_31
REMARK    8  A    between atoms: C_31  and  C_32
REMARK                            x       y       z     vdW  Elec       q    Type
REMARK                         _______ _______ _______ _____ _____    ______ ____
ROOT
ATOM      1  C   UNL     1       4.513   2.391  -2.822  0.00  0.00    +0.099 C 
ATOM      2  C   UNL     1       5.444   3.447  -2.221  0.00  0.00    +0.124 C 
ATOM      3  C   UNL     1       6.027   4.221  -3.399  0.00  0.00    -0.036 C 
ATOM      4  C   UNL     1       7.344   4.173  -3.263  0.00  0.00    -0.001 A 
ATOM      5  C   UNL     1       8.434   4.799  -4.030  0.00  0.00    +0.010 A 
ATOM      6  C   UNL     1       9.697   4.520  -3.615  0.00  0.00    +0.001 A 
ATOM      7  C   UNL     1       9.983   3.690  -2.526  0.00  0.00    +0.002 A 
ATOM      8  C   UNL     1       9.045   3.078  -1.761  0.00  0.00    +0.026 A 
ATOM      9  C   UNL     1       7.678   3.300  -2.096  0.00  0.00    +0.043 A 
ATOM     10  N   UNL     1       6.580   2.858  -1.514  0.00  0.00    -0.376 N 
ATOM     11  C   UNL     1       5.147   4.787  -4.487  0.00  0.00    +0.049 C 
ATOM     12  C   UNL     1       4.191   3.654  -4.901  0.00  0.00    +0.089 C 
ATOM     13  N   UNL     1       3.559   3.068  -3.715  0.00  0.00    -0.296 NA
ATOM     14  H   UNL     1       6.526   2.252  -0.759  0.00  0.00    +0.160 HD
ENDROOT
BRANCH   1  17
ATOM     15  N   UNL     1       1.845   1.917  -0.192  0.00  0.00    -0.256 N 
ATOM     16  C   UNL     1       2.788   2.656  -1.033  0.00  0.00    +0.220 C 
ATOM     17  C   UNL     1       3.753   1.676  -1.703  0.00  0.00    +0.142 C 
ATOM     18  C   UNL     1       2.969   0.525  -2.280  0.00  0.00    +0.229 C 
ATOM     19  O   UNL     1       3.335  -0.004  -3.308  0.00  0.00    -0.275 OA
ATOM     20  N   UNL     1       1.863   0.083  -1.653  0.00  0.00    -0.240 N 
ATOM     21  C   UNL     1       1.395   0.707  -0.560  0.00  0.00    +0.311 C 
ATOM     22  O   UNL     1       0.538   0.163   0.110  0.00  0.00    -0.252 OA
ATOM     23  H   UNL     1       1.400  -0.698  -1.994  0.00  0.00    +0.159 HD
BRANCH  15  24
ATOM     24  C   UNL     1       1.392   2.503   1.072  0.00  0.00    +0.077 C 
ATOM     25  C   UNL     1      -0.130   2.660   1.044  0.00  0.00    +0.028 C 
BRANCH  24  27
ATOM     26  C   UNL     1       3.313   1.527   2.336  0.00  0.00    +0.006 C 
ATOM     27  C   UNL     1       1.788   1.585   2.231  0.00  0.00    +0.019 C 
ENDBRANCH  24  27
ENDBRANCH  15  24
BRANCH  16  28
ATOM     28  O   UNL     1       2.068   3.376  -2.036  0.00  0.00    -0.373 OA
ATOM     29  H   UNL     1       1.437   4.018  -1.683  0.00  0.00    +0.212 HD
ENDBRANCH  16  28
ENDBRANCH   1  17
BRANCH  13  30
ATOM     30  C   UNL     1       2.462   2.167  -4.093  0.00  0.00    +0.081 C 
ATOM     31  C   UNL     1       1.460   2.924  -4.968  0.00  0.00    +0.020 C 
ENDBRANCH  13  30
TORSDOF 5
