REMARK  Name = ZINC19330161
REMARK  9 active torsions:
REMARK  status: ('A' for Active; 'I' for Inactive)
REMARK    1  A    between atoms: C_1  and  C_2
REMARK    2  A    between atoms: C_5  and  S_8
REMARK    3  A    between atoms: S_8  and  C_11
REMARK    4  A    between atoms: C_11  and  N_12
REMARK    5  A    between atoms: C_17  and  N_33
REMARK    6  A    between atoms: N_20  and  C_22
REMARK    7  A    between atoms: C_22  and  S_23
REMARK    8  A    between atoms: S_23  and  C_26
REMARK    9  A    between atoms: C_29  and  C_32
REMARK                            x       y       z     vdW  Elec       q    Type
REMARK                         _______ _______ _______ _____ _____    ______ ____
ROOT
ATOM      1  N   UNL     1       2.489   1.606  -1.344  0.00  0.00    -0.280 NA
ATOM      2  C   UNL     1       1.645   1.472  -2.496  0.00  0.00    +0.101 C 
ATOM      3  C   UNL     1       1.910   0.282  -3.378  0.00  0.00    +0.101 C 
ATOM      4  N   UNL     1       3.278  -0.140  -3.505  0.00  0.00    -0.286 NA
ATOM      5  C   UNL     1       4.286   0.874  -3.547  0.00  0.00    +0.123 C 
ATOM      6  C   UNL     1       4.781   1.292  -2.162  0.00  0.00    +0.159 C 
ATOM      7  C   UNL     1       3.776   2.245  -1.538  0.00  0.00    +0.123 C 
ATOM      8  C   UNL     1       5.041   0.084  -1.278  0.00  0.00    +0.125 C 
ATOM      9  N   UNL     1       3.876  -0.812  -1.288  0.00  0.00    -0.268 NA
ATOM     10  C   UNL     1       3.621  -1.282  -2.658  0.00  0.00    +0.173 C 
ENDROOT
BRANCH   6  11
ATOM     11  N   UNL     1       6.045   2.013  -2.330  0.00  0.00    +0.032 N 
ATOM     12  O   UNL     1       6.615   2.478  -1.359  0.00  0.00    -0.131 OA
ATOM     13  O   UNL     1       6.526   2.148  -3.441  0.00  0.00    -0.131 OA
ENDBRANCH   6  11
BRANCH   1  14
ATOM     14  C   UNL     1       1.760   2.220  -0.226  0.00  0.00    +0.258 C 
BRANCH  14  15
ATOM     15  S   UNL     1       1.148   3.852  -0.726  0.00  0.00    +0.010 S 
ATOM     16  O   UNL     1       2.172   4.574  -1.398  0.00  0.00    -0.168 OA
ATOM     17  O   UNL     1       0.421   4.449   0.339  0.00  0.00    -0.168 OA
BRANCH  15  22
ATOM     18  C   UNL     1      -2.985   2.726  -4.975  0.00  0.00    +0.044 C 
ATOM     19  C   UNL     1      -1.952   3.007  -3.914  0.00  0.00    -0.050 A 
ATOM     20  C   UNL     1      -2.274   2.851  -2.578  0.00  0.00    +0.005 A 
ATOM     21  C   UNL     1      -1.327   3.110  -1.605  0.00  0.00    +0.027 A 
ATOM     22  C   UNL     1      -0.059   3.523  -1.967  0.00  0.00    +0.090 A 
ATOM     23  C   UNL     1       0.261   3.684  -3.302  0.00  0.00    +0.027 A 
ATOM     24  C   UNL     1      -0.684   3.421  -4.276  0.00  0.00    +0.005 A 
ENDBRANCH  15  22
ENDBRANCH  14  15
ENDBRANCH   1  14
BRANCH   9  25
ATOM     25  C   UNL     1       4.074  -1.942  -0.371  0.00  0.00    +0.259 C 
BRANCH  25  26
ATOM     26  S   UNL     1       2.587  -2.167   0.643  0.00  0.00    +0.010 S 
ATOM     27  O   UNL     1       2.748  -3.282   1.508  0.00  0.00    -0.168 OA
ATOM     28  O   UNL     1       2.147  -0.914   1.150  0.00  0.00    -0.168 OA
BRANCH  26  29
ATOM     29  C   UNL     1       1.333  -2.656  -0.494  0.00  0.00    +0.090 A 
ATOM     30  C   UNL     1       0.570  -1.699  -1.137  0.00  0.00    +0.027 A 
ATOM     31  C   UNL     1      -0.410  -2.083  -2.033  0.00  0.00    +0.005 A 
ATOM     32  C   UNL     1      -0.634  -3.425  -2.279  0.00  0.00    -0.050 A 
ATOM     33  C   UNL     1       0.125  -4.382  -1.632  0.00  0.00    +0.005 A 
ATOM     34  C   UNL     1       1.109  -3.998  -0.740  0.00  0.00    +0.027 A 
ATOM     35  C   UNL     1      -1.706  -3.844  -3.251  0.00  0.00    +0.044 C 
ENDBRANCH  26  29
ENDBRANCH  25  26
ENDBRANCH   9  25
TORSDOF 7
