REMARK  Name = ZINC40372307
REMARK  4 active torsions:
REMARK  status: ('A' for Active; 'I' for Inactive)
REMARK    1  A    between atoms: C_4  and  C_8
REMARK    2  A    between atoms: N_10  and  C_11
REMARK    3  A    between atoms: C_11  and  C_17
REMARK    4  A    between atoms: N_18  and  O_19
REMARK                            x       y       z     vdW  Elec       q    Type
REMARK                         _______ _______ _______ _____ _____    ______ ____
ROOT
ATOM      1  C   UNL     1       5.362  -1.617  -0.710  0.00  0.00    +0.093 C 
ATOM      2  C   UNL     1       5.483  -2.896   0.122  0.00  0.00    +0.033 C 
ATOM      3  C   UNL     1       4.257  -3.778  -0.118  0.00  0.00    +0.002 C 
ATOM      4  C   UNL     1       4.173  -4.141  -1.602  0.00  0.00    +0.000 C 
ATOM      5  C   UNL     1       4.051  -2.863  -2.434  0.00  0.00    +0.002 C 
ATOM      6  C   UNL     1       5.278  -1.980  -2.194  0.00  0.00    +0.033 C 
ENDROOT
BRANCH   1   7
ATOM      7  C   UNL     1       6.570  -0.748  -0.473  0.00  0.00    +0.155 C 
ATOM      8  N   UNL     1       7.754  -1.208  -0.708  0.00  0.00    -0.075 NA
ATOM      9  N   UNL     1       6.412   0.539  -0.007  0.00  0.00    -0.342 N 
ATOM     10  H   UNL     1       5.522   0.908   0.105  0.00  0.00    +0.144 HD
ATOM     11  H   UNL     1       7.190   1.075   0.209  0.00  0.00    +0.144 HD
BRANCH   8  12
ATOM     12  O   UNL     1       7.912  -2.477  -1.316  0.00  0.00    -0.408 OA
ATOM     13  H   UNL     1       8.833  -2.737  -1.452  0.00  0.00    +0.328 HD
ENDBRANCH   8  12
ENDBRANCH   1   7
BRANCH   1  16
ATOM     14  C   UNL     1       3.990  -0.497   0.963  0.00  0.00    +0.249 C 
ATOM     15  O   UNL     1       4.809  -0.811   1.805  0.00  0.00    -0.270 OA
ATOM     16  N   UNL     1       4.153  -0.891  -0.315  0.00  0.00    -0.299 N 
ATOM     17  H   UNL     1       3.469  -0.693  -0.974  0.00  0.00    +0.150 HD
BRANCH  14  21
ATOM     18  C   UNL     1       0.617   1.846   2.051  0.00  0.00    +0.004 A 
ATOM     19  C   UNL     1       1.784   2.468   1.646  0.00  0.00    +0.039 A 
ATOM     20  C   UNL     1       2.886   1.714   1.290  0.00  0.00    +0.137 A 
ATOM     21  C   UNL     1       2.818   0.317   1.342  0.00  0.00    +0.090 A 
ATOM     22  C   UNL     1       1.635  -0.303   1.752  0.00  0.00    +0.056 A 
ATOM     23  C   UNL     1       0.543   0.465   2.104  0.00  0.00    +0.021 A 
ATOM     24 CL   UNL     1       1.539  -2.035   1.820  0.00  0.00    -0.083 Cl
ATOM     25  F   UNL     1       4.025   2.323   0.894  0.00  0.00    -0.205 F 
ENDBRANCH  14  21
ENDBRANCH   1  16
TORSDOF 4
