REMARK  Name = ZINC40735293
REMARK  7 active torsions:
REMARK  status: ('A' for Active; 'I' for Inactive)
REMARK    1  A    between atoms: C_1  and  C_2
REMARK    2  A    between atoms: C_7  and  C_9
REMARK    3  A    between atoms: C_7  and  C_10
REMARK    4  A    between atoms: C_14  and  N_33
REMARK    5  A    between atoms: C_15  and  N_19
REMARK    6  A    between atoms: N_19  and  C_20
REMARK    7  A    between atoms: C_20  and  C_21
REMARK                            x       y       z     vdW  Elec       q    Type
REMARK                         _______ _______ _______ _____ _____    ______ ____
ROOT
ATOM      1  C   UNL     1       1.973   1.253   0.569  0.00  0.00    +0.013 C 
ATOM      2  C   UNL     1       1.827  -0.267   0.399  0.00  0.00    -0.014 C 
ATOM      3  C   UNL     1       0.428  -0.779   0.839  0.00  0.00    +0.030 C 
ATOM      4  C   UNL     1       0.416  -2.149   0.115  0.00  0.00    +0.076 C 
ATOM      5  C   UNL     1       1.322  -3.088   0.908  0.00  0.00    +0.029 C 
ATOM      6  C   UNL     1       2.730  -2.559   1.111  0.00  0.00    -0.033 C 
ATOM      7  C   UNL     1       2.869  -1.051   1.195  0.00  0.00    +0.014 C 
ATOM      8  C   UNL     1       3.655  -3.112   0.017  0.00  0.00    +0.011 C 
ATOM      9  C   UNL     1       3.245  -3.140   2.452  0.00  0.00    +0.011 C 
ATOM     10  N   UNL     1       1.026  -1.887  -1.204  0.00  0.00    -0.310 N 
ATOM     11  C   UNL     1       1.886  -0.700  -1.083  0.00  0.00    +0.113 C 
ATOM     12  C   UNL     1       0.816  -2.625  -2.362  0.00  0.00    +0.147 A 
ATOM     13  C   UNL     1       1.531  -2.336  -3.527  0.00  0.00    +0.104 A 
ATOM     14  C   UNL     1       1.282  -3.108  -4.662  0.00  0.00    +0.130 A 
ATOM     15  N   UNL     1       0.380  -4.084  -4.593  0.00  0.00    -0.332 N 
ATOM     16  C   UNL     1      -0.274  -4.324  -3.474  0.00  0.00    +0.200 A 
ATOM     17  N   UNL     1      -0.065  -3.622  -2.378  0.00  0.00    -0.221 NA
ATOM     18  H   UNL     1       0.200  -4.626  -5.377  0.00  0.00    +0.168 HD
ENDROOT
BRANCH  14  19
ATOM     19  N   UNL     1       1.966  -2.862  -5.848  0.00  0.00    -0.266 N 
ATOM     20  C   UNL     1       1.396  -2.051  -6.825  0.00  0.00    +0.127 A 
ATOM     21  C   UNL     1       0.088  -1.604  -6.672  0.00  0.00    +0.044 A 
ATOM     22  C   UNL     1      -0.466  -0.798  -7.650  0.00  0.00    +0.005 A 
ATOM     23  C   UNL     1       0.310  -0.466  -8.753  0.00  0.00    +0.020 A 
ATOM     24  C   UNL     1       1.601  -0.945  -8.840  0.00  0.00    +0.113 A 
ATOM     25  N   UNL     1       2.106  -1.708  -7.889  0.00  0.00    -0.240 NA
BRANCH  19  26
ATOM     26  C   UNL     1       3.287  -3.456  -6.069  0.00  0.00    +0.149 C 
BRANCH  26  27
ATOM     27  C   UNL     1       3.130  -4.799  -6.733  0.00  0.00    -0.030 A 
ATOM     28  C   UNL     1       2.995  -5.939  -5.964  0.00  0.00    +0.005 A 
ATOM     29  C   UNL     1       2.850  -7.172  -6.574  0.00  0.00    +0.000 A 
ATOM     30  C   UNL     1       2.839  -7.263  -7.953  0.00  0.00    +0.000 A 
ATOM     31  C   UNL     1       2.973  -6.123  -8.722  0.00  0.00    +0.000 A 
ATOM     32  C   UNL     1       3.114  -4.890  -8.113  0.00  0.00    +0.005 A 
ENDBRANCH  26  27
ENDBRANCH  19  26
ENDBRANCH  14  19
BRANCH  13  33
ATOM     33  N   UNL     1       2.474  -1.296  -3.554  0.00  0.00    -0.353 N 
ATOM     34  H   UNL     1       3.280  -1.386  -4.087  0.00  0.00    +0.143 HD
ATOM     35  H   UNL     1       2.321  -0.488  -3.040  0.00  0.00    +0.143 HD
ENDBRANCH  13  33
TORSDOF 4
