REMARK  Name = ZINC58818866
REMARK  10 active torsions:
REMARK  status: ('A' for Active; 'I' for Inactive)
REMARK    1  A    between atoms: C_1  and  C_2
REMARK    2  A    between atoms: C_2  and  C_3
REMARK    3  A    between atoms: C_3  and  C_4
REMARK    4  A    between atoms: C_4  and  C_5
REMARK    5  A    between atoms: C_7  and  C_28
REMARK    6  A    between atoms: C_8  and  C_10
REMARK    7  A    between atoms: C_20  and  C_27
REMARK    8  A    between atoms: C_22  and  C_24
REMARK    9  A    between atoms: C_24  and  C_25
REMARK   10  A    between atoms: C_24  and  C_26
REMARK                            x       y       z     vdW  Elec       q    Type
REMARK                         _______ _______ _______ _____ _____    ______ ____
ROOT
ATOM      1  C   UNL     1      -6.552  -3.965   0.956  0.00  0.00    +0.255 C 
ATOM      2  O   UNL     1      -7.468  -4.177   0.184  0.00  0.00    -0.269 OA
ATOM      3  N   UNL     1      -6.730  -4.144   2.280  0.00  0.00    -0.294 N 
ATOM      4  C   UNL     1      -5.676  -3.772   3.234  0.00  0.00    +0.127 C 
ATOM      5  C   UNL     1      -6.268  -2.803   4.264  0.00  0.00    +0.125 C 
ATOM      6  N   UNL     1      -7.520  -3.373   4.780  0.00  0.00    -0.312 N 
ATOM      7  C   UNL     1      -8.575  -3.745   3.826  0.00  0.00    +0.125 C 
ATOM      8  C   UNL     1      -7.985  -4.709   2.796  0.00  0.00    +0.127 C 
ATOM      9  C   UNL     1      -7.704  -3.557   6.141  0.00  0.00    +0.125 A 
ATOM     10  C   UNL     1      -6.808  -3.004   7.059  0.00  0.00    +0.064 A 
ATOM     11  C   UNL     1      -7.034  -3.215   8.404  0.00  0.00    +0.017 A 
ATOM     12  N   UNL     1      -8.086  -3.931   8.779  0.00  0.00    -0.347 N 
ATOM     13  C   UNL     1      -8.913  -4.440   7.888  0.00  0.00    +0.112 A 
ATOM     14  N   UNL     1      -8.739  -4.258   6.594  0.00  0.00    -0.219 NA
ATOM     15  C   UNL     1      -6.097  -2.640   9.435  0.00  0.00    +0.063 C 
ATOM     16  H   UNL     1      -8.249  -4.082   9.723  0.00  0.00    +0.167 HD
ENDROOT
BRANCH   1  20
ATOM     17  C   UNL     1      -2.750  -2.993  -0.113  0.00  0.00    +0.079 A 
ATOM     18  N   UNL     1      -3.695  -2.436  -0.835  0.00  0.00    -0.248 NA
ATOM     19  C   UNL     1      -4.963  -2.663  -0.598  0.00  0.00    +0.058 A 
ATOM     20  C   UNL     1      -5.252  -3.515   0.445  0.00  0.00    +0.097 A 
ATOM     21  S   UNL     1      -3.604  -3.925   0.998  0.00  0.00    -0.067 S 
ATOM     22  C   UNL     1      -6.050  -2.025  -1.424  0.00  0.00    +0.067 C 
BRANCH  17  23
ATOM     23  C   UNL     1      -1.257  -2.840  -0.251  0.00  0.00    +0.063 C 
BRANCH  23  24
ATOM     24  C   UNL     1      -0.781  -1.672   0.615  0.00  0.00    +0.006 C 
BRANCH  24  26
ATOM     25  C   UNL     1       1.209  -0.348   1.341  0.00  0.00    +0.004 C 
ATOM     26  C   UNL     1       0.734  -1.517   0.475  0.00  0.00    -0.003 C 
ENDBRANCH  24  26
ENDBRANCH  23  24
ENDBRANCH  17  23
ENDBRANCH   1  20
BRANCH  13  27
ATOM     27  C   UNL     1     -10.094  -5.247   8.362  0.00  0.00    +0.049 C 
ATOM     28  C   UNL     1      -9.663  -6.697   8.587  0.00  0.00    +0.015 C 
ATOM     29  C   UNL     1     -10.618  -4.661   9.675  0.00  0.00    +0.015 C 
ENDBRANCH  13  27
TORSDOF 5
