REMARK  Name = ZINC66234773
REMARK  6 active torsions:
REMARK  status: ('A' for Active; 'I' for Inactive)
REMARK    1  A    between atoms: C_3  and  C_8
REMARK    2  A    between atoms: C_5  and  O_7
REMARK    3  A    between atoms: C_8  and  C_9
REMARK    4  A    between atoms: C_9  and  N_10
REMARK    5  A    between atoms: N_13  and  N_14
REMARK    6  A    between atoms: C_15  and  C_17
REMARK                            x       y       z     vdW  Elec       q    Type
REMARK                         _______ _______ _______ _____ _____    ______ ____
ROOT
ATOM      1  N   UNL     1       5.378   3.199   1.411  0.00  0.00    -0.298 N 
ATOM      2  C   UNL     1       5.967   3.539   2.574  0.00  0.00    +0.316 C 
ATOM      3  O   UNL     1       5.456   3.221   3.630  0.00  0.00    -0.251 OA
ATOM      4  N   UNL     1       7.123   4.233   2.567  0.00  0.00    -0.218 N 
ATOM      5  H   UNL     1       5.786   3.453   0.568  0.00  0.00    +0.150 HD
ATOM      6  H   UNL     1       7.546   4.478   3.404  0.00  0.00    +0.174 HD
ENDROOT
BRANCH   4   7
ATOM      7  N   UNL     1       7.712   4.600   1.350  0.00  0.00    -0.229 N 
ATOM      8  C   UNL     1       8.867   5.294   1.342  0.00  0.00    +0.261 C 
ATOM      9  O   UNL     1       9.399   5.601   2.392  0.00  0.00    -0.269 OA
ATOM     10  H   UNL     1       7.288   4.355   0.512  0.00  0.00    +0.173 HD
BRANCH   8  11
ATOM     11  C   UNL     1       9.488   5.681   0.060  0.00  0.00    +0.052 A 
ATOM     12  C   UNL     1       8.877   5.334  -1.148  0.00  0.00    +0.017 A 
ATOM     13  C   UNL     1       9.460   5.698  -2.342  0.00  0.00    +0.039 A 
ATOM     14  C   UNL     1      10.652   6.407  -2.347  0.00  0.00    +0.124 A 
ATOM     15  C   UNL     1      11.264   6.754  -1.153  0.00  0.00    +0.054 A 
ATOM     16  C   UNL     1      10.686   6.400   0.049  0.00  0.00    +0.033 A 
ATOM     17 BR   UNL     1      11.518   6.880   1.678  0.00  0.00    -0.049 Br
ATOM     18  F   UNL     1      11.219   6.761  -3.521  0.00  0.00    -0.205 F 
ENDBRANCH   8  11
ENDBRANCH   4   7
BRANCH   1  19
ATOM     19  C   UNL     1       4.122   2.445   1.419  0.00  0.00    +0.110 C 
BRANCH  19  20
ATOM     20  C   UNL     1       3.671   2.190  -0.021  0.00  0.00    +0.054 C 
BRANCH  20  23
ATOM     21  C   UNL     1      -0.017   1.377   0.010  0.00  0.00    +0.004 A 
ATOM     22  C   UNL     1       1.171   2.086   0.002  0.00  0.00    +0.004 A 
ATOM     23  C   UNL     1       2.379   1.415  -0.013  0.00  0.00    -0.042 A 
ATOM     24  C   UNL     1       2.403   0.033  -0.021  0.00  0.00    +0.049 A 
ATOM     25  C   UNL     1       1.214  -0.680  -0.013  0.00  0.00    +0.117 A 
ATOM     26  C   UNL     1       0.002  -0.004   0.002  0.00  0.00    +0.045 A 
BRANCH  25  27
ATOM     27  O   UNL     1       1.235  -2.039  -0.021  0.00  0.00    -0.507 OA
ATOM     28  H   UNL     1       1.249  -2.437   0.860  0.00  0.00    +0.292 HD
ENDBRANCH  25  27
ENDBRANCH  20  23
ENDBRANCH  19  20
ENDBRANCH   1  19
TORSDOF 6
