REMARK  Name = ZINC16884174
REMARK  10 active torsions:
REMARK  status: ('A' for Active; 'I' for Inactive)
REMARK    1  A    between atoms: C_1  and  C_2
REMARK    2  A    between atoms: C_2  and  C_3
REMARK    3  A    between atoms: C_4  and  C_11
REMARK    4  A    between atoms: C_6  and  C_10
REMARK    5  A    between atoms: C_8  and  O_9
REMARK    6  A    between atoms: C_12  and  C_13
REMARK    7  A    between atoms: C_16  and  O_19
REMARK    8  A    between atoms: O_19  and  C_20
REMARK    9  A    between atoms: C_20  and  C_21
REMARK   10  A    between atoms: C_20  and  C_22
REMARK                            x       y       z     vdW  Elec       q    Type
REMARK                         _______ _______ _______ _____ _____    ______ ____
ROOT
ATOM      1  C   UNL     1       3.562   1.746   0.885  0.00  0.00    +0.029 C 
ATOM      2  C   UNL     1       2.400   1.072   0.885  0.00  0.00    +0.010 C 
ENDROOT
BRANCH   1   4
ATOM      3  C   UNL     1       6.046   1.719   1.102  0.00  0.00    +0.039 A 
ATOM      4  C   UNL     1       4.829   1.030   1.106  0.00  0.00    +0.074 A 
ATOM      5  N   UNL     1       4.836  -0.291   1.308  0.00  0.00    -0.232 NA
ATOM      6  C   UNL     1       5.966  -0.936   1.506  0.00  0.00    +0.130 A 
ATOM      7  N   UNL     1       7.131  -0.318   1.513  0.00  0.00    -0.198 NA
ATOM      8  C   UNL     1       7.212   0.995   1.320  0.00  0.00    +0.219 A 
ATOM      9  C   UNL     1       5.928  -2.426   1.730  0.00  0.00    +0.088 C 
BRANCH   3  11
ATOM     10  C   UNL     1       5.985   3.935   2.214  0.00  0.00    +0.009 C 
ATOM     11  C   UNL     1       6.091   3.208   0.872  0.00  0.00    +0.039 C 
ENDBRANCH   3  11
BRANCH   8  12
ATOM     12  O   UNL     1       8.416   1.617   1.329  0.00  0.00    -0.492 OA
ATOM     13  H   UNL     1       8.841   1.665   0.462  0.00  0.00    +0.294 HD
ENDBRANCH   8  12
ENDBRANCH   1   4
BRANCH   2  14
ATOM     14  C   UNL     1       1.133   1.788   0.664  0.00  0.00    -0.025 A 
ATOM     15  C   UNL     1      -0.078   1.089   0.664  0.00  0.00    +0.011 A 
ATOM     16  C   UNL     1      -1.261   1.763   0.452  0.00  0.00    +0.046 A 
ATOM     17  C   UNL     1      -1.252   3.137   0.249  0.00  0.00    +0.121 A 
ATOM     18  C   UNL     1      -0.052   3.837   0.248  0.00  0.00    +0.046 A 
ATOM     19  C   UNL     1       1.136   3.171   0.454  0.00  0.00    +0.011 A 
BRANCH  17  20
ATOM     20  O   UNL     1      -2.421   3.798   0.045  0.00  0.00    -0.489 OA
BRANCH  20  21
ATOM     21  C   UNL     1      -3.606   3.005  -0.059  0.00  0.00    +0.167 C 
ATOM     22  C   UNL     1      -4.146   2.710   1.342  0.00  0.00    +0.051 C 
ATOM     23  C   UNL     1      -4.661   3.768  -0.862  0.00  0.00    +0.051 C 
ENDBRANCH  20  21
ENDBRANCH  17  20
ENDBRANCH   2  14
TORSDOF 6
