REMARK  Name = ZINC40840188
REMARK  9 active torsions:
REMARK  status: ('A' for Active; 'I' for Inactive)
REMARK    1  A    between atoms: C_1  and  C_2
REMARK    2  A    between atoms: C_5  and  C_35
REMARK    3  A    between atoms: N_13  and  C_21
REMARK    4  A    between atoms: C_21  and  C_22
REMARK    5  A    between atoms: C_22  and  C_23
REMARK    6  A    between atoms: N_25  and  C_26
REMARK    7  A    between atoms: C_26  and  C_27
REMARK    8  A    between atoms: C_32  and  O_33
REMARK    9  A    between atoms: O_33  and  C_34
REMARK                            x       y       z     vdW  Elec       q    Type
REMARK                         _______ _______ _______ _____ _____    ______ ____
ROOT
ATOM      1  C   UNL     1      -0.153   1.257  -0.514  0.00  0.00    +0.009 C 
ATOM      2  C   UNL     1      -0.143  -0.249  -0.247  0.00  0.00    +0.004 C 
ATOM      3  C   UNL     1      -1.569  -0.728   0.038  0.00  0.00    +0.009 C 
ATOM      4  C   UNL     1      -1.564  -2.240   0.273  0.00  0.00    +0.004 C 
ATOM      5  C   UNL     1      -0.694  -2.560   1.492  0.00  0.00    +0.110 C 
ATOM      6  N   UNL     1       0.639  -1.977   1.288  0.00  0.00    -0.310 N 
ATOM      7  C   UNL     1       0.744  -0.548   0.966  0.00  0.00    +0.110 C 
ATOM      8  C   UNL     1       1.775  -2.760   1.398  0.00  0.00    +0.188 A 
ATOM      9  C   UNL     1       3.109  -2.131   1.366  0.00  0.00    +0.292 A 
ATOM     10  O   UNL     1       3.220  -0.925   1.244  0.00  0.00    -0.264 OA
ATOM     11  N   UNL     1       4.206  -2.911   1.474  0.00  0.00    -0.303 N 
ATOM     12  C   UNL     1       4.047  -4.278   1.612  0.00  0.00    +0.070 A 
ATOM     13  C   UNL     1       5.161  -5.105   1.726  0.00  0.00    +0.028 A 
ATOM     14  C   UNL     1       4.994  -6.466   1.863  0.00  0.00    +0.002 A 
ATOM     15  C   UNL     1       3.721  -7.020   1.889  0.00  0.00    +0.002 A 
ATOM     16  C   UNL     1       2.616  -6.228   1.779  0.00  0.00    +0.030 A 
ATOM     17  C   UNL     1       2.759  -4.840   1.638  0.00  0.00    +0.090 A 
ATOM     18  N   UNL     1       1.665  -4.056   1.535  0.00  0.00    -0.225 NA
ATOM     19  C   UNL     1      -0.997  -2.946  -0.960  0.00  0.00    +0.009 C 
ENDROOT
BRANCH  11  20
ATOM     20  C   UNL     1       5.545  -2.318   1.445  0.00  0.00    +0.135 C 
BRANCH  20  21
ATOM     21  C   UNL     1       5.976  -1.963   2.869  0.00  0.00    +0.117 C 
BRANCH  21  22
ATOM     22  C   UNL     1       7.354  -1.353   2.840  0.00  0.00    +0.215 C 
ATOM     23  O   UNL     1       7.934  -1.216   1.784  0.00  0.00    -0.276 OA
ATOM     24  N   UNL     1       7.942  -0.959   3.987  0.00  0.00    -0.311 N 
ATOM     25  H   UNL     1       7.478  -1.068   4.832  0.00  0.00    +0.149 HD
BRANCH  24  26
ATOM     26  C   UNL     1       9.281  -0.366   3.959  0.00  0.00    +0.143 C 
BRANCH  26  27
ATOM     27  C   UNL     1       9.705  -0.016   5.362  0.00  0.00    +0.011 A 
ATOM     28  C   UNL     1       9.599   1.286   5.811  0.00  0.00    +0.009 A 
ATOM     29  C   UNL     1       9.989   1.609   7.098  0.00  0.00    +0.001 A 
ATOM     30  C   UNL     1      10.485   0.629   7.938  0.00  0.00    +0.004 A 
ATOM     31  C   UNL     1      10.593  -0.674   7.494  0.00  0.00    +0.046 A 
ATOM     32  C   UNL     1      10.198  -1.001   6.204  0.00  0.00    +0.125 A 
BRANCH  32  33
ATOM     33  O   UNL     1      10.298  -2.284   5.766  0.00  0.00    -0.495 OA
ATOM     34  C   UNL     1      10.813  -3.246   6.689  0.00  0.00    +0.277 C 
ENDBRANCH  32  33
ENDBRANCH  26  27
ENDBRANCH  24  26
ENDBRANCH  21  22
ENDBRANCH  20  21
ENDBRANCH  11  20
TORSDOF 6
