REMARK  Name = ZINC12762836
REMARK  9 active torsions:
REMARK  status: ('A' for Active; 'I' for Inactive)
REMARK    1  A    between atoms: C_1  and  C_2
REMARK    2  A    between atoms: C_5  and  C_8
REMARK    3  A    between atoms: C_8  and  N_54
REMARK    4  A    between atoms: C_9  and  N_54
REMARK    5  A    between atoms: C_10  and  C_11
REMARK    6  A    between atoms: C_10  and  N_54
REMARK    7  A    between atoms: C_13  and  C_16
REMARK    8  A    between atoms: C_16  and  C_17
REMARK    9  A    between atoms: C_16  and  C_23
REMARK                            x       y       z     vdW  Elec       q    Type
REMARK                         _______ _______ _______ _____ _____    ______ ____
ROOT
ATOM      1  C   UNL     1       3.061   6.446   2.280  0.00  0.00    +0.211 A 
ATOM      2  N   UNL     1       3.827   6.278   3.331  0.00  0.00    -0.197 NA
ATOM      3  C   UNL     1       3.087   6.668   4.384  0.00  0.00    +0.183 A 
ATOM      4  N   UNL     1       1.927   7.039   3.929  0.00  0.00    -0.060 NA
ATOM      5  O   UNL     1       1.892   6.919   2.722  0.00  0.00    -0.340 OA
ENDROOT
BRANCH   1   6
ATOM      6  C   UNL     1       3.426   6.154   0.847  0.00  0.00    +0.022 C 
BRANCH   6   8
ATOM      7  C   UNL     1       1.619   4.569   0.561  0.00  0.00    -0.095 C 
ATOM      8  N   UNL     1       3.086   4.748   0.545  0.00  0.00    +0.386 N 
ATOM      9  H   UNL     1       3.504   4.142   1.261  0.00  0.00    -0.081 HD
BRANCH   8  10
ATOM     10  C   UNL     1       3.626   4.370  -0.778  0.00  0.00    -0.043 C 
BRANCH  10  15
ATOM     11  C   UNL     1       2.990  -1.328  -1.497  0.00  0.00    +0.044 C 
ATOM     12  C   UNL     1       3.156   0.158  -1.309  0.00  0.00    -0.050 A 
ATOM     13  C   UNL     1       2.164   1.023  -1.731  0.00  0.00    +0.003 A 
ATOM     14  C   UNL     1       2.316   2.386  -1.559  0.00  0.00    +0.002 A 
ATOM     15  C   UNL     1       3.460   2.884  -0.965  0.00  0.00    -0.064 A 
ATOM     16  C   UNL     1       4.453   2.020  -0.543  0.00  0.00    +0.002 A 
ATOM     17  C   UNL     1       4.301   0.656  -0.715  0.00  0.00    +0.003 A 
ENDBRANCH  10  15
ENDBRANCH   8  10
ENDBRANCH   6   8
ENDBRANCH   1   6
BRANCH   3  18
ATOM     18  C   UNL     1       3.521   6.669   5.827  0.00  0.00    +0.120 C 
BRANCH  18  19
ATOM     19  C   UNL     1       3.447   8.072   6.372  0.00  0.00    -0.033 A 
ATOM     20  C   UNL     1       2.279   8.801   6.251  0.00  0.00    +0.004 A 
ATOM     21  C   UNL     1       2.211  10.086   6.755  0.00  0.00    +0.000 A 
ATOM     22  C   UNL     1       3.314  10.647   7.372  0.00  0.00    +0.000 A 
ATOM     23  C   UNL     1       4.484   9.920   7.489  0.00  0.00    +0.000 A 
ATOM     24  C   UNL     1       4.551   8.633   6.989  0.00  0.00    +0.004 A 
ENDBRANCH  18  19
BRANCH  18  25
ATOM     25  C   UNL     1       2.611   5.772   6.626  0.00  0.00    -0.033 A 
ATOM     26  C   UNL     1       1.240   5.942   6.560  0.00  0.00    +0.004 A 
ATOM     27  C   UNL     1       0.406   5.116   7.289  0.00  0.00    +0.000 A 
ATOM     28  C   UNL     1       0.942   4.127   8.092  0.00  0.00    +0.000 A 
ATOM     29  C   UNL     1       2.312   3.960   8.162  0.00  0.00    +0.000 A 
ATOM     30  C   UNL     1       3.147   4.783   7.429  0.00  0.00    +0.004 A 
ENDBRANCH  18  25
ENDBRANCH   3  18
TORSDOF 7
