REMARK  Name = ZINC10000595
REMARK  11 active torsions:
REMARK  status: ('A' for Active; 'I' for Inactive)
REMARK    1  A    between atoms: C_1  and  C_2
REMARK    2  A    between atoms: C_2  and  C_3
REMARK    3  A    between atoms: C_2  and  C_4
REMARK    4  A    between atoms: C_4  and  C_6
REMARK    5  A    between atoms: C_4  and  N_22
REMARK    6  A    between atoms: N_8  and  N_9
REMARK    7  A    between atoms: C_10  and  C_11
REMARK    8  A    between atoms: C_14  and  O_17
REMARK    9  A    between atoms: O_17  and  C_18
REMARK   10  A    between atoms: C_18  and  C_19
REMARK   11  A    between atoms: C_23  and  C_25
REMARK                            x       y       z     vdW  Elec       q    Type
REMARK                         _______ _______ _______ _____ _____    ______ ____
ROOT
ATOM      1  C   UNL     1      -0.014   1.209   0.009  0.00  0.00    +0.253 C 
ATOM      2  O   UNL     1       0.002  -0.004   0.002  0.00  0.00    -0.272 OA
ATOM      3  N   UNL     1      -1.191   1.867   0.018  0.00  0.00    -0.205 N 
ATOM      4  H   UNL     1      -1.204   2.837   0.023  0.00  0.00    +0.177 HD
ENDROOT
BRANCH   3   5
ATOM      5  N   UNL     1      -2.394   1.150   0.020  0.00  0.00    -0.188 NA
ATOM      6  C   UNL     1      -3.527   1.784   0.029  0.00  0.00    +0.138 C 
BRANCH   6   7
ATOM      7  C   UNL     1      -4.793   1.029   0.030  0.00  0.00    -0.005 A 
ATOM      8  C   UNL     1      -4.777  -0.368   0.017  0.00  0.00    +0.013 A 
ATOM      9  C   UNL     1      -5.963  -1.069   0.024  0.00  0.00    +0.046 A 
ATOM     10  C   UNL     1      -7.174  -0.389   0.034  0.00  0.00    +0.121 A 
ATOM     11  C   UNL     1      -7.196   1.000   0.042  0.00  0.00    +0.046 A 
ATOM     12  C   UNL     1      -6.014   1.709   0.040  0.00  0.00    +0.013 A 
BRANCH  10  13
ATOM     13  O   UNL     1      -8.341  -1.084   0.035  0.00  0.00    -0.483 OA
BRANCH  13  14
ATOM     14  C   UNL     1      -8.247  -2.510   0.026  0.00  0.00    +0.324 C 
BRANCH  14  15
ATOM     15  C   UNL     1      -9.632  -3.105   0.028  0.00  0.00    +0.248 C 
ATOM     16  O   UNL     1     -10.604  -2.379   0.036  0.00  0.00    -0.272 OA
ATOM     17  N   UNL     1      -9.790  -4.443   0.021  0.00  0.00    -0.327 N 
ATOM     18  H   UNL     1      -9.013  -5.024   0.015  0.00  0.00    +0.145 HD
ATOM     19  H   UNL     1     -10.682  -4.826   0.023  0.00  0.00    +0.145 HD
ENDBRANCH  14  15
ENDBRANCH  13  14
ENDBRANCH  10  13
ENDBRANCH   6   7
ENDBRANCH   3   5
BRANCH   1  20
ATOM     20  C   UNL     1       1.280   1.980   0.001  0.00  0.00    +0.163 C 
BRANCH  20  21
ATOM     21  N   UNL     1       2.407   1.043  -0.015  0.00  0.00    -0.300 N 
ATOM     22  C   UNL     1       3.606   1.423   0.469  0.00  0.00    +0.245 C 
ATOM     23  O   UNL     1       3.753   2.543   0.918  0.00  0.00    -0.270 OA
ATOM     24  H   UNL     1       2.289   0.150  -0.374  0.00  0.00    +0.150 HD
BRANCH  22  25
ATOM     25  C   UNL     1       4.742   0.478   0.453  0.00  0.00    +0.038 A 
ATOM     26  C   UNL     1       4.574  -0.811  -0.058  0.00  0.00    +0.014 A 
ATOM     27  C   UNL     1       5.639  -1.687  -0.075  0.00  0.00    +0.022 A 
ATOM     28  C   UNL     1       6.871  -1.295   0.423  0.00  0.00    +0.059 A 
ATOM     29  C   UNL     1       7.042  -0.018   0.936  0.00  0.00    +0.060 A 
ATOM     30  C   UNL     1       5.985   0.869   0.953  0.00  0.00    +0.034 A 
ATOM     31 CL   UNL     1       8.589   0.465   1.557  0.00  0.00    -0.082 Cl
ATOM     32 CL   UNL     1       8.204  -2.406   0.404  0.00  0.00    -0.082 Cl
ENDBRANCH  22  25
ENDBRANCH  20  21
BRANCH  20  34
ATOM     33  C   UNL     1       2.652   3.650  -1.253  0.00  0.00    +0.009 C 
ATOM     34  C   UNL     1       1.337   2.868  -1.245  0.00  0.00    +0.012 C 
ATOM     35  C   UNL     1       1.256   1.994  -2.498  0.00  0.00    +0.009 C 
ENDBRANCH  20  34
ENDBRANCH   1  20
TORSDOF 9
