REMARK  Name = ZINC44905545
REMARK  12 active torsions:
REMARK  status: ('A' for Active; 'I' for Inactive)
REMARK    1  A    between atoms: C_1  and  C_2
REMARK    2  A    between atoms: C_2  and  O_3
REMARK    3  A    between atoms: O_3  and  C_4
REMARK    4  A    between atoms: C_7  and  C_13
REMARK    5  A    between atoms: C_9  and  O_10
REMARK    6  A    between atoms: O_10  and  C_11
REMARK    7  A    between atoms: C_11  and  C_12
REMARK    8  A    between atoms: C_13  and  C_15
REMARK    9  A    between atoms: C_13  and  N_16
REMARK   10  A    between atoms: C_17  and  C_19
REMARK   11  A    between atoms: N_24  and  C_26
REMARK   12  A    between atoms: C_26  and  C_27
REMARK                            x       y       z     vdW  Elec       q    Type
REMARK                         _______ _______ _______ _____ _____    ______ ____
ROOT
ATOM      1  N   UNL     1      -1.006  -6.699  -0.906  0.00  0.00    -0.309 N 
ATOM      2  C   UNL     1      -1.249  -7.899  -1.471  0.00  0.00    +0.215 C 
ATOM      3  O   UNL     1      -2.288  -8.479  -1.237  0.00  0.00    -0.276 OA
ATOM      4  H   UNL     1      -0.175  -6.235  -1.093  0.00  0.00    +0.149 HD
ENDROOT
BRANCH   2   5
ATOM      5  C   UNL     1      -0.230  -8.518  -2.392  0.00  0.00    +0.058 C 
ATOM      6  C   UNL     1       1.084  -8.728  -1.634  0.00  0.00    +0.009 C 
ATOM      7  C   UNL     1       2.087  -9.429  -2.555  0.00  0.00    -0.018 C 
ATOM      8  C   UNL     1       1.485 -10.747  -3.046  0.00  0.00    -0.078 C 
ATOM      9  N   UNL     1       0.246 -10.477  -3.785  0.00  0.00    +0.383 N 
ATOM     10  C   UNL     1      -0.747  -9.870  -2.891  0.00  0.00    -0.066 C 
ATOM     11  H   UNL     1       0.441  -9.845  -4.548  0.00  0.00    -0.081 HD
BRANCH   9  12
ATOM     12  C   UNL     1      -0.287 -11.737  -4.322  0.00  0.00    -0.043 C 
BRANCH  12  13
ATOM     13  C   UNL     1       0.672 -12.294  -5.341  0.00  0.00    -0.062 A 
ATOM     14  C   UNL     1       0.551 -11.939  -6.672  0.00  0.00    +0.003 A 
ATOM     15  C   UNL     1       1.430 -12.450  -7.608  0.00  0.00    +0.021 A 
ATOM     16  C   UNL     1       2.433 -13.317  -7.214  0.00  0.00    +0.059 A 
ATOM     17  C   UNL     1       2.555 -13.673  -5.881  0.00  0.00    +0.059 A 
ATOM     18  C   UNL     1       1.677 -13.157  -4.945  0.00  0.00    +0.023 A 
ATOM     19 CL   UNL     1       3.812 -14.762  -5.385  0.00  0.00    -0.082 Cl
ATOM     20 CL   UNL     1       3.537 -13.960  -8.389  0.00  0.00    -0.082 Cl
ENDBRANCH  12  13
ENDBRANCH   9  12
ENDBRANCH   2   5
BRANCH   1  21
ATOM     21  C   UNL     1      -1.996  -6.097  -0.011  0.00  0.00    +0.100 C 
ATOM     22  C   UNL     1      -1.800  -6.639   1.406  0.00  0.00    +0.033 C 
BRANCH  21  26
ATOM     23  C   UNL     1      -1.498  -1.849   0.006  0.00  0.00    +0.162 A 
ATOM     24  C   UNL     1      -0.389  -2.680  -0.003  0.00  0.00    +0.050 A 
ATOM     25  C   UNL     1      -0.553  -4.052  -0.008  0.00  0.00    +0.009 A 
ATOM     26  C   UNL     1      -1.823  -4.600  -0.005  0.00  0.00    -0.024 A 
ATOM     27  C   UNL     1      -2.934  -3.777   0.004  0.00  0.00    +0.055 A 
ATOM     28  C   UNL     1      -2.776  -2.400   0.016  0.00  0.00    +0.162 A 
BRANCH  23  29
ATOM     29  O   UNL     1      -1.339  -0.499   0.012  0.00  0.00    -0.489 OA
BRANCH  29  31
ATOM     30  C   UNL     1      -0.019   1.526   0.010  0.00  0.00    +0.048 C 
ATOM     31  C   UNL     1       0.002  -0.004   0.002  0.00  0.00    +0.226 C 
ENDBRANCH  29  31
ENDBRANCH  23  29
BRANCH  28  32
ATOM     32  O   UNL     1      -3.868  -1.589   0.030  0.00  0.00    -0.489 OA
BRANCH  32  33
ATOM     33  C   UNL     1      -5.148  -2.225   0.039  0.00  0.00    +0.226 C 
ATOM     34  C   UNL     1      -6.246  -1.159   0.055  0.00  0.00    +0.048 C 
ENDBRANCH  32  33
ENDBRANCH  28  32
ENDBRANCH  21  26
ENDBRANCH   1  21
TORSDOF 9
