REMARK  Name = ZINC02368528
REMARK  10 active torsions:
REMARK  status: ('A' for Active; 'I' for Inactive)
REMARK    1  A    between atoms: C_1  and  N_2
REMARK    2  A    between atoms: N_2  and  C_3
REMARK    3  A    between atoms: N_2  and  C_4
REMARK    4  A    between atoms: C_7  and  P_10
REMARK    5  A    between atoms: P_10  and  C_12
REMARK    6  A    between atoms: P_10  and  O_28
REMARK    7  A    between atoms: C_12  and  C_14
REMARK    8  A    between atoms: C_12  and  N_21
REMARK    9  A    between atoms: N_21  and  C_22
REMARK   10  A    between atoms: O_28  and  C_29
REMARK                            x       y       z     vdW  Elec       q    Type
REMARK                         _______ _______ _______ _____ _____    ______ ____
ROOT
ATOM      1  P   UNL     1       2.680   5.843  -1.823  0.00  0.00    +0.258 P 
ATOM      2  O   UNL     1       4.014   5.340  -2.220  0.00  0.00    -0.284 OA
ENDROOT
BRANCH   1   6
ATOM      3  C   UNL     1       2.613  10.412  -2.143  0.00  0.00    +0.029 A 
ATOM      4  C   UNL     1       3.799   9.752  -1.846  0.00  0.00    +0.024 A 
ATOM      5  C   UNL     1       3.816   8.375  -1.750  0.00  0.00    +0.015 A 
ATOM      6  C   UNL     1       2.654   7.652  -1.950  0.00  0.00    +0.039 A 
ATOM      7  C   UNL     1       1.473   8.305  -2.251  0.00  0.00    +0.015 A 
ATOM      8  C   UNL     1       1.448   9.683  -2.342  0.00  0.00    +0.024 A 
BRANCH   3  10
ATOM      9  C   UNL     1       3.823  12.572  -2.031  0.00  0.00    +0.129 C 
ATOM     10  N   UNL     1       2.593  11.805  -2.241  0.00  0.00    -0.336 N 
ATOM     11  C   UNL     1       1.342  12.499  -2.554  0.00  0.00    +0.129 C 
ENDBRANCH   3  10
ENDBRANCH   1   6
BRANCH   1  12
ATOM     12  C   UNL     1       2.332   5.349  -0.102  0.00  0.00    +0.193 C 
BRANCH  12  13
ATOM     13  C   UNL     1       3.380   5.932   0.810  0.00  0.00    -0.018 A 
ATOM     14  C   UNL     1       4.575   5.264   1.005  0.00  0.00    +0.007 A 
ATOM     15  C   UNL     1       5.539   5.801   1.837  0.00  0.00    +0.020 A 
ATOM     16  C   UNL     1       5.304   7.002   2.483  0.00  0.00    +0.041 A 
ATOM     17  C   UNL     1       4.106   7.667   2.291  0.00  0.00    +0.020 A 
ATOM     18  C   UNL     1       3.145   7.132   1.455  0.00  0.00    +0.007 A 
ATOM     19 CL   UNL     1       6.512   7.673   3.533  0.00  0.00    -0.084 Cl
ENDBRANCH  12  13
BRANCH  12  20
ATOM     20  N   UNL     1       2.353   3.888   0.000  0.00  0.00    -0.329 N 
ATOM     21  H   UNL     1       3.200   3.415   0.011  0.00  0.00    +0.147 HD
BRANCH  20  22
ATOM     22  C   UNL     1       1.154   3.176   0.082  0.00  0.00    +0.028 A 
ATOM     23  C   UNL     1      -0.058   3.832  -0.087  0.00  0.00    +0.023 A 
ATOM     24  C   UNL     1      -1.242   3.125  -0.005  0.00  0.00    +0.002 A 
ATOM     25  C   UNL     1      -1.221   1.767   0.252  0.00  0.00    +0.000 A 
ATOM     26  C   UNL     1      -0.015   1.109   0.416  0.00  0.00    +0.002 A 
ATOM     27  C   UNL     1       1.172   1.810   0.335  0.00  0.00    +0.023 A 
ENDBRANCH  20  22
ENDBRANCH  12  20
ENDBRANCH   1  12
BRANCH   1  28
ATOM     28  O   UNL     1       1.560   5.220  -2.797  0.00  0.00    -0.320 OA
BRANCH  28  29
ATOM     29  C   UNL     1       1.613   5.340  -4.220  0.00  0.00    +0.126 C 
ATOM     30  C   UNL     1       0.367   6.076  -4.716  0.00  0.00    +0.032 C 
ATOM     31  C   UNL     1       0.423   6.204  -6.240  0.00  0.00    +0.003 C 
ATOM     32  C   UNL     1       0.476   4.809  -6.867  0.00  0.00    +0.000 C 
ATOM     33  C   UNL     1       1.722   4.073  -6.371  0.00  0.00    +0.003 C 
ATOM     34  C   UNL     1       1.665   3.945  -4.847  0.00  0.00    +0.032 C 
ENDBRANCH  28  29
ENDBRANCH   1  28
TORSDOF 8
