REMARK  Name = ZINC63279664
REMARK  6 active torsions:
REMARK  status: ('A' for Active; 'I' for Inactive)
REMARK    1  A    between atoms: C_1  and  C_2
REMARK    2  A    between atoms: C_2  and  C_4
REMARK    3  A    between atoms: C_2  and  N_14
REMARK    4  A    between atoms: C_4  and  C_5
REMARK    5  A    between atoms: C_15  and  C_17
REMARK    6  A    between atoms: C_17  and  N_18
REMARK                            x       y       z     vdW  Elec       q    Type
REMARK                         _______ _______ _______ _____ _____    ______ ____
ROOT
ATOM      1  N   UNL     1       0.688  -0.476  -1.203  0.00  0.00    -0.311 N 
ATOM      2  C   UNL     1       0.006  -0.608  -2.358  0.00  0.00    +0.232 C 
ATOM      3  O   UNL     1      -1.175  -0.336  -2.400  0.00  0.00    -0.274 OA
ATOM      4  H   UNL     1       1.632  -0.695  -1.170  0.00  0.00    +0.149 HD
ENDROOT
BRANCH   1   6
ATOM      5  C   UNL     1      -0.019   1.526   0.010  0.00  0.00    +0.028 C 
ATOM      6  C   UNL     1       0.002  -0.004   0.002  0.00  0.00    +0.074 C 
BRANCH   6   7
ATOM      7  C   UNL     1       0.742  -0.511   1.242  0.00  0.00    +0.055 C 
BRANCH   7   8
ATOM      8  C   UNL     1       0.657  -2.014   1.298  0.00  0.00    -0.040 C 
ATOM      9  C   UNL     1       1.572  -2.899   0.840  0.00  0.00    -0.001 A 
ATOM     10  C   UNL     1       2.871  -2.732   0.178  0.00  0.00    +0.010 A 
ATOM     11  C   UNL     1       3.576  -3.832  -0.172  0.00  0.00    +0.001 A 
ATOM     12  C   UNL     1       3.098  -5.125   0.083  0.00  0.00    +0.002 A 
ATOM     13  C   UNL     1       1.914  -5.358   0.687  0.00  0.00    +0.026 A 
ATOM     14  C   UNL     1       1.090  -4.274   1.098  0.00  0.00    +0.043 A 
ATOM     15  N   UNL     1      -0.079  -4.242   1.691  0.00  0.00    -0.380 N 
ATOM     16  C   UNL     1      -0.467  -2.840   1.883  0.00  0.00    +0.144 C 
ATOM     17  H   UNL     1      -0.598  -5.015   1.962  0.00  0.00    +0.160 HD
ENDBRANCH   7   8
ENDBRANCH   6   7
ENDBRANCH   1   6
BRANCH   2  18
ATOM     18  C   UNL     1       0.712  -1.094  -3.598  0.00  0.00    +0.224 C 
BRANCH  18  19
ATOM     19  N   UNL     1      -0.240  -1.150  -4.711  0.00  0.00    -0.208 N 
ATOM     20  C   UNL     1      -0.396  -0.062  -5.500  0.00  0.00    +0.264 C 
ATOM     21  O   UNL     1       0.304   0.923  -5.361  0.00  0.00    -0.269 OA
ATOM     22  C   UNL     1      -1.446  -0.114  -6.535  0.00  0.00    +0.060 A 
ATOM     23  C   UNL     1      -1.549   0.822  -7.556  0.00  0.00    +0.015 A 
ATOM     24  C   UNL     1      -2.565   0.701  -8.483  0.00  0.00    +0.001 A 
ATOM     25  C   UNL     1      -3.475  -0.342  -8.399  0.00  0.00    +0.002 A 
ATOM     26  C   UNL     1      -3.382  -1.280  -7.388  0.00  0.00    +0.025 A 
ATOM     27  C   UNL     1      -2.370  -1.175  -6.453  0.00  0.00    +0.055 A 
ATOM     28  N   UNL     1      -2.202  -2.080  -5.413  0.00  0.00    -0.264 N 
ATOM     29  N   UNL     1      -0.939  -2.297  -4.928  0.00  0.00    -0.158 NA
ATOM     30  H   UNL     1      -2.964  -2.551  -5.039  0.00  0.00    +0.168 HD
ATOM     31  H   UNL     1      -0.423  -2.929  -5.522  0.00  0.00    +0.168 HD
ENDBRANCH  18  19
ENDBRANCH   2  18
TORSDOF 5
