REMARK  Name = ZINC33688174
REMARK  11 active torsions:
REMARK  status: ('A' for Active; 'I' for Inactive)
REMARK    1  A    between atoms: C_1  and  N_2
REMARK    2  A    between atoms: N_2  and  C_3
REMARK    3  A    between atoms: N_2  and  C_27
REMARK    4  A    between atoms: C_3  and  C_4
REMARK    5  A    between atoms: C_4  and  C_6
REMARK    6  A    between atoms: C_4  and  N_19
REMARK    7  A    between atoms: C_6  and  S_7
REMARK    8  A    between atoms: S_7  and  C_10
REMARK    9  A    between atoms: C_13  and  N_16
REMARK   10  A    between atoms: N_19  and  C_20
REMARK   11  A    between atoms: N_19  and  C_21
REMARK                            x       y       z     vdW  Elec       q    Type
REMARK                         _______ _______ _______ _____ _____    ______ ____
ROOT
ATOM      1  C   UNL     1       0.021   0.313   2.302  0.00  0.00    +0.061 C 
ENDROOT
BRANCH   1   2
ATOM      2  N   UNL     1      -0.146   1.767   2.168  0.00  0.00    -0.300 NA
ATOM      3  C   UNL     1      -1.564   2.123   2.026  0.00  0.00    +0.105 C 
BRANCH   2   4
ATOM      4  C   UNL     1       0.643   2.285   1.042  0.00  0.00    +0.057 C 
ATOM      5  C   UNL     1       2.127   2.007   1.288  0.00  0.00    +0.019 C 
ATOM      6  C   UNL     1       2.948   2.547   0.115  0.00  0.00    +0.002 C 
ATOM      7  C   UNL     1       2.725   4.056  -0.012  0.00  0.00    +0.000 C 
ATOM      8  C   UNL     1       1.241   4.333  -0.258  0.00  0.00    +0.002 C 
ATOM      9  C   UNL     1       0.420   3.793   0.914  0.00  0.00    +0.019 C 
ENDBRANCH   2   4
ENDBRANCH   1   2
BRANCH   1  10
ATOM     10  C   UNL     1       0.273  -0.301   0.923  0.00  0.00    -0.058 C 
BRANCH  10  12
ATOM     11  C   UNL     1      -0.990  -2.271   1.452  0.00  0.00    -0.096 C 
ATOM     12  N   UNL     1       0.326  -1.764   1.042  0.00  0.00    +0.381 N 
ATOM     13  H   UNL     1       1.016  -2.021   1.732  0.00  0.00    -0.082 HD
BRANCH  12  14
ATOM     14  C   UNL     1       0.693  -2.347  -0.256  0.00  0.00    -0.069 C 
ATOM     15  C   UNL     1       0.749  -3.871  -0.133  0.00  0.00    -0.015 C 
ATOM     16  C   UNL     1       1.130  -4.478  -1.484  0.00  0.00    -0.002 C 
ATOM     17  C   UNL     1       2.501  -3.950  -1.912  0.00  0.00    -0.000 C 
ATOM     18  C   UNL     1       2.445  -2.426  -2.035  0.00  0.00    -0.002 C 
ATOM     19  C   UNL     1       2.064  -1.819  -0.683  0.00  0.00    -0.015 C 
ENDBRANCH  12  14
ENDBRANCH  10  12
ENDBRANCH   1  10
BRANCH   1  20
ATOM     20  C   UNL     1       1.211   0.018   3.217  0.00  0.00    +0.188 C 
BRANCH  20  21
ATOM     21  S   UNL     1       0.833   0.579   4.900  0.00  0.00    -0.002 S 
ATOM     22  O   UNL     1       0.753   1.997   4.938  0.00  0.00    -0.169 OA
ATOM     23  O   UNL     1      -0.199  -0.220   5.462  0.00  0.00    -0.169 OA
BRANCH  21  24
ATOM     24  C   UNL     1       2.270   0.185   5.842  0.00  0.00    +0.088 A 
ATOM     25  C   UNL     1       2.374  -1.047   6.460  0.00  0.00    +0.029 A 
ATOM     26  C   UNL     1       3.501  -1.356   7.199  0.00  0.00    +0.034 A 
ATOM     27  C   UNL     1       4.524  -0.433   7.319  0.00  0.00    +0.126 A 
ATOM     28  C   UNL     1       4.420   0.798   6.699  0.00  0.00    +0.034 A 
ATOM     29  C   UNL     1       3.295   1.105   5.957  0.00  0.00    +0.029 A 
BRANCH  27  30
ATOM     30  N   UNL     1       5.730  -0.764   8.110  0.00  0.00    +0.056 N 
ATOM     31  O   UNL     1       5.821  -1.841   8.652  0.00  0.00    -0.126 OA
ATOM     32  O   UNL     1       6.624   0.043   8.215  0.00  0.00    -0.126 OA
ENDBRANCH  27  30
ENDBRANCH  21  24
ENDBRANCH  20  21
ENDBRANCH   1  20
TORSDOF 9
