REMARK  Name = ZINC38597774
REMARK  7 active torsions:
REMARK  status: ('A' for Active; 'I' for Inactive)
REMARK    1  A    between atoms: C_4  and  S_8
REMARK    2  A    between atoms: S_8  and  N_11
REMARK    3  A    between atoms: N_11  and  C_12
REMARK    4  A    between atoms: C_12  and  C_13
REMARK    5  A    between atoms: C_13  and  C_15
REMARK    6  A    between atoms: C_13  and  N_20
REMARK    7  A    between atoms: N_23  and  C_26
REMARK                            x       y       z     vdW  Elec       q    Type
REMARK                         _______ _______ _______ _____ _____    ______ ____
ROOT
ATOM      1  C   UNL     1       4.437  -2.185   3.589  0.00  0.00    +0.015 C 
ENDROOT
BRANCH   1   2
ATOM      2  N   UNL     1       4.801  -0.917   4.235  0.00  0.00    +0.389 N 
ATOM      3  C   UNL     1       5.415  -0.024   3.244  0.00  0.00    -0.059 C 
ATOM      4  C   UNL     1       5.689   1.339   3.888  0.00  0.00    +0.086 C 
ATOM      5  N   UNL     1       6.497   1.129   5.099  0.00  0.00    -0.333 N 
ATOM      6  C   UNL     1       6.038   0.126   6.074  0.00  0.00    +0.086 C 
ATOM      7  C   UNL     1       5.747  -1.179   5.326  0.00  0.00    -0.059 C 
ATOM      8  H   UNL     1       3.971  -0.481   4.608  0.00  0.00    -0.081 HD
BRANCH   5   9
ATOM      9  C   UNL     1       7.668   1.860   5.319  0.00  0.00    +0.030 A 
ATOM     10  C   UNL     1       8.152   2.711   4.333  0.00  0.00    +0.026 A 
ATOM     11  C   UNL     1       9.309   3.433   4.552  0.00  0.00    +0.040 A 
ATOM     12  C   UNL     1       9.986   3.310   5.753  0.00  0.00    +0.124 A 
ATOM     13  C   UNL     1       9.506   2.462   6.737  0.00  0.00    +0.040 A 
ATOM     14  C   UNL     1       8.347   1.742   6.525  0.00  0.00    +0.026 A 
ATOM     15  F   UNL     1      11.118   4.017   5.965  0.00  0.00    -0.205 F 
ENDBRANCH   5   9
ENDBRANCH   1   2
BRANCH   1  16
ATOM     16  C   UNL     1       3.723  -3.067   4.580  0.00  0.00    +0.093 A 
ATOM     17  C   UNL     1       3.889  -4.396   4.713  0.00  0.00    +0.043 A 
ATOM     18  C   UNL     1       3.029  -4.814   5.755  0.00  0.00    +0.041 A 
ATOM     19  C   UNL     1       2.389  -3.716   6.196  0.00  0.00    +0.195 A 
ATOM     20  O   UNL     1       2.818  -2.660   5.485  0.00  0.00    -0.469 OA
ENDBRANCH   1  16
BRANCH   1  21
ATOM     21  C   UNL     1       3.516  -1.906   2.399  0.00  0.00    +0.098 C 
BRANCH  21  22
ATOM     22  N   UNL     1       2.369  -1.112   2.845  0.00  0.00    -0.191 NA
ATOM     23  H   UNL     1       2.158  -1.053   3.791  0.00  0.00    +0.148 HD
BRANCH  22  24
ATOM     24  S   UNL     1       1.431  -0.316   1.737  0.00  0.00    +0.064 S 
ATOM     25  O   UNL     1       2.322   0.393   0.886  0.00  0.00    -0.153 OA
ATOM     26  O   UNL     1       0.399   0.332   2.468  0.00  0.00    -0.153 OA
BRANCH  24  30
ATOM     27  C   UNL     1      -0.578  -3.464  -0.827  0.00  0.00    +0.006 A 
ATOM     28  C   UNL     1      -1.196  -3.014   0.325  0.00  0.00    +0.040 A 
ATOM     29  C   UNL     1      -0.582  -2.052   1.109  0.00  0.00    +0.152 A 
ATOM     30  C   UNL     1       0.650  -1.541   0.740  0.00  0.00    +0.175 A 
ATOM     31  C   UNL     1       1.268  -1.993  -0.414  0.00  0.00    +0.152 A 
ATOM     32  C   UNL     1       0.652  -2.955  -1.197  0.00  0.00    +0.040 A 
ATOM     33  F   UNL     1       2.471  -1.495  -0.775  0.00  0.00    -0.203 F 
ATOM     34  F   UNL     1      -1.187  -1.611   2.234  0.00  0.00    -0.203 F 
ENDBRANCH  24  30
ENDBRANCH  22  24
ENDBRANCH  21  22
ENDBRANCH   1  21
TORSDOF 7
