REMARK  Name = ZINC13408067
REMARK  15 active torsions:
REMARK  status: ('A' for Active; 'I' for Inactive)
REMARK    1  A    between atoms: C_1  and  C_2
REMARK    2  A    between atoms: C_2  and  O_3
REMARK    3  A    between atoms: O_3  and  C_4
REMARK    4  A    between atoms: C_4  and  C_6
REMARK    5  A    between atoms: C_8  and  C_29
REMARK    6  A    between atoms: C_9  and  C_24
REMARK    7  A    between atoms: C_11  and  C_19
REMARK    8  A    between atoms: C_11  and  O_23
REMARK    9  A    between atoms: C_13  and  C_14
REMARK   10  A    between atoms: C_13  and  O_18
REMARK   11  A    between atoms: C_24  and  O_26
REMARK   12  A    between atoms: O_26  and  C_27
REMARK   13  A    between atoms: C_27  and  C_28
REMARK   14  A    between atoms: C_32  and  O_35
REMARK   15  A    between atoms: O_35  and  C_36
REMARK                            x       y       z     vdW  Elec       q    Type
REMARK                         _______ _______ _______ _____ _____    ______ ____
ROOT
ATOM      1  C   UNL     1       1.861  -2.738   2.458  0.00  0.00    +0.162 C 
ATOM      2  C   UNL     1       1.518  -4.221   2.296  0.00  0.00    +0.055 C 
ATOM      3  C   UNL     1       1.688  -4.618   0.827  0.00  0.00    +0.162 C 
ATOM      4  C   UNL     1       3.123  -4.319   0.386  0.00  0.00    +0.230 C 
ATOM      5  N   UNL     1       3.402  -2.888   0.560  0.00  0.00    -0.245 NA
ATOM      6  C   UNL     1       3.291  -2.492   1.971  0.00  0.00    +0.230 C 
ATOM      7  H   UNL     1       4.309  -2.648   0.188  0.00  0.00    +0.128 HD
ENDROOT
BRANCH   2   8
ATOM      8  C   UNL     1       2.442  -5.048   3.152  0.00  0.00    -0.042 A 
ATOM      9  C   UNL     1       2.937  -4.530   4.334  0.00  0.00    +0.007 A 
ATOM     10  C   UNL     1       3.784  -5.286   5.120  0.00  0.00    +0.046 A 
ATOM     11  C   UNL     1       4.138  -6.567   4.723  0.00  0.00    +0.120 A 
ATOM     12  C   UNL     1       3.640  -7.085   3.536  0.00  0.00    +0.046 A 
ATOM     13  C   UNL     1       2.789  -6.327   2.756  0.00  0.00    +0.007 A 
BRANCH  11  14
ATOM     14  O   UNL     1       4.972  -7.313   5.494  0.00  0.00    -0.495 OA
ATOM     15  C   UNL     1       5.294  -8.623   5.023  0.00  0.00    +0.277 C 
ENDBRANCH  11  14
ENDBRANCH   2   8
BRANCH   6  16
ATOM     16  C   UNL     1       3.630  -1.008   2.113  0.00  0.00    +0.433 C 
ATOM     17  F   UNL     1       3.483  -0.622   3.450  0.00  0.00    -0.166 F 
ATOM     18  F   UNL     1       4.952  -0.790   1.708  0.00  0.00    -0.166 F 
ATOM     19  F   UNL     1       2.767  -0.253   1.312  0.00  0.00    -0.166 F 
ENDBRANCH   6  16
BRANCH   4  20
ATOM     20  C   UNL     1       3.293  -4.696  -1.087  0.00  0.00    +0.433 C 
ATOM     21  F   UNL     1       2.575  -3.797  -1.884  0.00  0.00    -0.166 F 
ATOM     22  F   UNL     1       4.648  -4.643  -1.429  0.00  0.00    -0.166 F 
ATOM     23  F   UNL     1       2.809  -5.992  -1.296  0.00  0.00    -0.166 F 
ENDBRANCH   4  20
BRANCH   1  24
ATOM     24  C   UNL     1       0.902  -1.907   1.644  0.00  0.00    +0.315 C 
ATOM     25  O   UNL     1       1.263  -1.419   0.599  0.00  0.00    -0.250 OA
BRANCH  24  26
ATOM     26  O   UNL     1      -0.352  -1.710   2.080  0.00  0.00    -0.465 OA
BRANCH  26  28
ATOM     27  C   UNL     1      -2.554  -0.723   1.960  0.00  0.00    +0.048 C 
ATOM     28  C   UNL     1      -1.149  -0.769   1.357  0.00  0.00    +0.229 C 
ENDBRANCH  26  28
ENDBRANCH  24  26
ENDBRANCH   1  24
BRANCH   6  29
ATOM     29  O   UNL     1       4.200  -3.266   2.755  0.00  0.00    -0.366 OA
ATOM     30  H   UNL     1       5.132  -3.103   2.553  0.00  0.00    +0.212 HD
ENDBRANCH   6  29
BRANCH   4  31
ATOM     31  O   UNL     1       4.034  -5.082   1.180  0.00  0.00    -0.366 OA
ATOM     32  H   UNL     1       4.965  -4.888   1.006  0.00  0.00    +0.212 HD
ENDBRANCH   4  31
BRANCH   3  33
ATOM     33  C   UNL     1       0.726  -3.829  -0.023  0.00  0.00    +0.315 C 
ATOM     34  O   UNL     1       1.143  -3.012  -0.809  0.00  0.00    -0.250 OA
BRANCH  33  35
ATOM     35  O   UNL     1      -0.596  -4.035   0.093  0.00  0.00    -0.465 OA
BRANCH  35  36
ATOM     36  C   UNL     1      -1.441  -3.376  -0.852  0.00  0.00    +0.229 C 
ATOM     37  C   UNL     1      -2.904  -3.687  -0.532  0.00  0.00    +0.048 C 
ENDBRANCH  35  36
ENDBRANCH  33  35
ENDBRANCH   3  33
TORSDOF 12
