REMARK  Name = ZINC38819171
REMARK  7 active torsions:
REMARK  status: ('A' for Active; 'I' for Inactive)
REMARK    1  A    between atoms: C_1  and  C_2
REMARK    2  A    between atoms: C_2  and  C_3
REMARK    3  A    between atoms: C_2  and  O_4
REMARK    4  A    between atoms: O_4  and  C_5
REMARK    5  A    between atoms: C_8  and  N_11
REMARK    6  A    between atoms: C_15  and  C_18
REMARK    7  A    between atoms: C_16  and  N_17
REMARK                            x       y       z     vdW  Elec       q    Type
REMARK                         _______ _______ _______ _____ _____    ______ ____
ROOT
ATOM      1  N   UNL     1       6.158  -1.141  -1.236  0.00  0.00    -0.281 N 
ATOM      2  C   UNL     1       7.055  -1.079  -0.072  0.00  0.00    +0.191 C 
ATOM      3  C   UNL     1       8.436  -1.331  -0.640  0.00  0.00    +0.183 C 
ATOM      4  O   UNL     1       9.485  -1.369  -0.025  0.00  0.00    -0.290 OA
ATOM      5  C   UNL     1       8.258  -1.512  -2.006  0.00  0.00    +0.074 C 
ATOM      6  C   UNL     1       6.926  -1.403  -2.334  0.00  0.00    +0.099 C 
ENDROOT
BRANCH   5   7
ATOM      7  C   UNL     1       9.366  -1.792  -2.989  0.00  0.00    +0.212 C 
ATOM      8  N   UNL     1      10.100  -3.000  -2.590  0.00  0.00    -0.359 N 
ATOM      9  C   UNL     1      11.336  -2.652  -2.374  0.00  0.00    +0.060 A 
ATOM     10  C   UNL     1      12.527  -3.405  -1.958  0.00  0.00    +0.027 A 
ATOM     11  C   UNL     1      13.703  -2.762  -1.813  0.00  0.00    +0.002 A 
ATOM     12  C   UNL     1      13.846  -1.383  -2.045  0.00  0.00    +0.002 A 
ATOM     13  C   UNL     1      12.819  -0.600  -2.429  0.00  0.00    +0.027 A 
ATOM     14  C   UNL     1      11.488  -1.192  -2.620  0.00  0.00    +0.060 A 
ATOM     15  N   UNL     1      10.340  -0.693  -2.977  0.00  0.00    -0.359 N 
ATOM     16  H   UNL     1       9.731  -3.893  -2.503  0.00  0.00    +0.162 HD
ATOM     17  H   UNL     1      10.161   0.235  -3.196  0.00  0.00    +0.162 HD
ENDBRANCH   5   7
BRANCH   1  21
ATOM     18  C   UNL     1       2.020  -0.630  -1.188  0.00  0.00    +0.121 A 
ATOM     19  C   UNL     1       2.563  -1.862  -1.526  0.00  0.00    +0.047 A 
ATOM     20  C   UNL     1       3.933  -2.032  -1.542  0.00  0.00    +0.027 A 
ATOM     21  C   UNL     1       4.768  -0.970  -1.220  0.00  0.00    +0.036 A 
ATOM     22  C   UNL     1       4.224   0.263  -0.882  0.00  0.00    +0.027 A 
ATOM     23  C   UNL     1       2.854   0.432  -0.872  0.00  0.00    +0.047 A 
BRANCH  18  24
ATOM     24  O   UNL     1       0.671  -0.464  -1.173  0.00  0.00    -0.489 OA
BRANCH  24  26
ATOM     25  C   UNL     1       0.191   1.671  -2.198  0.00  0.00    +0.051 C 
ATOM     26  C   UNL     1       0.183   0.852  -0.906  0.00  0.00    +0.167 C 
ATOM     27  C   UNL     1      -1.246   0.766  -0.365  0.00  0.00    +0.051 C 
ENDBRANCH  24  26
ENDBRANCH  18  24
ENDBRANCH   1  21
BRANCH   6  28
ATOM     28  N   UNL     1       6.433  -1.537  -3.603  0.00  0.00    -0.346 N 
ATOM     29  H   UNL     1       5.476  -1.518  -3.756  0.00  0.00    +0.143 HD
ATOM     30  H   UNL     1       7.042  -1.651  -4.350  0.00  0.00    +0.143 HD
ENDBRANCH   6  28
TORSDOF 5
