REMARK  Name = ZINC41669881
REMARK  9 active torsions:
REMARK  status: ('A' for Active; 'I' for Inactive)
REMARK    1  A    between atoms: C_1  and  C_2
REMARK    2  A    between atoms: C_2  and  C_3
REMARK    3  A    between atoms: C_7  and  C_20
REMARK    4  A    between atoms: C_7  and  C_21
REMARK    5  A    between atoms: C_16  and  O_19
REMARK    6  A    between atoms: C_21  and  C_22
REMARK    7  A    between atoms: C_22  and  C_23
REMARK    8  A    between atoms: C_23  and  C_24
REMARK    9  A    between atoms: C_23  and  C_25
REMARK                            x       y       z     vdW  Elec       q    Type
REMARK                         _______ _______ _______ _____ _____    ______ ____
ROOT
ATOM      1  C   UNL     1       0.606  -0.499  -1.313  0.00  0.00    +0.103 C 
ATOM      2  C   UNL     1       0.503  -2.041  -1.419  0.00  0.00    +0.185 C 
ATOM      3  O   UNL     1       1.597  -2.363  -2.310  0.00  0.00    -0.354 OA
ATOM      4  C   UNL     1       2.660  -1.464  -1.957  0.00  0.00    +0.135 C 
ATOM      5  N   UNL     1       2.066  -0.262  -1.342  0.00  0.00    -0.282 N 
ATOM      6  C   UNL     1       2.738   0.862  -0.883  0.00  0.00    +0.124 A 
ATOM      7  C   UNL     1       2.872   1.973  -1.728  0.00  0.00    +0.044 A 
ATOM      8  C   UNL     1       3.529   3.083  -1.290  0.00  0.00    +0.013 A 
ATOM      9  C   UNL     1       4.057   3.075   0.017  0.00  0.00    +0.004 A 
ATOM     10  C   UNL     1       4.745   4.186   0.532  0.00  0.00    +0.010 A 
ATOM     11  C   UNL     1       5.243   4.145   1.799  0.00  0.00    +0.004 A 
ATOM     12  C   UNL     1       5.080   3.015   2.595  0.00  0.00    +0.047 A 
ATOM     13  C   UNL     1       4.417   1.916   2.128  0.00  0.00    +0.143 A 
ATOM     14  C   UNL     1       3.889   1.923   0.821  0.00  0.00    +0.114 A 
ATOM     15  N   UNL     1       3.230   0.863   0.339  0.00  0.00    -0.228 NA
ATOM     16  C   UNL     1       3.602  -2.145  -0.961  0.00  0.00    +0.063 C 
ENDROOT
BRANCH   1  18
ATOM     17  C   UNL     1       0.108   1.520   0.072  0.00  0.00    +0.006 C 
ATOM     18  C   UNL     1       0.003  -0.005   0.003  0.00  0.00    +0.021 C 
ENDBRANCH   1  18
BRANCH  13  19
ATOM     19  O   UNL     1       4.269   0.821   2.919  0.00  0.00    -0.505 OA
ATOM     20  H   UNL     1       3.466   0.831   3.457  0.00  0.00    +0.292 HD
ENDBRANCH  13  19
BRANCH   4  21
ATOM     21  C   UNL     1       3.439  -1.067  -3.212  0.00  0.00    +0.055 C 
BRANCH  21  22
ATOM     22  C   UNL     1       4.060  -2.314  -3.844  0.00  0.00    +0.007 C 
BRANCH  22  23
ATOM     23  C   UNL     1       4.838  -1.917  -5.099  0.00  0.00    -0.017 C 
ATOM     24  C   UNL     1       6.022  -1.031  -4.706  0.00  0.00    +0.007 C 
ATOM     25  C   UNL     1       5.354  -3.176  -5.800  0.00  0.00    +0.007 C 
ENDBRANCH  22  23
ENDBRANCH  21  22
ENDBRANCH   4  21
TORSDOF 5
