REMARK  Name = ZINC37867407
REMARK  13 active torsions:
REMARK  status: ('A' for Active; 'I' for Inactive)
REMARK    1  A    between atoms: C_1  and  C_2
REMARK    2  A    between atoms: C_2  and  O_3
REMARK    3  A    between atoms: O_3  and  C_4
REMARK    4  A    between atoms: C_11  and  C_18
REMARK    5  A    between atoms: C_13  and  O_14
REMARK    6  A    between atoms: C_18  and  O_19
REMARK    7  A    between atoms: O_19  and  C_20
REMARK    8  A    between atoms: C_20  and  C_22
REMARK    9  A    between atoms: C_22  and  N_23
REMARK   10  A    between atoms: N_23  and  S_24
REMARK   11  A    between atoms: S_24  and  C_27
REMARK   12  A    between atoms: C_30  and  N_33
REMARK   13  A    between atoms: C_34  and  C_36
REMARK                            x       y       z     vdW  Elec       q    Type
REMARK                         _______ _______ _______ _____ _____    ______ ____
ROOT
ATOM      1  C   UNL     1       2.931  -8.314   3.744  0.00  0.00    +0.268 C 
ENDROOT
BRANCH   1   9
ATOM      2  C   UNL     1      -3.211  -7.428  -0.270  0.00  0.00    +0.405 C 
ATOM      3  O   UNL     1      -2.366  -6.990  -1.034  0.00  0.00    -0.226 OA
ATOM      4  N   UNL     1      -2.850  -7.913   0.910  0.00  0.00    -0.251 N 
ATOM      5  C   UNL     1      -1.561  -7.802   1.325  0.00  0.00    +0.040 A 
ATOM      6  C   UNL     1      -1.096  -8.601   2.385  0.00  0.00    +0.024 A 
ATOM      7  C   UNL     1       0.191  -8.500   2.809  0.00  0.00    +0.014 A 
ATOM      8  C   UNL     1       1.066  -7.592   2.186  0.00  0.00    +0.024 A 
ATOM      9  C   UNL     1       2.405  -7.472   2.611  0.00  0.00    +0.007 A 
ATOM     10  C   UNL     1       3.223  -6.566   1.965  0.00  0.00    +0.095 A 
ATOM     11  C   UNL     1       2.721  -5.799   0.925  0.00  0.00    +0.285 A 
ATOM     12  O   UNL     1       1.450  -5.915   0.524  0.00  0.00    -0.425 OA
ATOM     13  C   UNL     1       0.608  -6.785   1.120  0.00  0.00    +0.141 A 
ATOM     14  C   UNL     1      -0.702  -6.900   0.692  0.00  0.00    +0.070 A 
ATOM     15  H   UNL     1      -3.507  -8.347   1.477  0.00  0.00    +0.158 HD
BRANCH  11  16
ATOM     16  O   UNL     1       3.530  -4.920   0.303  0.00  0.00    -0.480 OA
ATOM     17  H   UNL     1       3.101  -4.427  -0.409  0.00  0.00    +0.295 HD
ENDBRANCH  11  16
BRANCH   2  18
ATOM     18  O   UNL     1      -4.515  -7.419  -0.627  0.00  0.00    -0.450 OA
BRANCH  18  20
ATOM     19  C   UNL     1      -6.343  -6.955  -2.138  0.00  0.00    +0.048 C 
ATOM     20  C   UNL     1      -4.831  -6.882  -1.913  0.00  0.00    +0.230 C 
ENDBRANCH  18  20
ENDBRANCH   2  18
ENDBRANCH   1   9
BRANCH   1  21
ATOM     21  O   UNL     1       3.375  -7.464   4.803  0.00  0.00    -0.459 OA
BRANCH  21  22
ATOM     22  C   UNL     1       3.876  -8.061   5.896  0.00  0.00    +0.323 C 
ATOM     23  O   UNL     1       3.936  -9.267   5.951  0.00  0.00    -0.249 OA
BRANCH  22  24
ATOM     24  C   UNL     1       4.364  -7.229   7.053  0.00  0.00    +0.226 C 
BRANCH  24  25
ATOM     25  N   UNL     1       4.860  -8.110   8.114  0.00  0.00    -0.179 NA
ATOM     26  H   UNL     1       4.643  -9.055   8.099  0.00  0.00    +0.149 HD
BRANCH  25  27
ATOM     27  S   UNL     1       5.789  -7.492   9.337  0.00  0.00    +0.059 S 
ATOM     28  O   UNL     1       6.085  -8.574  10.209  0.00  0.00    -0.153 OA
ATOM     29  O   UNL     1       6.803  -6.710   8.721  0.00  0.00    -0.153 OA
BRANCH  27  30
ATOM     30  C   UNL     1       4.776  -6.374  10.247  0.00  0.00    +0.105 A 
ATOM     31  C   UNL     1       4.720  -5.041   9.884  0.00  0.00    +0.030 A 
ATOM     32  C   UNL     1       3.927  -4.163  10.596  0.00  0.00    +0.025 A 
ATOM     33  C   UNL     1       3.184  -4.620  11.677  0.00  0.00    +0.033 A 
ATOM     34  C   UNL     1       3.242  -5.959  12.039  0.00  0.00    +0.025 A 
ATOM     35  C   UNL     1       4.033  -6.833  11.320  0.00  0.00    +0.030 A 
BRANCH  33  36
ATOM     36  N   UNL     1       2.380  -3.732  12.400  0.00  0.00    -0.286 N 
ATOM     37  C   UNL     1       1.783  -2.699  11.773  0.00  0.00    +0.214 C 
ATOM     38  O   UNL     1       1.879  -2.583  10.569  0.00  0.00    -0.276 OA
ATOM     39  C   UNL     1       0.998  -1.687  12.567  0.00  0.00    +0.109 C 
ATOM     40  H   UNL     1       2.251  -3.860  13.353  0.00  0.00    +0.155 HD
ENDBRANCH  33  36
ENDBRANCH  27  30
ENDBRANCH  25  27
ENDBRANCH  24  25
ENDBRANCH  22  24
ENDBRANCH  21  22
ENDBRANCH   1  21
TORSDOF 11
