REMARK  Name = ZINC12629268
REMARK  3 active torsions:
REMARK  status: ('A' for Active; 'I' for Inactive)
REMARK    1  A    between atoms: C_9  and  C_11
REMARK    2  A    between atoms: C_17  and  C_19
REMARK    3  A    between atoms: C_24  and  N_25
REMARK                            x       y       z     vdW  Elec       q    Type
REMARK                         _______ _______ _______ _____ _____    ______ ____
ROOT
ATOM      1  C   UNL     1      -0.902   1.386   1.387  0.00  0.00    +0.142 C 
ATOM      2  C   UNL     1      -0.185   0.621   0.254  0.00  0.00    +0.032 C 
ATOM      3  C   UNL     1      -0.978   1.043  -1.012  0.00  0.00    +0.021 C 
ATOM      4  C   UNL     1      -2.420   1.149  -0.455  0.00  0.00    +0.109 C 
ATOM      5  N   UNL     1      -2.260   1.701   0.903  0.00  0.00    -0.287 N 
ATOM      6  C   UNL     1      -3.199   2.381   1.591  0.00  0.00    +0.249 C 
ATOM      7  O   UNL     1      -2.988   2.714   2.741  0.00  0.00    -0.270 OA
ENDROOT
BRANCH   1  16
ATOM      8  C   UNL     1      -0.654  -1.855   6.460  0.00  0.00    +0.002 A 
ATOM      9  C   UNL     1      -1.909  -2.271   6.039  0.00  0.00    +0.002 A 
ATOM     10  C   UNL     1      -2.447  -1.796   4.877  0.00  0.00    +0.030 A 
ATOM     11  C   UNL     1      -1.730  -0.881   4.100  0.00  0.00    +0.089 A 
ATOM     12  C   UNL     1      -0.459  -0.459   4.526  0.00  0.00    +0.066 A 
ATOM     13  C   UNL     1       0.071  -0.953   5.710  0.00  0.00    +0.028 A 
ATOM     14  N   UNL     1      -0.011   0.427   3.568  0.00  0.00    -0.340 N 
ATOM     15  H   UNL     1       0.864   0.911   3.571  0.00  0.00    +0.167 HD
ATOM     16  C   UNL     1      -0.981   0.521   2.618  0.00  0.00    +0.129 A 
ATOM     17  N   UNL     1      -1.988  -0.240   2.932  0.00  0.00    -0.231 NA
ENDBRANCH   1  16
BRANCH   6  18
ATOM     18  C   UNL     1      -4.484   2.722   0.946  0.00  0.00    +0.067 A 
ATOM     19  C   UNL     1      -5.281   1.716   0.396  0.00  0.00    +0.017 A 
ATOM     20  C   UNL     1      -6.479   2.040  -0.204  0.00  0.00    +0.021 A 
ATOM     21  C   UNL     1      -6.893   3.361  -0.262  0.00  0.00    +0.043 A 
ATOM     22  C   UNL     1      -6.106   4.363   0.281  0.00  0.00    +0.053 A 
ATOM     23  C   UNL     1      -4.909   4.051   0.889  0.00  0.00    +0.140 A 
ATOM     24 CL   UNL     1      -8.403   3.762  -1.020  0.00  0.00    -0.083 Cl
BRANCH  23  25
ATOM     25  N   UNL     1      -4.073   5.122   1.476  0.00  0.00    +0.057 N 
ATOM     26  O   UNL     1      -4.497   6.262   1.534  0.00  0.00    -0.126 OA
ATOM     27  O   UNL     1      -2.961   4.863   1.900  0.00  0.00    -0.126 OA
ENDBRANCH  23  25
ENDBRANCH   6  18
TORSDOF 3
