REMARK  Name = ZINC58228638
REMARK  6 active torsions:
REMARK  status: ('A' for Active; 'I' for Inactive)
REMARK    1  A    between atoms: C_1  and  N_2
REMARK    2  A    between atoms: C_3  and  C_5
REMARK    3  A    between atoms: C_10  and  N_11
REMARK    4  A    between atoms: C_12  and  C_14
REMARK    5  A    between atoms: C_14  and  N_15
REMARK    6  A    between atoms: N_18  and  C_19
REMARK                            x       y       z     vdW  Elec       q    Type
REMARK                         _______ _______ _______ _____ _____    ______ ____
ROOT
ATOM      1  N   UNL     1       2.039  -2.250   3.024  0.00  0.00    -0.284 N 
ATOM      2  C   UNL     1       2.788  -2.964   3.888  0.00  0.00    +0.234 C 
ATOM      3  O   UNL     1       2.927  -4.158   3.727  0.00  0.00    -0.274 OA
ATOM      4  H   UNL     1       1.990  -1.285   3.108  0.00  0.00    +0.155 HD
ENDROOT
BRANCH   1  10
ATOM      5  C   UNL     1       1.177  -2.283   0.760  0.00  0.00    +0.059 A 
ATOM      6  C   UNL     1       0.476  -2.946  -0.251  0.00  0.00    +0.035 A 
ATOM      7  C   UNL     1      -0.058  -4.195  -0.012  0.00  0.00    +0.042 A 
ATOM      8  C   UNL     1       0.097  -4.796   1.228  0.00  0.00    +0.022 A 
ATOM      9  C   UNL     1       0.787  -4.153   2.235  0.00  0.00    +0.025 A 
ATOM     10  C   UNL     1       1.337  -2.898   2.010  0.00  0.00    +0.046 A 
ATOM     11 CL   UNL     1      -0.928  -5.017  -1.269  0.00  0.00    -0.084 Cl
BRANCH   5  14
ATOM     12  C   UNL     1       2.253   0.924  -0.967  0.00  0.00    +0.128 C 
ATOM     13  N   UNL     1       1.683  -0.403  -0.720  0.00  0.00    -0.314 N 
ATOM     14  C   UNL     1       1.751  -0.947   0.511  0.00  0.00    +0.246 C 
ATOM     15  O   UNL     1       2.286  -0.337   1.417  0.00  0.00    -0.270 OA
ATOM     16  H   UNL     1       1.257  -0.890  -1.443  0.00  0.00    +0.149 HD
ENDBRANCH   5  14
ENDBRANCH   1  10
BRANCH   2  17
ATOM     17  C   UNL     1       3.451  -2.279   5.055  0.00  0.00    +0.202 C 
BRANCH  17  18
ATOM     18  N   UNL     1       4.201  -3.264   5.838  0.00  0.00    -0.291 N 
ATOM     19  C   UNL     1       4.879  -2.877   6.936  0.00  0.00    +0.300 C 
ATOM     20  O   UNL     1       4.870  -1.710   7.277  0.00  0.00    -0.253 OA
ATOM     21  N   UNL     1       5.569  -3.784   7.657  0.00  0.00    -0.297 N 
ATOM     22  H   UNL     1       4.208  -4.195   5.566  0.00  0.00    +0.151 HD
ATOM     23  H   UNL     1       5.577  -4.715   7.385  0.00  0.00    +0.151 HD
BRANCH  21  24
ATOM     24  C   UNL     1       6.306  -3.363   8.851  0.00  0.00    +0.075 C 
ATOM     25  C   UNL     1       7.716  -3.926   9.045  0.00  0.00    +0.024 C 
ATOM     26  C   UNL     1       6.567  -4.417   9.928  0.00  0.00    +0.024 C 
ENDBRANCH  21  24
ENDBRANCH  17  18
ENDBRANCH   2  17
TORSDOF 5
