REMARK  Name = ZINC06438488
REMARK  6 active torsions:
REMARK  status: ('A' for Active; 'I' for Inactive)
REMARK    1  A    between atoms: C_5  and  C_7
REMARK    2  A    between atoms: C_7  and  O_9
REMARK    3  A    between atoms: O_9  and  N_10
REMARK    4  A    between atoms: N_15  and  N_16
REMARK    5  A    between atoms: C_17  and  C_19
REMARK    6  A    between atoms: C_23  and  O_25
REMARK                            x       y       z     vdW  Elec       q    Type
REMARK                         _______ _______ _______ _____ _____    ______ ____
ROOT
ATOM      1  N   UNL     1       5.771  10.188  -0.006  0.00  0.00    -0.074 NA
ATOM      2  C   UNL     1       4.638   9.517   0.002  0.00  0.00    +0.104 C 
ATOM      3  C   UNL     1       3.361  10.236   0.017  0.00  0.00    +0.033 C 
ATOM      4  C   UNL     1       2.201   9.550   0.025  0.00  0.00    +0.031 C 
ATOM      5  C   UNL     1       2.217   8.085   0.018  0.00  0.00    +0.082 C 
ATOM      6  N   UNL     1       1.081   7.413   0.026  0.00  0.00    -0.180 NA
ATOM      7  C   UNL     1       3.493   7.366   0.009  0.00  0.00    +0.031 C 
ATOM      8  C   UNL     1       4.653   8.051  -0.005  0.00  0.00    +0.033 C 
ENDROOT
BRANCH   6   9
ATOM      9  N   UNL     1       1.096   6.012   0.020  0.00  0.00    -0.202 N 
ATOM     10  C   UNL     1      -0.064   5.326   0.028  0.00  0.00    +0.263 C 
ATOM     11  O   UNL     1      -1.123   5.922   0.041  0.00  0.00    -0.268 OA
ATOM     12  H   UNL     1       2.054   5.472   0.008  0.00  0.00    +0.178 HD
BRANCH  10  13
ATOM     13  C   UNL     1      -0.049   3.849   0.022  0.00  0.00    +0.042 A 
ATOM     14  C   UNL     1       1.167   3.160   0.007  0.00  0.00    +0.013 A 
ATOM     15  C   UNL     1       1.177   1.781   0.000  0.00  0.00    +0.004 A 
ATOM     16  C   UNL     1      -0.013   1.076   0.008  0.00  0.00    +0.045 A 
ATOM     17  C   UNL     1      -1.226   1.751   0.017  0.00  0.00    +0.118 A 
ATOM     18  C   UNL     1      -1.248   3.135   0.030  0.00  0.00    +0.058 A 
BRANCH  17  19
ATOM     19  O   UNL     1      -2.392   1.052   0.019  0.00  0.00    -0.507 OA
ATOM     20  H   UNL     1      -3.353   1.587   0.027  0.00  0.00    +0.292 HD
ENDBRANCH  17  19
ENDBRANCH  10  13
ENDBRANCH   6   9
BRANCH   1  21
ATOM     21  O   UNL     1       6.832   9.590  -0.019  0.00  0.00    -0.311 OA
BRANCH  21  22
ATOM     22  C   UNL     1       7.954  10.335  -0.026  0.00  0.00    +0.368 C 
ATOM     23  O   UNL     1       7.877  11.547  -0.021  0.00  0.00    -0.243 OA
BRANCH  22  28
ATOM     24  C   UNL     1      10.606   7.678  -0.062  0.00  0.00    +0.001 A 
ATOM     25  C   UNL     1      11.757   8.447  -0.070  0.00  0.00    +0.001 A 
ATOM     26  C   UNL     1      11.675   9.827  -0.064  0.00  0.00    +0.021 A 
ATOM     27  C   UNL     1      10.442  10.449  -0.050  0.00  0.00    +0.055 A 
ATOM     28  C   UNL     1       9.276   9.678  -0.042  0.00  0.00    +0.080 A 
ATOM     29  C   UNL     1       9.368   8.285  -0.042  0.00  0.00    +0.016 A 
ATOM     30 CL   UNL     1      10.341  12.182  -0.041  0.00  0.00    -0.083 Cl
ENDBRANCH  22  28
ENDBRANCH  21  22
ENDBRANCH   1  21
TORSDOF 6
