REMARK  Name = ZINC38847425
REMARK  12 active torsions:
REMARK  status: ('A' for Active; 'I' for Inactive)
REMARK    1  A    between atoms: C_1  and  C_2
REMARK    2  A    between atoms: C_5  and  S_8
REMARK    3  A    between atoms: S_8  and  N_11
REMARK    4  A    between atoms: C_14  and  C_17
REMARK    5  A    between atoms: N_19  and  C_20
REMARK    6  A    between atoms: C_20  and  C_21
REMARK    7  A    between atoms: C_21  and  C_22
REMARK    8  A    between atoms: C_22  and  N_23
REMARK    9  A    between atoms: N_23  and  C_24
REMARK   10  A    between atoms: N_23  and  C_25
REMARK   11  A    between atoms: C_29  and  C_36
REMARK   12  A    between atoms: C_30  and  C_35
REMARK                            x       y       z     vdW  Elec       q    Type
REMARK                         _______ _______ _______ _____ _____    ______ ____
ROOT
ATOM      1  C   UNL     1       4.221  -8.091  -0.597  0.00  0.00    +0.224 C 
ATOM      2  O   UNL     1       3.746  -6.979  -0.695  0.00  0.00    -0.275 OA
ATOM      3  N   UNL     1       4.895  -8.439   0.517  0.00  0.00    -0.250 N 
ATOM      4  C   UNL     1       5.531  -9.668   0.586  0.00  0.00    +0.168 A 
ATOM      5  N   UNL     1       5.506 -10.658  -0.277  0.00  0.00    -0.224 NA
ATOM      6  C   UNL     1       6.181 -11.810  -0.079  0.00  0.00    +0.083 A 
ATOM      7  C   UNL     1       6.237 -12.945  -0.922  0.00  0.00    -0.021 A 
ATOM      8  C   UNL     1       6.976 -14.044  -0.568  0.00  0.00    -0.045 A 
ATOM      9  C   UNL     1       7.691 -14.085   0.620  0.00  0.00    +0.005 A 
ATOM     10  C   UNL     1       7.659 -12.993   1.468  0.00  0.00    +0.017 A 
ATOM     11  C   UNL     1       6.921 -11.888   1.122  0.00  0.00    +0.041 A 
ATOM     12  S   UNL     1       6.600 -10.307   1.867  0.00  0.00    -0.052 S 
ATOM     13  C   UNL     1       7.011 -15.235  -1.491  0.00  0.00    +0.044 C 
ATOM     14  C   UNL     1       5.476 -12.946  -2.223  0.00  0.00    +0.046 C 
ENDROOT
BRANCH   1  18
ATOM     15  N   UNL     1       3.870  -9.823  -4.444  0.00  0.00    -0.177 NA
ATOM     16  C   UNL     1       2.631  -9.756  -3.656  0.00  0.00    +0.110 C 
ATOM     17  C   UNL     1       2.813  -8.727  -2.537  0.00  0.00    +0.030 C 
ATOM     18  C   UNL     1       4.058  -9.082  -1.720  0.00  0.00    +0.078 C 
ATOM     19  C   UNL     1       5.293  -9.036  -2.624  0.00  0.00    +0.030 C 
ATOM     20  C   UNL     1       5.138 -10.074  -3.745  0.00  0.00    +0.110 C 
BRANCH  15  21
ATOM     21  S   UNL     1       3.837  -9.624  -6.087  0.00  0.00    +0.061 S 
ATOM     22  O   UNL     1       5.136  -9.193  -6.471  0.00  0.00    -0.153 OA
ATOM     23  O   UNL     1       2.667  -8.874  -6.382  0.00  0.00    -0.153 OA
BRANCH  21  28
ATOM     24  C   UNL     1       3.043 -15.084  -8.530  0.00  0.00    +0.044 C 
ATOM     25  C   UNL     1       3.241 -13.721  -7.920  0.00  0.00    -0.050 A 
ATOM     26  C   UNL     1       2.146 -12.942  -7.596  0.00  0.00    +0.005 A 
ATOM     27  C   UNL     1       2.328 -11.691  -7.037  0.00  0.00    +0.029 A 
ATOM     28  C   UNL     1       3.605 -11.219  -6.800  0.00  0.00    +0.105 A 
ATOM     29  C   UNL     1       4.701 -11.998  -7.122  0.00  0.00    +0.029 A 
ATOM     30  C   UNL     1       4.519 -13.251  -7.678  0.00  0.00    +0.005 A 
ENDBRANCH  21  28
ENDBRANCH  15  21
ENDBRANCH   1  18
BRANCH   3  31
ATOM     31  C   UNL     1       4.956  -7.519   1.655  0.00  0.00    +0.114 C 
BRANCH  31  32
ATOM     32  C   UNL     1       3.847  -7.866   2.651  0.00  0.00    +0.001 C 
BRANCH  32  33
ATOM     33  C   UNL     1       3.831  -6.830   3.777  0.00  0.00    -0.078 C 
BRANCH  33  34
ATOM     34  N   UNL     1       2.767  -7.163   4.734  0.00  0.00    +0.376 N 
ATOM     35  C   UNL     1       2.829  -6.241   5.875  0.00  0.00    -0.097 C 
ATOM     36  C   UNL     1       1.460  -7.041   4.074  0.00  0.00    -0.097 C 
ATOM     37  H   UNL     1       2.892  -8.110   5.059  0.00  0.00    -0.083 HD
ENDBRANCH  33  34
ENDBRANCH  32  33
ENDBRANCH  31  32
ENDBRANCH   3  31
TORSDOF 7
