REMARK  Name = ZINC39221042
REMARK  9 active torsions:
REMARK  status: ('A' for Active; 'I' for Inactive)
REMARK    1  A    between atoms: C_1  and  C_2
REMARK    2  A    between atoms: C_2  and  C_3
REMARK    3  A    between atoms: C_3  and  C_4
REMARK    4  A    between atoms: C_4  and  N_5
REMARK    5  A    between atoms: C_14  and  C_16
REMARK    6  A    between atoms: C_16  and  O_18
REMARK    7  A    between atoms: O_18  and  C_19
REMARK    8  A    between atoms: C_19  and  C_20
REMARK    9  A    between atoms: N_25  and  C_26
REMARK                            x       y       z     vdW  Elec       q    Type
REMARK                         _______ _______ _______ _____ _____    ______ ____
ROOT
ATOM      1  C   UNL     1       6.913  -3.225   1.837  0.00  0.00    +0.328 C 
ENDROOT
BRANCH   1   2
ATOM      2  C   UNL     1       7.363  -2.863   0.445  0.00  0.00    +0.258 C 
ATOM      3  O   UNL     1       6.554  -2.477  -0.371  0.00  0.00    -0.272 OA
ATOM      4  N   UNL     1       8.663  -2.968   0.108  0.00  0.00    -0.237 N 
ATOM      5  C   UNL     1       9.065  -2.644  -1.137  0.00  0.00    +0.306 C 
ATOM      6  O   UNL     1       8.255  -2.257  -1.956  0.00  0.00    -0.252 OA
ATOM      7  N   UNL     1      10.366  -2.749  -1.474  0.00  0.00    -0.294 N 
ATOM      8  H   UNL     1       9.310  -3.276   0.762  0.00  0.00    +0.159 HD
ATOM      9  H   UNL     1      11.013  -3.058  -0.820  0.00  0.00    +0.151 HD
BRANCH   7  10
ATOM     10  C   UNL     1      10.803  -2.397  -2.827  0.00  0.00    +0.037 C 
ATOM     11  C   UNL     1      10.085  -3.288  -3.843  0.00  0.00    +0.029 C 
ATOM     12  C   UNL     1      10.541  -2.921  -5.256  0.00  0.00    -0.008 C 
ATOM     13  C   UNL     1      12.052  -3.128  -5.374  0.00  0.00    +0.007 C 
ATOM     14  C   UNL     1      12.770  -2.237  -4.359  0.00  0.00    -0.008 C 
ATOM     15  C   UNL     1      12.314  -2.605  -2.945  0.00  0.00    +0.029 C 
ATOM     16  C   UNL     1      12.433  -0.771  -4.638  0.00  0.00    +0.007 C 
ATOM     17  C   UNL     1      10.922  -0.564  -4.520  0.00  0.00    -0.008 C 
ATOM     18  C   UNL     1      10.204  -1.455  -5.535  0.00  0.00    +0.007 C 
ATOM     19  C   UNL     1      10.466  -0.931  -3.107  0.00  0.00    +0.029 C 
ENDBRANCH   7  10
ENDBRANCH   1   2
BRANCH   1  20
ATOM     20  O   UNL     1       5.502  -3.031   1.948  0.00  0.00    -0.451 OA
BRANCH  20  21
ATOM     21  C   UNL     1       4.937  -3.311   3.139  0.00  0.00    +0.360 C 
ATOM     22  O   UNL     1       5.624  -3.709   4.058  0.00  0.00    -0.243 OA
BRANCH  21  32
ATOM     23  N   UNL     1       1.471  -2.526   2.420  0.00  0.00    -0.228 N 
ATOM     24  C   UNL     1       0.756  -2.760   3.539  0.00  0.00    +0.275 A 
ATOM     25  O   UNL     1      -0.447  -2.572   3.560  0.00  0.00    -0.266 OA
ATOM     26  C   UNL     1       1.462  -3.247   4.733  0.00  0.00    +0.050 A 
ATOM     27  C   UNL     1       0.816  -3.517   5.935  0.00  0.00    +0.014 A 
ATOM     28  C   UNL     1       1.551  -3.971   7.010  0.00  0.00    +0.001 A 
ATOM     29  C   UNL     1       2.922  -4.160   6.902  0.00  0.00    +0.001 A 
ATOM     30  C   UNL     1       3.581  -3.897   5.720  0.00  0.00    +0.011 A 
ATOM     31  C   UNL     1       2.858  -3.439   4.623  0.00  0.00    +0.021 A 
ATOM     32  C   UNL     1       3.485  -3.135   3.326  0.00  0.00    +0.176 A 
ATOM     33  N   UNL     1       2.735  -2.710   2.338  0.00  0.00    -0.161 NA
BRANCH  23  34
ATOM     34  C   UNL     1       0.763  -2.041   1.233  0.00  0.00    +0.147 C 
BRANCH  34  35
ATOM     35  C   UNL     1       0.742  -0.511   1.242  0.00  0.00    +0.023 C 
BRANCH  35  37
ATOM     36  C   UNL     1      -0.019   1.526   0.010  0.00  0.00    +0.004 C 
ATOM     37  C   UNL     1       0.002  -0.004   0.002  0.00  0.00    -0.002 C 
ENDBRANCH  35  37
ENDBRANCH  34  35
ENDBRANCH  23  34
ENDBRANCH  21  32
ENDBRANCH  20  21
ENDBRANCH   1  20
TORSDOF 8
