REMARK  Name = ZINC33940008
REMARK  11 active torsions:
REMARK  status: ('A' for Active; 'I' for Inactive)
REMARK    1  A    between atoms: C_1  and  C_2
REMARK    2  A    between atoms: C_2  and  C_3
REMARK    3  A    between atoms: C_3  and  C_4
REMARK    4  A    between atoms: C_3  and  C_5
REMARK    5  A    between atoms: C_3  and  N_6
REMARK    6  A    between atoms: C_7  and  C_32
REMARK    7  A    between atoms: C_12  and  C_31
REMARK    8  A    between atoms: C_14  and  C_20
REMARK    9  A    between atoms: N_22  and  C_23
REMARK   10  A    between atoms: C_23  and  C_24
REMARK   11  A    between atoms: N_34  and  C_35
REMARK                            x       y       z     vdW  Elec       q    Type
REMARK                         _______ _______ _______ _____ _____    ______ ____
ROOT
ATOM      1  N   UNL     1       1.043  -1.946  -0.431  0.00  0.00    -0.281 N 
ATOM      2  C   UNL     1       1.661  -2.590  -1.632  0.00  0.00    +0.199 C 
ATOM      3  C   UNL     1       0.799  -3.800  -1.812  0.00  0.00    +0.128 C 
ATOM      4  C   UNL     1      -0.591  -3.464  -2.321  0.00  0.00    +0.009 C 
ATOM      5  C   UNL     1      -1.222  -4.623  -2.436  0.00  0.00    +0.007 C 
ATOM      6  C   UNL     1      -0.222  -5.671  -1.933  0.00  0.00    +0.098 C 
ATOM      7  O   UNL     1       1.071  -5.069  -2.359  0.00  0.00    -0.355 OA
ATOM      8  C   UNL     1      -0.214  -5.404  -0.378  0.00  0.00    +0.125 C 
ATOM      9  C   UNL     1       0.695  -4.204  -0.287  0.00  0.00    +0.128 C 
ATOM     10  C   UNL     1       0.385  -2.895   0.314  0.00  0.00    +0.224 C 
ATOM     11  O   UNL     1      -0.320  -2.694   1.281  0.00  0.00    -0.275 OA
ATOM     12  C   UNL     1      -0.474  -7.113  -2.380  0.00  0.00    +0.047 C 
ENDROOT
BRANCH   8  13
ATOM     13  C   UNL     1      -1.598  -5.074   0.121  0.00  0.00    +0.220 C 
ATOM     14  O   UNL     1      -2.036  -3.950  -0.004  0.00  0.00    -0.275 OA
ATOM     15  N   UNL     1      -2.348  -6.028   0.707  0.00  0.00    -0.311 N 
ATOM     16  H   UNL     1      -1.998  -6.927   0.807  0.00  0.00    +0.149 HD
BRANCH  15  17
ATOM     17  C   UNL     1      -3.693  -5.708   1.192  0.00  0.00    +0.139 C 
BRANCH  17  18
ATOM     18  C   UNL     1      -4.314  -6.939   1.799  0.00  0.00    -0.030 A 
ATOM     19  C   UNL     1      -5.050  -7.803   1.010  0.00  0.00    +0.008 A 
ATOM     20  C   UNL     1      -5.620  -8.932   1.566  0.00  0.00    +0.038 A 
ATOM     21  C   UNL     1      -5.454  -9.198   2.914  0.00  0.00    +0.123 A 
ATOM     22  C   UNL     1      -4.717  -8.332   3.704  0.00  0.00    +0.038 A 
ATOM     23  C   UNL     1      -4.144  -7.206   3.145  0.00  0.00    +0.008 A 
ATOM     24  F   UNL     1      -6.011 -10.302   3.459  0.00  0.00    -0.205 F 
ENDBRANCH  17  18
ENDBRANCH  15  17
ENDBRANCH   8  13
BRANCH   2  25
ATOM     25  C   UNL     1       3.091  -2.981  -1.357  0.00  0.00    +0.237 C 
ATOM     26  O   UNL     1       3.484  -3.079  -0.214  0.00  0.00    -0.274 OA
ATOM     27  N   UNL     1       3.932  -3.223  -2.382  0.00  0.00    -0.311 N 
ATOM     28  H   UNL     1       3.617  -3.145  -3.297  0.00  0.00    +0.149 HD
BRANCH  27  29
ATOM     29  C   UNL     1       5.321  -3.604  -2.115  0.00  0.00    +0.073 C 
ATOM     30  C   UNL     1       6.198  -2.342  -1.979  0.00  0.00    +0.022 C 
ATOM     31  C   UNL     1       7.540  -2.738  -2.642  0.00  0.00    +0.002 C 
ATOM     32  C   UNL     1       7.085  -3.602  -3.845  0.00  0.00    +0.002 C 
ATOM     33  C   UNL     1       5.885  -4.405  -3.302  0.00  0.00    +0.022 C 
ENDBRANCH  27  29
ENDBRANCH   2  25
BRANCH   1  34
ATOM     34  C   UNL     1       1.131  -0.523  -0.096  0.00  0.00    +0.032 C 
ATOM     35  C   UNL     1       0.508   0.305  -1.222  0.00  0.00    +0.031 C 
ATOM     36  C   UNL     1       2.599  -0.129   0.074  0.00  0.00    +0.031 C 
BRANCH  34  38
ATOM     37  C   UNL     1       0.469   1.229   1.558  0.00  0.00    +0.006 C 
ATOM     38  C   UNL     1       0.377  -0.258   1.208  0.00  0.00    +0.022 C 
ENDBRANCH  34  38
ENDBRANCH   1  34
TORSDOF 7
