REMARK  Name = ZINC64254884
REMARK  4 active torsions:
REMARK  status: ('A' for Active; 'I' for Inactive)
REMARK    1  A    between atoms: C_8  and  C_11
REMARK    2  A    between atoms: N_19  and  C_20
REMARK    3  A    between atoms: N_23  and  C_26
REMARK    4  A    between atoms: C_26  and  C_27
REMARK                            x       y       z     vdW  Elec       q    Type
REMARK                         _______ _______ _______ _____ _____    ______ ____
ROOT
ATOM      1  C   UNL     1       4.153  -2.990  -1.970  0.00  0.00    +0.039 C 
ATOM      2  C   UNL     1       4.244  -3.434  -0.509  0.00  0.00    +0.028 C 
ATOM      3  C   UNL     1       5.001  -4.763  -0.429  0.00  0.00    +0.110 C 
ATOM      4  N   UNL     1       6.301  -4.608  -1.095  0.00  0.00    -0.286 N 
ATOM      5  C   UNL     1       6.333  -4.100  -2.473  0.00  0.00    +0.110 C 
ATOM      6  C   UNL     1       5.562  -2.778  -2.530  0.00  0.00    +0.028 C 
ATOM      7  C   UNL     1       7.443  -4.925  -0.453  0.00  0.00    +0.302 C 
ATOM      8  O   UNL     1       7.412  -5.252   0.718  0.00  0.00    -0.253 OA
ATOM      9  N   UNL     1       8.620  -4.879  -1.109  0.00  0.00    -0.297 N 
ATOM     10  H   UNL     1       8.655  -4.549  -2.021  0.00  0.00    +0.151 HD
ENDROOT
BRANCH   1  18
ATOM     11  C   UNL     1       0.568   1.907  -2.423  0.00  0.00    +0.001 A 
ATOM     12  C   UNL     1       1.752   2.583  -2.159  0.00  0.00    +0.002 A 
ATOM     13  C   UNL     1       2.927   1.892  -1.964  0.00  0.00    +0.026 A 
ATOM     14  C   UNL     1       2.931   0.503  -2.033  0.00  0.00    +0.047 A 
ATOM     15  C   UNL     1       1.730  -0.178  -2.301  0.00  0.00    -0.000 A 
ATOM     16  C   UNL     1       0.549   0.543  -2.495  0.00  0.00    +0.010 A 
ATOM     17  C   UNL     1       2.065  -1.604  -2.307  0.00  0.00    +0.031 A 
ATOM     18  C   UNL     1       3.380  -1.699  -2.056  0.00  0.00    +0.020 A 
ATOM     19  N   UNL     1       3.914  -0.451  -1.889  0.00  0.00    -0.358 N 
ATOM     20  H   UNL     1       4.847  -0.265  -1.698  0.00  0.00    +0.166 HD
ENDBRANCH   1  18
BRANCH   9  21
ATOM     21  C   UNL     1       9.847  -5.327  -0.445  0.00  0.00    +0.071 C 
ATOM     22  C   UNL     1      10.436  -4.174   0.373  0.00  0.00    +0.004 C 
ATOM     23  C   UNL     1      11.758  -4.624   1.000  0.00  0.00    -0.077 C 
ATOM     24  N   UNL     1      12.700  -5.007  -0.059  0.00  0.00    +0.383 N 
ATOM     25  C   UNL     1      12.173  -6.158  -0.802  0.00  0.00    -0.077 C 
ATOM     26  C   UNL     1      10.868  -5.767  -1.498  0.00  0.00    +0.004 C 
ATOM     27  H   UNL     1      12.828  -4.230  -0.691  0.00  0.00    -0.082 HD
BRANCH  24  28
ATOM     28  C   UNL     1      13.992  -5.364   0.542  0.00  0.00    -0.006 C 
BRANCH  28  29
ATOM     29  C   UNL     1      14.640  -4.112   1.137  0.00  0.00    +0.325 C 
ATOM     30  F   UNL     1      14.700  -3.110   0.162  0.00  0.00    -0.211 F 
ATOM     31  F   UNL     1      13.880  -3.663   2.222  0.00  0.00    -0.211 F 
ENDBRANCH  28  29
ENDBRANCH  24  28
ENDBRANCH   9  21
TORSDOF 4
