REMARK  Name = ZINC59015582
REMARK  6 active torsions:
REMARK  status: ('A' for Active; 'I' for Inactive)
REMARK    1  A    between atoms: C_6  and  C_7
REMARK    2  A    between atoms: N_8  and  N_9
REMARK    3  A    between atoms: C_12  and  S_15
REMARK    4  A    between atoms: S_15  and  C_16
REMARK    5  A    between atoms: C_16  and  C_17
REMARK    6  A    between atoms: N_19  and  C_20
REMARK                            x       y       z     vdW  Elec       q    Type
REMARK                         _______ _______ _______ _____ _____    ______ ____
ROOT
ATOM      1  N   UNL     1      -2.439  -2.780   0.082  0.00  0.00    -0.205 N 
ATOM      2  C   UNL     1      -2.418  -4.163   0.064  0.00  0.00    +0.232 A 
ATOM      3  N   UNL     1      -1.341  -4.920   0.045  0.00  0.00    -0.186 NA
ATOM      4  C   UNL     1      -1.697  -6.209   0.032  0.00  0.00    +0.211 A 
ATOM      5  N   UNL     1      -3.006  -6.289   0.041  0.00  0.00    -0.144 NA
ATOM      6  N   UNL     1      -3.497  -4.973   0.067  0.00  0.00    -0.245 N 
ATOM      7  H   UNL     1      -3.287  -2.308   0.099  0.00  0.00    +0.177 HD
ATOM      8  H   UNL     1      -4.428  -4.701   0.083  0.00  0.00    +0.192 HD
ENDROOT
BRANCH   1  10
ATOM      9  C   UNL     1      -1.257  -0.763   0.093  0.00  0.00    +0.138 C 
ATOM     10  N   UNL     1      -1.237  -2.061   0.075  0.00  0.00    -0.188 NA
BRANCH   9  16
ATOM     11  C   UNL     1      -0.011   1.391   0.104  0.00  0.00    +0.010 A 
ATOM     12  C   UNL     1       1.177   2.094   0.098  0.00  0.00    +0.016 A 
ATOM     13  C   UNL     1       2.385   1.417   0.074  0.00  0.00    +0.018 A 
ATOM     14  C   UNL     1       2.410   0.033   0.056  0.00  0.00    +0.016 A 
ATOM     15  C   UNL     1       1.230  -0.681   0.061  0.00  0.00    +0.010 A 
ATOM     16  C   UNL     1       0.008  -0.005   0.086  0.00  0.00    -0.005 A 
ATOM     17 BR   UNL     1       4.007   2.388   0.065  0.00  0.00    -0.050 Br
ENDBRANCH   9  16
ENDBRANCH   1  10
BRANCH   4  18
ATOM     18  S   UNL     1      -0.588  -7.577   0.005  0.00  0.00    -0.075 S 
BRANCH  18  19
ATOM     19  C   UNL     1      -1.679  -9.026  -0.004  0.00  0.00    +0.173 C 
BRANCH  19  20
ATOM     20  C   UNL     1      -0.846 -10.282  -0.028  0.00  0.00    +0.228 C 
ATOM     21  O   UNL     1       0.365 -10.207  -0.037  0.00  0.00    -0.275 OA
ATOM     22  N   UNL     1      -1.446 -11.489  -0.038  0.00  0.00    -0.283 N 
ATOM     23  H   UNL     1      -2.412 -11.551   0.035  0.00  0.00    +0.155 HD
BRANCH  22  24
ATOM     24  C   UNL     1      -0.676 -12.653  -0.153  0.00  0.00    +0.069 A 
ATOM     25  C   UNL     1       0.582 -12.716   0.431  0.00  0.00    +0.027 A 
ATOM     26  C   UNL     1       1.339 -13.866   0.316  0.00  0.00    +0.022 A 
ATOM     27  C   UNL     1       0.846 -14.955  -0.381  0.00  0.00    +0.044 A 
ATOM     28  C   UNL     1      -0.407 -14.896  -0.965  0.00  0.00    +0.060 A 
ATOM     29  C   UNL     1      -1.172 -13.750  -0.849  0.00  0.00    +0.146 A 
ATOM     30  F   UNL     1      -2.398 -13.695  -1.414  0.00  0.00    -0.203 F 
ATOM     31 CL   UNL     1       1.802 -16.397  -0.524  0.00  0.00    -0.083 Cl
ENDBRANCH  22  24
ENDBRANCH  19  20
ENDBRANCH  18  19
ENDBRANCH   4  18
TORSDOF 6
