REMARK  Name = ZINC22452480
REMARK  6 active torsions:
REMARK  status: ('A' for Active; 'I' for Inactive)
REMARK    1  A    between atoms: C_1  and  C_2
REMARK    2  A    between atoms: C_2  and  C_3
REMARK    3  A    between atoms: C_16  and  C_18
REMARK    4  A    between atoms: C_18  and  S_19
REMARK    5  A    between atoms: S_19  and  C_20
REMARK    6  A    between atoms: N_24  and  C_25
REMARK                            x       y       z     vdW  Elec       q    Type
REMARK                         _______ _______ _______ _____ _____    ______ ____
ROOT
ATOM      1  C   UNL     1       1.561  -3.595   3.365  0.00  0.00    +0.076 C 
ATOM      2  C   UNL     1       1.373  -4.332   4.693  0.00  0.00    +0.022 C 
ATOM      3  C   UNL     1       2.720  -4.900   5.151  0.00  0.00    +0.003 C 
ATOM      4  C   UNL     1       3.270  -5.827   4.064  0.00  0.00    +0.019 C 
ATOM      5  C   UNL     1       3.403  -5.047   2.754  0.00  0.00    +0.108 C 
ATOM      6  N   UNL     1       2.089  -4.525   2.358  0.00  0.00    -0.298 N 
ATOM      7  C   UNL     1       2.148  -3.932   1.125  0.00  0.00    +0.199 A 
ATOM      8  N   UNL     1       2.466  -4.683   0.037  0.00  0.00    -0.295 N 
ATOM      9  H   UNL     1       2.673  -5.757   0.151  0.00  0.00    +0.172 HD
ATOM     10  C   UNL     1       2.525  -4.105  -1.182  0.00  0.00    +0.253 A 
ATOM     11  O   UNL     1       2.809  -4.764  -2.169  0.00  0.00    -0.268 OA
ATOM     12  C   UNL     1       2.249  -2.731  -1.293  0.00  0.00    +0.094 A 
ATOM     13  C   UNL     1       1.941  -2.027  -0.165  0.00  0.00    +0.060 A 
ATOM     14  N   UNL     1       1.895  -2.643   1.014  0.00  0.00    -0.220 NA
ENDROOT
BRANCH   1  16
ATOM     15  C   UNL     1      -0.268  -1.971   3.872  0.00  0.00    +0.006 C 
ATOM     16  C   UNL     1       0.215  -3.043   2.893  0.00  0.00    +0.019 C 
ENDBRANCH   1  16
BRANCH  13  17
ATOM     17  C   UNL     1       1.646  -0.552  -0.255  0.00  0.00    +0.133 C 
BRANCH  17  18
ATOM     18  S   UNL     1      -0.138  -0.283  -0.109  0.00  0.00    -0.078 S 
BRANCH  18  19
ATOM     19  C   UNL     1      -0.195   1.472  -0.244  0.00  0.00    +0.214 A 
ATOM     20  N   UNL     1       0.832   2.278  -0.406  0.00  0.00    -0.101 NA
ATOM     21  N   UNL     1       0.441   3.500  -0.467  0.00  0.00    -0.022 NA
ATOM     22  N   UNL     1      -0.841   3.567  -0.352  0.00  0.00    -0.038 NA
ATOM     23  N   UNL     1      -1.308   2.249  -0.207  0.00  0.00    -0.187 N 
BRANCH  23  24
ATOM     24  C   UNL     1      -2.636   1.827  -0.054  0.00  0.00    +0.070 A 
ATOM     25  C   UNL     1      -3.055   0.630  -0.620  0.00  0.00    +0.028 A 
ATOM     26  C   UNL     1      -4.363   0.214  -0.463  0.00  0.00    +0.002 A 
ATOM     27  C   UNL     1      -5.257   0.994   0.246  0.00  0.00    +0.000 A 
ATOM     28  C   UNL     1      -4.844   2.189   0.806  0.00  0.00    +0.002 A 
ATOM     29  C   UNL     1      -3.536   2.607   0.657  0.00  0.00    +0.028 A 
ENDBRANCH  23  24
ENDBRANCH  18  19
ENDBRANCH  17  18
ENDBRANCH  13  17
TORSDOF 5
