REMARK  Name = ZINC13195350
REMARK  9 active torsions:
REMARK  status: ('A' for Active; 'I' for Inactive)
REMARK    1  A    between atoms: C_1  and  C_2
REMARK    2  A    between atoms: C_2  and  O_3
REMARK    3  A    between atoms: O_3  and  C_4
REMARK    4  A    between atoms: C_7  and  C_10
REMARK    5  A    between atoms: C_13  and  S_18
REMARK    6  A    between atoms: N_14  and  C_15
REMARK    7  A    between atoms: C_15  and  C_16
REMARK    8  A    between atoms: S_18  and  C_19
REMARK    9  A    between atoms: C_19  and  C_20
REMARK                            x       y       z     vdW  Elec       q    Type
REMARK                         _______ _______ _______ _____ _____    ______ ____
ROOT
ATOM      1  C   UNL     1       0.555   3.866  -0.035  0.00  0.00    +0.165 A 
ATOM      2  N   UNL     1      -0.753   3.755  -0.004  0.00  0.00    -0.128 NA
ATOM      3  N   UNL     1      -1.087   2.515   0.049  0.00  0.00    -0.122 NA
ATOM      4  C   UNL     1      -0.013   1.759   0.065  0.00  0.00    +0.193 A 
ATOM      5  N   UNL     1       1.069   2.591   0.009  0.00  0.00    -0.291 N 
ENDROOT
BRANCH   1   9
ATOM      6  C   UNL     1       2.778   7.482  -0.231  0.00  0.00    +0.121 A 
ATOM      7  C   UNL     1       3.371   6.283  -0.607  0.00  0.00    +0.046 A 
ATOM      8  C   UNL     1       2.653   5.108  -0.544  0.00  0.00    +0.015 A 
ATOM      9  C   UNL     1       1.328   5.124  -0.103  0.00  0.00    +0.020 A 
ATOM     10  C   UNL     1       0.735   6.332   0.269  0.00  0.00    +0.015 A 
ATOM     11  C   UNL     1       1.461   7.502   0.208  0.00  0.00    +0.046 A 
BRANCH   6  12
ATOM     12  O   UNL     1       3.490   8.638  -0.293  0.00  0.00    -0.492 OA
BRANCH  12  14
ATOM     13  C   UNL     1       3.772  11.023  -0.030  0.00  0.00    +0.048 C 
ATOM     14  C   UNL     1       2.819   9.834   0.108  0.00  0.00    +0.225 C 
ENDBRANCH  12  14
ENDBRANCH   6  12
ENDBRANCH   1   9
BRANCH   5  15
ATOM     15  C   UNL     1       2.483   2.206  -0.003  0.00  0.00    +0.250 C 
BRANCH  15  16
ATOM     16  C   UNL     1       2.925   1.960  -1.422  0.00  0.00    +0.375 C 
ATOM     17  O   UNL     1       2.140   2.094  -2.331  0.00  0.00    -0.244 OA
ATOM     18  O   UNL     1       4.191   1.594  -1.677  0.00  0.00    -0.244 OA
ENDBRANCH  15  16
ENDBRANCH   5  15
BRANCH   4  19
ATOM     19  S   UNL     1       0.025  -0.001   0.137  0.00  0.00    -0.081 S 
BRANCH  19  20
ATOM     20  C   UNL     1      -1.750  -0.352   0.186  0.00  0.00    +0.116 C 
BRANCH  20  21
ATOM     21  C   UNL     1      -1.966  -1.842   0.252  0.00  0.00    +0.006 A 
ATOM     22  C   UNL     1      -2.042  -2.475   1.478  0.00  0.00    +0.028 A 
ATOM     23  C   UNL     1      -2.241  -3.843   1.539  0.00  0.00    +0.042 A 
ATOM     24  C   UNL     1      -2.364  -4.578   0.373  0.00  0.00    +0.029 A 
ATOM     25  C   UNL     1      -2.287  -3.948  -0.855  0.00  0.00    +0.022 A 
ATOM     26  C   UNL     1      -2.095  -2.577  -0.918  0.00  0.00    +0.133 A 
ATOM     27  O   UNL     1      -2.031  -1.943  -2.119  0.00  0.00    -0.466 OA
ATOM     28  C   UNL     1      -1.802  -2.761  -3.270  0.00  0.00    +0.394 C 
ATOM     29  O   UNL     1      -2.692  -3.883  -3.218  0.00  0.00    -0.339 OA
ATOM     30  C   UNL     1      -2.413  -4.761  -2.119  0.00  0.00    +0.202 C 
ATOM     31 CL   UNL     1      -2.337  -4.637   3.079  0.00  0.00    -0.084 Cl
ENDBRANCH  20  21
ENDBRANCH  19  20
ENDBRANCH   4  19
TORSDOF 8
