REMARK  Name = ZINC06547994
REMARK  11 active torsions:
REMARK  status: ('A' for Active; 'I' for Inactive)
REMARK    1  A    between atoms: C_1  and  C_2
REMARK    2  A    between atoms: C_2  and  O_3
REMARK    3  A    between atoms: O_3  and  C_4
REMARK    4  A    between atoms: C_4  and  C_6
REMARK    5  A    between atoms: C_7  and  C_32
REMARK    6  A    between atoms: C_8  and  C_31
REMARK    7  A    between atoms: C_10  and  N_11
REMARK    8  A    between atoms: C_12  and  C_14
REMARK    9  A    between atoms: C_14  and  S_15
REMARK   10  A    between atoms: S_15  and  C_16
REMARK   11  A    between atoms: N_29  and  C_30
REMARK                            x       y       z     vdW  Elec       q    Type
REMARK                         _______ _______ _______ _____ _____    ______ ____
ROOT
ATOM      1  C   UNL     1      -4.607   1.903   0.221  0.00  0.00    +0.173 C 
ENDROOT
BRANCH   1   3
ATOM      2  N   UNL     1      -6.877   1.982  -0.758  0.00  0.00    -0.279 N 
ATOM      3  C   UNL     1      -5.566   1.717  -0.926  0.00  0.00    +0.228 C 
ATOM      4  O   UNL     1      -5.159   1.329  -2.000  0.00  0.00    -0.275 OA
ATOM      5  H   UNL     1      -7.203   2.293   0.101  0.00  0.00    +0.155 HD
BRANCH   2  10
ATOM      6  C   UNL     1      -9.133   2.030  -1.835  0.00  0.00    +0.091 A 
ATOM      7  C   UNL     1      -9.811   1.769  -3.083  0.00  0.00    -0.025 A 
ATOM      8  C   UNL     1      -9.060   1.338  -4.112  0.00  0.00    -0.008 A 
ATOM      9  S   UNL     1      -7.418   1.282  -3.426  0.00  0.00    -0.078 S 
ATOM     10  C   UNL     1      -7.759   1.812  -1.813  0.00  0.00    +0.086 A 
ATOM     11  C   UNL     1      -9.501   0.993  -5.511  0.00  0.00    +0.052 C 
ATOM     12  C   UNL     1     -11.298   1.970  -3.225  0.00  0.00    +0.045 C 
BRANCH   6  13
ATOM     13  C   UNL     1      -9.855   2.502  -0.652  0.00  0.00    +0.342 C 
ATOM     14  O   UNL     1      -9.992   3.695  -0.458  0.00  0.00    -0.245 OA
BRANCH  13  15
ATOM     15  O   UNL     1     -10.368   1.614   0.223  0.00  0.00    -0.461 OA
BRANCH  15  17
ATOM     16  C   UNL     1     -11.579   1.003   2.246  0.00  0.00    +0.048 C 
ATOM     17  C   UNL     1     -11.072   2.153   1.374  0.00  0.00    +0.229 C 
ENDBRANCH  15  17
ENDBRANCH  13  15
ENDBRANCH   6  13
ENDBRANCH   2  10
ENDBRANCH   1   3
BRANCH   1  18
ATOM     18  S   UNL     1      -2.934   1.468  -0.315  0.00  0.00    -0.078 S 
BRANCH  18  19
ATOM     19  C   UNL     1      -2.046   1.769   1.178  0.00  0.00    +0.173 A 
ATOM     20  N   UNL     1      -2.694   2.189   2.245  0.00  0.00    -0.216 NA
ATOM     21  C   UNL     1      -2.050   2.428   3.381  0.00  0.00    +0.117 A 
ATOM     22  C   UNL     1      -0.662   2.244   3.506  0.00  0.00    +0.076 A 
ATOM     23  C   UNL     1      -0.093   2.550   4.820  0.00  0.00    -0.023 A 
ATOM     24  C   UNL     1      -0.946   2.974   5.774  0.00  0.00    -0.004 A 
ATOM     25  S   UNL     1      -2.537   2.993   4.992  0.00  0.00    -0.073 S 
ATOM     26  C   UNL     1      -0.616   3.348   7.186  0.00  0.00    +0.043 C 
ATOM     27  C   UNL     1       0.790   2.824   7.510  0.00  0.00    +0.005 C 
ATOM     28  C   UNL     1       1.734   3.212   6.368  0.00  0.00    +0.005 C 
ATOM     29  C   UNL     1       1.397   2.401   5.117  0.00  0.00    +0.037 C 
ATOM     30  C   UNL     1       0.014   1.782   2.333  0.00  0.00    +0.263 A 
ATOM     31  O   UNL     1       1.218   1.593   2.348  0.00  0.00    -0.267 OA
ATOM     32  N   UNL     1      -0.698   1.558   1.213  0.00  0.00    -0.290 N 
ATOM     33  C   UNL     1      -0.013   1.086   0.008  0.00  0.00    +0.154 C 
ENDBRANCH  18  19
ENDBRANCH   1  18
TORSDOF 7
