REMARK  Name = ZINC09539780
REMARK  7 active torsions:
REMARK  status: ('A' for Active; 'I' for Inactive)
REMARK    1  A    between atoms: C_1  and  C_2
REMARK    2  A    between atoms: C_2  and  O_28
REMARK    3  A    between atoms: C_3  and  C_24
REMARK    4  A    between atoms: C_5  and  C_17
REMARK    5  A    between atoms: C_10  and  C_13
REMARK    6  A    between atoms: C_24  and  O_26
REMARK    7  A    between atoms: O_26  and  C_27
REMARK                            x       y       z     vdW  Elec       q    Type
REMARK                         _______ _______ _______ _____ _____    ______ ____
ROOT
ATOM      1  C   UNL     1      -2.158   0.223  -0.603  0.00  0.00    +0.067 C 
ATOM      2  C   UNL     1      -1.460  -0.780   0.317  0.00  0.00    +0.159 C 
ATOM      3  C   UNL     1      -0.656  -1.778  -0.526  0.00  0.00    +0.175 C 
ATOM      4  C   UNL     1       0.256  -2.611   0.382  0.00  0.00    +0.122 C 
ATOM      5  N   UNL     1       1.224  -1.709   1.036  0.00  0.00    -0.306 N 
ATOM      6  C   UNL     1       0.710  -0.517   1.533  0.00  0.00    +0.220 A 
ATOM      7  N   UNL     1      -0.544  -0.072   1.208  0.00  0.00    -0.262 N 
ATOM      8  C   UNL     1      -0.705   1.101   1.871  0.00  0.00    +0.241 A 
ATOM      9  N   UNL     1       0.399   1.320   2.537  0.00  0.00    -0.123 NA
ATOM     10  N   UNL     1       1.236   0.360   2.336  0.00  0.00    -0.113 NA
ATOM     11  H   UNL     1       2.164  -1.935   1.115  0.00  0.00    +0.150 HD
ENDROOT
BRANCH   4  12
ATOM     12  C   UNL     1      -0.574  -3.311   1.427  0.00  0.00    -0.026 A 
ATOM     13  C   UNL     1      -1.004  -2.621   2.544  0.00  0.00    +0.006 A 
ATOM     14  C   UNL     1      -1.765  -3.262   3.502  0.00  0.00    +0.015 A 
ATOM     15  C   UNL     1      -2.097  -4.596   3.343  0.00  0.00    +0.018 A 
ATOM     16  C   UNL     1      -1.667  -5.286   2.225  0.00  0.00    +0.015 A 
ATOM     17  C   UNL     1      -0.909  -4.643   1.264  0.00  0.00    +0.006 A 
ATOM     18 BR   UNL     1      -3.139  -5.474   4.655  0.00  0.00    -0.050 Br
ENDBRANCH   4  12
BRANCH   8  19
ATOM     19  C   UNL     1      -1.924   1.986   1.843  0.00  0.00    +0.453 C 
ATOM     20  F   UNL     1      -1.848   2.919   2.882  0.00  0.00    -0.163 F 
ATOM     21  F   UNL     1      -1.986   2.657   0.617  0.00  0.00    -0.163 F 
ATOM     22  F   UNL     1      -3.072   1.202   2.003  0.00  0.00    -0.163 F 
ENDBRANCH   8  19
BRANCH   3  23
ATOM     23  C   UNL     1       0.186  -1.026  -1.524  0.00  0.00    +0.317 C 
ATOM     24  O   UNL     1       0.687   0.030  -1.218  0.00  0.00    -0.250 OA
BRANCH  23  25
ATOM     25  O   UNL     1       0.380  -1.529  -2.754  0.00  0.00    -0.468 OA
ATOM     26  C   UNL     1       1.189  -0.763  -3.648  0.00  0.00    +0.280 C 
ENDBRANCH  23  25
ENDBRANCH   3  23
BRANCH   2  27
ATOM     27  O   UNL     1      -2.436  -1.481   1.091  0.00  0.00    -0.369 OA
ATOM     28  H   UNL     1      -2.977  -0.908   1.653  0.00  0.00    +0.212 HD
ENDBRANCH   2  27
TORSDOF 5
