REMARK  Name = ZINC58987062
REMARK  7 active torsions:
REMARK  status: ('A' for Active; 'I' for Inactive)
REMARK    1  A    between atoms: C_4  and  C_7
REMARK    2  A    between atoms: C_10  and  S_13
REMARK    3  A    between atoms: N_11  and  N_12
REMARK    4  A    between atoms: S_13  and  C_14
REMARK    5  A    between atoms: C_14  and  C_15
REMARK    6  A    between atoms: N_17  and  N_18
REMARK    7  A    between atoms: C_19  and  C_20
REMARK                            x       y       z     vdW  Elec       q    Type
REMARK                         _______ _______ _______ _____ _____    ______ ____
ROOT
ATOM      1  S   UNL     1       6.083  -3.756   0.322  0.00  0.00    -0.075 S 
ENDROOT
BRANCH   1   5
ATOM      2  C   UNL     1       3.695  -0.685  -0.038  0.00  0.00    +0.182 A 
ATOM      3  N   UNL     1       4.871  -0.170  -0.315  0.00  0.00    -0.127 NA
ATOM      4  N   UNL     1       5.777  -1.077  -0.236  0.00  0.00    -0.121 NA
ATOM      5  C   UNL     1       5.235  -2.228   0.097  0.00  0.00    +0.209 A 
ATOM      6  N   UNL     1       3.894  -2.018   0.239  0.00  0.00    -0.224 N 
BRANCH   2  10
ATOM      7  C   UNL     1      -0.017   1.379   0.010  0.00  0.00    +0.000 A 
ATOM      8  C   UNL     1       1.168   2.094   0.002  0.00  0.00    +0.001 A 
ATOM      9  C   UNL     1       2.377   1.429  -0.013  0.00  0.00    +0.011 A 
ATOM     10  C   UNL     1       2.403   0.034  -0.021  0.00  0.00    +0.021 A 
ATOM     11  C   UNL     1       1.204  -0.681  -0.013  0.00  0.00    +0.011 A 
ATOM     12  C   UNL     1       0.002  -0.004   0.002  0.00  0.00    +0.001 A 
ENDBRANCH   2  10
BRANCH   6  13
ATOM     13  N   UNL     1       2.946  -2.939   0.583  0.00  0.00    -0.295 N 
ATOM     14  H   UNL     1       2.567  -3.391  -0.236  0.00  0.00    +0.163 HD
ATOM     15  H   UNL     1       3.318  -3.617   1.230  0.00  0.00    +0.163 HD
ENDBRANCH   6  13
ENDBRANCH   1   5
BRANCH   1  16
ATOM     16  C   UNL     1       7.820  -3.347  -0.008  0.00  0.00    +0.174 C 
BRANCH  16  17
ATOM     17  C   UNL     1       8.666  -4.584   0.153  0.00  0.00    +0.242 C 
ATOM     18  O   UNL     1       8.149  -5.637   0.460  0.00  0.00    -0.273 OA
ATOM     19  N   UNL     1       9.998  -4.519  -0.044  0.00  0.00    -0.206 N 
ATOM     20  H   UNL     1      10.411  -3.677  -0.290  0.00  0.00    +0.177 HD
BRANCH  19  21
ATOM     21  N   UNL     1      10.785  -5.668   0.105  0.00  0.00    -0.188 NA
ATOM     22  C   UNL     1      12.067  -5.606  -0.085  0.00  0.00    +0.138 C 
BRANCH  22  23
ATOM     23  C   UNL     1      12.895  -6.816   0.072  0.00  0.00    -0.004 A 
ATOM     24  C   UNL     1      12.302  -8.032   0.420  0.00  0.00    +0.009 A 
ATOM     25  C   UNL     1      13.082  -9.160   0.566  0.00  0.00    +0.002 A 
ATOM     26  C   UNL     1      14.450  -9.090   0.368  0.00  0.00    +0.015 A 
ATOM     27  C   UNL     1      15.045  -7.888   0.023  0.00  0.00    +0.018 A 
ATOM     28  C   UNL     1      14.275  -6.753  -0.132  0.00  0.00    +0.024 A 
ATOM     29 BR   UNL     1      16.915  -7.804  -0.245  0.00  0.00    -0.050 Br
ENDBRANCH  22  23
ENDBRANCH  19  21
ENDBRANCH  16  17
ENDBRANCH   1  16
TORSDOF 7
