REMARK  Name = ZINC10243589
REMARK  7 active torsions:
REMARK  status: ('A' for Active; 'I' for Inactive)
REMARK    1  A    between atoms: C_1  and  C_2
REMARK    2  A    between atoms: C_7  and  N_8
REMARK    3  A    between atoms: C_12  and  S_13
REMARK    4  A    between atoms: S_13  and  C_14
REMARK    5  A    between atoms: C_14  and  C_15
REMARK    6  A    between atoms: N_17  and  C_18
REMARK    7  A    between atoms: C_21  and  N_25
REMARK                            x       y       z     vdW  Elec       q    Type
REMARK                         _______ _______ _______ _____ _____    ______ ____
ROOT
ATOM      1  C   UNL     1       3.979   2.699  -0.040  0.00  0.00    +0.173 C 
ENDROOT
BRANCH   1   2
ATOM      2  C   UNL     1       5.442   3.059  -0.040  0.00  0.00    +0.228 C 
ATOM      3  O   UNL     1       6.282   2.184  -0.049  0.00  0.00    -0.275 OA
ATOM      4  N   UNL     1       5.818   4.354  -0.030  0.00  0.00    -0.284 N 
ATOM      5  H   UNL     1       5.148   5.053  -0.088  0.00  0.00    +0.155 HD
BRANCH   4   6
ATOM      6  C   UNL     1       7.173   4.689   0.064  0.00  0.00    +0.052 A 
ATOM      7  C   UNL     1       8.132   3.887  -0.540  0.00  0.00    +0.027 A 
ATOM      8  C   UNL     1       9.469   4.220  -0.445  0.00  0.00    +0.034 A 
ATOM      9  C   UNL     1       9.854   5.351   0.251  0.00  0.00    +0.128 A 
ATOM     10  C   UNL     1       8.903   6.152   0.855  0.00  0.00    +0.054 A 
ATOM     11  C   UNL     1       7.562   5.828   0.759  0.00  0.00    +0.064 A 
ATOM     12 CL   UNL     1       6.367   6.838   1.511  0.00  0.00    -0.082 Cl
BRANCH   9  13
ATOM     13  N   UNL     1      11.288   5.705   0.350  0.00  0.00    +0.056 N 
ATOM     14  O   UNL     1      12.127   5.000  -0.181  0.00  0.00    -0.126 OA
ATOM     15  O   UNL     1      11.629   6.701   0.963  0.00  0.00    -0.126 OA
ENDBRANCH   9  13
ENDBRANCH   4   6
ENDBRANCH   1   2
BRANCH   1  16
ATOM     16  S   UNL     1       3.801   0.898  -0.054  0.00  0.00    -0.076 S 
BRANCH  16  21
ATOM     17  N   UNL     1       1.317  -0.395  -0.060  0.00  0.00    -0.277 N 
ATOM     18  C   UNL     1       0.004  -0.006  -0.054  0.00  0.00    +0.230 A 
ATOM     19  N   UNL     1      -0.015   1.297  -0.043  0.00  0.00    -0.137 NA
ATOM     20  N   UNL     1       1.185   1.756  -0.042  0.00  0.00    -0.122 NA
ATOM     21  C   UNL     1       2.045   0.763  -0.052  0.00  0.00    +0.196 A 
BRANCH  17  28
ATOM     22  C   UNL     1       2.790  -1.299   2.201  0.00  0.00    +0.046 C 
ATOM     23  C   UNL     1       2.535  -2.187   1.011  0.00  0.00    -0.027 A 
ATOM     24  C   UNL     1       3.022  -3.480   0.996  0.00  0.00    +0.005 A 
ATOM     25  C   UNL     1       2.788  -4.295  -0.096  0.00  0.00    +0.000 A 
ATOM     26  C   UNL     1       2.068  -3.820  -1.176  0.00  0.00    +0.002 A 
ATOM     27  C   UNL     1       1.575  -2.530  -1.165  0.00  0.00    +0.026 A 
ATOM     28  C   UNL     1       1.812  -1.707  -0.072  0.00  0.00    +0.053 A 
ENDBRANCH  17  28
ENDBRANCH  16  21
ENDBRANCH   1  16
TORSDOF 6
