REMARK  Name = ZINC39359782
REMARK  9 active torsions:
REMARK  status: ('A' for Active; 'I' for Inactive)
REMARK    1  A    between atoms: C_1  and  C_2
REMARK    2  A    between atoms: C_2  and  C_3
REMARK    3  A    between atoms: C_3  and  C_14
REMARK    4  A    between atoms: N_6  and  C_10
REMARK    5  A    between atoms: C_10  and  C_11
REMARK    6  A    between atoms: C_11  and  C_13
REMARK    7  A    between atoms: N_17  and  C_20
REMARK    8  A    between atoms: C_20  and  C_21
REMARK    9  A    between atoms: C_26  and  C_27
REMARK                            x       y       z     vdW  Elec       q    Type
REMARK                         _______ _______ _______ _____ _____    ______ ____
ROOT
ATOM      1  C   UNL     1      -1.059  -2.204   0.225  0.00  0.00    +0.018 C 
ATOM      2  C   UNL     1      -0.321  -2.781  -0.987  0.00  0.00    -0.013 C 
ATOM      3  C   UNL     1      -0.529  -4.297  -1.028  0.00  0.00    -0.078 C 
ATOM      4  N   UNL     1      -1.962  -4.595  -1.138  0.00  0.00    +0.380 N 
ATOM      5  C   UNL     1      -2.665  -4.107   0.054  0.00  0.00    -0.078 C 
ATOM      6  C   UNL     1      -2.540  -2.584   0.138  0.00  0.00    -0.013 C 
ATOM      7  H   UNL     1      -2.337  -4.141  -1.958  0.00  0.00    -0.082 HD
ENDROOT
BRANCH   1   8
ATOM      8  C   UNL     1      -0.922  -0.680   0.228  0.00  0.00    +0.115 C 
ATOM      9  C   UNL     1      -1.674  -0.071  -0.939  0.00  0.00    +0.247 C 
ATOM     10  O   UNL     1      -1.472  -0.260  -2.119  0.00  0.00    -0.273 OA
ATOM     11  N   UNL     1      -2.614   0.725  -0.391  0.00  0.00    -0.220 N 
ATOM     12  C   UNL     1      -2.561   0.704   0.946  0.00  0.00    +0.310 C 
ATOM     13  O   UNL     1      -3.308   1.341   1.661  0.00  0.00    -0.252 OA
ATOM     14  N   UNL     1      -1.588  -0.102   1.409  0.00  0.00    -0.285 N 
ATOM     15  H   UNL     1      -1.369  -0.270   2.338  0.00  0.00    +0.151 HD
BRANCH   8  17
ATOM     16  C   UNL     1       0.664   1.251   0.266  0.00  0.00    +0.006 C 
ATOM     17  C   UNL     1       0.553  -0.273   0.190  0.00  0.00    +0.032 C 
ENDBRANCH   8  17
BRANCH  11  18
ATOM     18  C   UNL     1      -3.574   1.517  -1.164  0.00  0.00    +0.148 C 
BRANCH  18  19
ATOM     19  C   UNL     1      -4.815   0.699  -1.412  0.00  0.00    -0.062 C 
ATOM     20  C   UNL     1      -5.844   0.811  -0.609  0.00  0.00    +0.009 C 
ATOM     21  C   UNL     1      -4.872  -0.248  -2.583  0.00  0.00    +0.040 C 
ENDBRANCH  18  19
ENDBRANCH  11  18
ENDBRANCH   1   8
BRANCH   4  22
ATOM     22  C   UNL     1      -2.151  -6.047  -1.256  0.00  0.00    -0.063 C 
BRANCH  22  23
ATOM     23  C   UNL     1      -1.559  -6.532  -2.581  0.00  0.00    +0.066 C 
ATOM     24  C   UNL     1      -2.388  -6.037  -3.749  0.00  0.00    +0.115 C 
ATOM     25  N   UNL     1      -2.833  -7.094  -4.348  0.00  0.00    -0.161 NA
ATOM     26  N   UNL     1      -2.412  -8.269  -3.735  0.00  0.00    -0.153 NA
ATOM     27  C   UNL     1      -1.658  -8.041  -2.690  0.00  0.00    +0.077 C 
BRANCH  27  28
ATOM     28  C   UNL     1      -1.037  -9.037  -1.804  0.00  0.00    -0.001 A 
ATOM     29  C   UNL     1      -0.258  -8.624  -0.718  0.00  0.00    +0.012 A 
ATOM     30  C   UNL     1       0.321  -9.562   0.108  0.00  0.00    +0.039 A 
ATOM     31  C   UNL     1       0.134 -10.915  -0.136  0.00  0.00    +0.123 A 
ATOM     32  C   UNL     1      -0.637 -11.332  -1.211  0.00  0.00    +0.039 A 
ATOM     33  C   UNL     1      -1.226 -10.403  -2.041  0.00  0.00    +0.012 A 
ATOM     34  F   UNL     1       0.705 -11.830   0.677  0.00  0.00    -0.205 F 
ENDBRANCH  27  28
ENDBRANCH  22  23
ENDBRANCH   4  22
TORSDOF 7
