REMARK  Name = ZINC41836078
REMARK  10 active torsions:
REMARK  status: ('A' for Active; 'I' for Inactive)
REMARK    1  A    between atoms: C_1  and  C_2
REMARK    2  A    between atoms: C_2  and  C_3
REMARK    3  A    between atoms: C_2  and  C_4
REMARK    4  A    between atoms: C_2  and  C_5
REMARK    5  A    between atoms: N_7  and  C_8
REMARK    6  A    between atoms: C_8  and  C_9
REMARK    7  A    between atoms: C_9  and  C_10
REMARK    8  A    between atoms: C_10  and  C_11
REMARK    9  A    between atoms: N_13  and  C_14
REMARK   10  A    between atoms: C_14  and  C_15
REMARK                            x       y       z     vdW  Elec       q    Type
REMARK                         _______ _______ _______ _____ _____    ______ ____
ROOT
ATOM      1  C   UNL     1       2.289  -5.815  -3.940  0.00  0.00    +0.213 C 
ATOM      2  O   UNL     1       1.781  -6.433  -3.029  0.00  0.00    -0.276 OA
ATOM      3  N   UNL     1       2.873  -6.475  -4.960  0.00  0.00    -0.311 N 
ATOM      4  H   UNL     1       3.279  -5.981  -5.689  0.00  0.00    +0.149 HD
ENDROOT
BRANCH   1   5
ATOM      5  C   UNL     1       2.269  -4.308  -3.932  0.00  0.00    +0.097 C 
BRANCH   5   6
ATOM      6  C   UNL     1       1.553  -3.814  -2.673  0.00  0.00    +0.028 C 
BRANCH   6   7
ATOM      7  C   UNL     1       1.532  -2.285  -2.665  0.00  0.00    +0.104 C 
BRANCH   7  10
ATOM      8  C   UNL     1       0.707  -0.490  -1.238  0.00  0.00    +0.218 C 
ATOM      9  O   UNL     1       1.150   0.308  -2.036  0.00  0.00    -0.275 OA
ATOM     10  N   UNL     1       0.847  -1.812  -1.460  0.00  0.00    -0.315 N 
ATOM     11  H   UNL     1       0.493  -2.451  -0.821  0.00  0.00    +0.149 HD
BRANCH   8  13
ATOM     12  C   UNL     1      -0.019   1.526   0.010  0.00  0.00    +0.020 C 
ATOM     13  C   UNL     1       0.002  -0.004   0.002  0.00  0.00    +0.039 C 
ATOM     14  C   UNL     1       0.742  -0.511   1.242  0.00  0.00    +0.020 C 
ATOM     15  C   UNL     1      -1.433  -0.534   0.013  0.00  0.00    +0.020 C 
ENDBRANCH   8  13
ENDBRANCH   7  10
ENDBRANCH   6   7
ENDBRANCH   5   6
ENDBRANCH   1   5
BRANCH   3  16
ATOM     16  C   UNL     1       2.892  -7.940  -4.968  0.00  0.00    +0.139 C 
BRANCH  16  17
ATOM     17  C   UNL     1       3.598  -8.426  -6.208  0.00  0.00    -0.025 A 
ATOM     18  C   UNL     1       2.877  -8.654  -7.367  0.00  0.00    +0.054 A 
ATOM     19  C   UNL     1       3.528  -9.100  -8.505  0.00  0.00    +0.164 A 
ATOM     20  C   UNL     1       4.898  -9.317  -8.481  0.00  0.00    +0.180 A 
ATOM     21  C   UNL     1       5.618  -9.088  -7.320  0.00  0.00    +0.086 A 
ATOM     22  C   UNL     1       4.963  -8.637  -6.186  0.00  0.00    +0.029 A 
ATOM     23 CL   UNL     1       7.332  -9.359  -7.288  0.00  0.00    -0.080 Cl
ATOM     24  O   UNL     1       5.531  -9.756  -9.608  0.00  0.00    -0.487 OA
ATOM     25  C   UNL     1       5.220 -11.089 -10.020  0.00  0.00    +0.232 C 
ATOM     26  C   UNL     1       3.951 -11.113 -10.857  0.00  0.00    +0.082 C 
ATOM     27  C   UNL     1       2.725 -10.693 -10.062  0.00  0.00    +0.232 C 
ATOM     28  O   UNL     1       2.829  -9.327  -9.654  0.00  0.00    -0.488 OA
ENDBRANCH  16  17
ENDBRANCH   3  16
TORSDOF 7
