REMARK  Name = ZINC31722154
REMARK  11 active torsions:
REMARK  status: ('A' for Active; 'I' for Inactive)
REMARK    1  A    between atoms: C_1  and  C_2
REMARK    2  A    between atoms: C_4  and  C_26
REMARK    3  A    between atoms: C_5  and  S_9
REMARK    4  A    between atoms: C_6  and  C_8
REMARK    5  A    between atoms: S_9  and  N_12
REMARK    6  A    between atoms: N_12  and  C_13
REMARK    7  A    between atoms: C_16  and  C_19
REMARK    8  A    between atoms: C_19  and  C_20
REMARK    9  A    between atoms: N_22  and  C_23
REMARK   10  A    between atoms: C_23  and  C_24
REMARK   11  A    between atoms: C_23  and  C_25
REMARK                            x       y       z     vdW  Elec       q    Type
REMARK                         _______ _______ _______ _____ _____    ______ ____
ROOT
ATOM      1  N   UNL     1       1.299  -1.670   0.033  0.00  0.00    -0.216 N 
ATOM      2  H   UNL     1       0.637  -2.103   0.798  0.00  0.00    +0.174 HD
ENDROOT
BRANCH   1   3
ATOM      3  C   UNL     1       1.457  -0.285  -0.051  0.00  0.00    +0.048 A 
ATOM      4  C   UNL     1       0.345   0.546  -0.009  0.00  0.00    +0.025 A 
ATOM      5  C   UNL     1       0.505   1.915  -0.093  0.00  0.00    +0.006 A 
ATOM      6  C   UNL     1       1.770   2.459  -0.218  0.00  0.00    -0.039 A 
ATOM      7  C   UNL     1       2.880   1.634  -0.260  0.00  0.00    +0.006 A 
ATOM      8  C   UNL     1       2.727   0.264  -0.177  0.00  0.00    +0.025 A 
BRANCH   6   9
ATOM      9  C   UNL     1       1.941   3.954  -0.309  0.00  0.00    +0.130 C 
BRANCH   9  10
ATOM     10  C   UNL     1       2.106   4.526   1.075  0.00  0.00    +0.218 C 
ATOM     11  O   UNL     1       2.087   3.792   2.041  0.00  0.00    -0.275 OA
ATOM     12  N   UNL     1       2.275   5.853   1.240  0.00  0.00    -0.313 N 
ATOM     13  H   UNL     1       2.292   6.518   0.364  0.00  0.00    +0.149 HD
BRANCH  12  14
ATOM     14  C   UNL     1       2.435   6.409   2.586  0.00  0.00    +0.067 C 
ATOM     15  C   UNL     1       3.904   6.319   3.003  0.00  0.00    +0.027 C 
ATOM     16  C   UNL     1       1.993   7.874   2.588  0.00  0.00    +0.027 C 
ENDBRANCH  12  14
ENDBRANCH   9  10
ENDBRANCH   6   9
ENDBRANCH   1   3
BRANCH   1  17
ATOM     17  S   UNL     1       2.109  -2.662  -1.017  0.00  0.00    +0.073 S 
ATOM     18  O   UNL     1       1.729  -3.993  -0.694  0.00  0.00    -0.150 OA
ATOM     19  O   UNL     1       1.928  -2.112  -2.315  0.00  0.00    -0.150 OA
BRANCH  17  24
ATOM     20  C   UNL     1       7.988  -2.187   0.254  0.00  0.00    +0.044 C 
ATOM     21  C   UNL     1       6.520  -2.307  -0.064  0.00  0.00    -0.050 A 
ATOM     22  C   UNL     1       5.665  -2.917   0.835  0.00  0.00    +0.008 A 
ATOM     23  C   UNL     1       4.318  -3.026   0.544  0.00  0.00    -0.023 A 
ATOM     24  C   UNL     1       3.826  -2.523  -0.646  0.00  0.00    +0.114 A 
ATOM     25  C   UNL     1       4.681  -1.918  -1.548  0.00  0.00    -0.023 A 
ATOM     26  C   UNL     1       6.027  -1.805  -1.255  0.00  0.00    +0.008 A 
ATOM     27  C   UNL     1       4.145  -1.376  -2.848  0.00  0.00    +0.046 C 
ATOM     28  C   UNL     1       3.387  -3.691   1.524  0.00  0.00    +0.046 C 
ENDBRANCH  17  24
ENDBRANCH   1  17
TORSDOF 6
