REMARK  Name = ZINC00805311
REMARK  6 active torsions:
REMARK  status: ('A' for Active; 'I' for Inactive)
REMARK    1  A    between atoms: C_1  and  C_2
REMARK    2  A    between atoms: C_9  and  C_11
REMARK    3  A    between atoms: N_13  and  N_14
REMARK    4  A    between atoms: C_15  and  C_16
REMARK    5  A    between atoms: C_19  and  O_23
REMARK    6  A    between atoms: C_21  and  O_22
REMARK                            x       y       z     vdW  Elec       q    Type
REMARK                         _______ _______ _______ _____ _____    ______ ____
ROOT
ATOM      1  N   UNL     1      -2.250   6.365   0.503  0.00  0.00    -0.188 NA
ATOM      2  C   UNL     1      -1.946   5.397   1.314  0.00  0.00    +0.142 C 
ENDROOT
BRANCH   2   3
ATOM      3  C   UNL     1      -0.662   4.691   1.169  0.00  0.00    +0.037 A 
ATOM      4  C   UNL     1      -0.335   3.645   2.037  0.00  0.00    +0.032 A 
ATOM      5  C   UNL     1       0.870   2.990   1.902  0.00  0.00    +0.060 A 
ATOM      6  C   UNL     1       1.758   3.359   0.897  0.00  0.00    +0.134 A 
ATOM      7  C   UNL     1       1.440   4.392   0.028  0.00  0.00    +0.092 A 
ATOM      8  C   UNL     1       0.235   5.061   0.158  0.00  0.00    +0.129 A 
ATOM      9 BR   UNL     1       1.314   1.580   3.081  0.00  0.00    -0.047 Br
BRANCH   8  10
ATOM     10  O   UNL     1      -0.077   6.073  -0.693  0.00  0.00    -0.506 OA
ATOM     11  H   UNL     1      -0.548   5.787  -1.488  0.00  0.00    +0.292 HD
ENDBRANCH   8  10
BRANCH   6  12
ATOM     12  O   UNL     1       2.942   2.706   0.766  0.00  0.00    -0.506 OA
ATOM     13  H   UNL     1       2.905   1.938   0.180  0.00  0.00    +0.292 HD
ENDBRANCH   6  12
ENDBRANCH   2   3
BRANCH   1  16
ATOM     14  C   UNL     1      -3.786   8.041  -0.201  0.00  0.00    +0.236 C 
ATOM     15  O   UNL     1      -3.012   8.364  -1.077  0.00  0.00    -0.274 OA
ATOM     16  N   UNL     1      -3.471   7.037   0.640  0.00  0.00    -0.207 N 
ATOM     17  H   UNL     1      -4.091   6.779   1.341  0.00  0.00    +0.177 HD
BRANCH  14  25
ATOM     18  C   UNL     1      -3.658  10.886   0.286  0.00  0.00    +0.012 C 
ATOM     19  C   UNL     1      -5.054  10.263   0.215  0.00  0.00    -0.017 C 
ATOM     20  C   UNL     1      -6.069  10.898   1.150  0.00  0.00    +0.008 C 
ATOM     21  C   UNL     1      -7.486  10.459   0.780  0.00  0.00    +0.001 C 
ATOM     22  C   UNL     1      -7.730  10.787  -0.697  0.00  0.00    +0.000 C 
ATOM     23  C   UNL     1      -6.965   9.777  -1.553  0.00  0.00    +0.005 C 
ATOM     24  C   UNL     1      -5.491   9.761  -1.155  0.00  0.00    +0.008 C 
ATOM     25  C   UNL     1      -5.100   8.764  -0.053  0.00  0.00    +0.086 C 
ENDBRANCH  14  25
ENDBRANCH   1  16
TORSDOF 5
