REMARK  Name = ZINC64042641
REMARK  12 active torsions:
REMARK  status: ('A' for Active; 'I' for Inactive)
REMARK    1  A    between atoms: C_1  and  C_2
REMARK    2  A    between atoms: C_2  and  C_4
REMARK    3  A    between atoms: C_2  and  O_15
REMARK    4  A    between atoms: C_4  and  C_6
REMARK    5  A    between atoms: O_15  and  C_16
REMARK    6  A    between atoms: C_16  and  C_18
REMARK    7  A    between atoms: C_18  and  C_19
REMARK    8  A    between atoms: C_19  and  C_20
REMARK    9  A    between atoms: C_20  and  N_21
REMARK   10  A    between atoms: N_21  and  C_22
REMARK   11  A    between atoms: N_21  and  S_23
REMARK   12  A    between atoms: S_23  and  C_26
REMARK                            x       y       z     vdW  Elec       q    Type
REMARK                         _______ _______ _______ _____ _____    ______ ____
ROOT
ATOM      1  C   UNL     1      -1.899  -0.716   1.212  0.00  0.00    +0.308 C 
ATOM      2  O   UNL     1      -1.272  -0.494   2.221  0.00  0.00    -0.251 OA
ENDROOT
BRANCH   1   3
ATOM      3  O   UNL     1      -1.339  -0.499   0.012  0.00  0.00    -0.454 OA
BRANCH   3   5
ATOM      4  C   UNL     1      -0.019   1.526   0.010  0.00  0.00    +0.061 C 
ATOM      5  C   UNL     1       0.002  -0.004   0.002  0.00  0.00    +0.244 C 
BRANCH   5   6
ATOM      6  C   UNL     1       0.707  -0.490  -1.238  0.00  0.00    +0.201 C 
ATOM      7  O   UNL     1       0.062  -0.868  -2.195  0.00  0.00    -0.288 OA
BRANCH   6   8
ATOM      8  C   UNL     1       2.118  -0.506  -1.287  0.00  0.00    +0.027 C 
ATOM      9  C   UNL     1       2.913  -0.913  -2.343  0.00  0.00    +0.006 A 
ATOM     10  C   UNL     1       2.619  -1.414  -3.632  0.00  0.00    +0.010 A 
ATOM     11  C   UNL     1       3.619  -1.741  -4.481  0.00  0.00    +0.001 A 
ATOM     12  C   UNL     1       4.973  -1.605  -4.138  0.00  0.00    +0.002 A 
ATOM     13  C   UNL     1       5.362  -1.136  -2.933  0.00  0.00    +0.026 A 
ATOM     14  C   UNL     1       4.335  -0.756  -1.948  0.00  0.00    +0.043 A 
ATOM     15  N   UNL     1       4.423  -0.286  -0.737  0.00  0.00    -0.380 N 
ATOM     16  C   UNL     1       3.076  -0.075  -0.199  0.00  0.00    +0.152 C 
ATOM     17  H   UNL     1       5.251  -0.101  -0.266  0.00  0.00    +0.160 HD
ENDBRANCH   6   8
ENDBRANCH   5   6
ENDBRANCH   3   5
ENDBRANCH   1   3
BRANCH   1  18
ATOM     18  C   UNL     1      -3.310  -1.237   1.302  0.00  0.00    +0.122 C 
BRANCH  18  19
ATOM     19  C   UNL     1      -3.703  -1.395   2.772  0.00  0.00    +0.028 C 
BRANCH  19  20
ATOM     20  C   UNL     1      -5.136  -1.925   2.863  0.00  0.00    +0.109 C 
BRANCH  20  21
ATOM     21  N   UNL     1      -5.512  -2.076   4.271  0.00  0.00    -0.180 NA
ATOM     22  C   UNL     1      -6.038  -0.929   5.016  0.00  0.00    +0.131 C 
BRANCH  21  23
ATOM     23  S   UNL     1      -5.343  -3.543   5.020  0.00  0.00    +0.061 S 
ATOM     24  O   UNL     1      -6.256  -3.551   6.109  0.00  0.00    -0.153 OA
ATOM     25  O   UNL     1      -5.370  -4.528   3.996  0.00  0.00    -0.153 OA
BRANCH  23  26
ATOM     26  C   UNL     1      -3.726  -3.588   5.718  0.00  0.00    +0.106 A 
ATOM     27  C   UNL     1      -2.665  -4.071   4.974  0.00  0.00    +0.031 A 
ATOM     28  C   UNL     1      -1.397  -4.106   5.521  0.00  0.00    +0.040 A 
ATOM     29  C   UNL     1      -1.188  -3.658   6.814  0.00  0.00    +0.124 A 
ATOM     30  C   UNL     1      -2.251  -3.176   7.559  0.00  0.00    +0.040 A 
ATOM     31  C   UNL     1      -3.518  -3.136   7.008  0.00  0.00    +0.031 A 
ATOM     32  F   UNL     1       0.052  -3.693   7.350  0.00  0.00    -0.205 F 
ENDBRANCH  23  26
ENDBRANCH  21  23
ENDBRANCH  20  21
ENDBRANCH  19  20
ENDBRANCH  18  19
ENDBRANCH   1  18
TORSDOF 10
