REMARK  Name = ZINC66265922
REMARK  7 active torsions:
REMARK  status: ('A' for Active; 'I' for Inactive)
REMARK    1  A    between atoms: C_1  and  C_2
REMARK    2  A    between atoms: C_2  and  C_4
REMARK    3  A    between atoms: C_2  and  N_18
REMARK    4  A    between atoms: C_4  and  C_5
REMARK    5  A    between atoms: N_7  and  N_8
REMARK    6  A    between atoms: C_9  and  C_11
REMARK    7  A    between atoms: C_19  and  C_21
REMARK                            x       y       z     vdW  Elec       q    Type
REMARK                         _______ _______ _______ _____ _____    ______ ____
ROOT
ATOM      1  C   UNL     1       0.657  -2.014   1.298  0.00  0.00    +0.231 C 
ATOM      2  O   UNL     1       0.062  -2.621   0.432  0.00  0.00    -0.274 OA
ATOM      3  N   UNL     1       1.241  -2.685   2.311  0.00  0.00    -0.234 N 
ATOM      4  H   UNL     1       1.716  -2.200   3.003  0.00  0.00    +0.173 HD
ENDROOT
BRANCH   3   5
ATOM      5  N   UNL     1       1.161  -4.083   2.363  0.00  0.00    -0.230 N 
ATOM      6  C   UNL     1       1.745  -4.754   3.375  0.00  0.00    +0.260 C 
ATOM      7  O   UNL     1       2.341  -4.146   4.244  0.00  0.00    -0.269 OA
ATOM      8  H   UNL     1       0.686  -4.568   1.670  0.00  0.00    +0.173 HD
BRANCH   6   9
ATOM      9  C   UNL     1       1.662  -6.228   3.431  0.00  0.00    +0.038 A 
ATOM     10  C   UNL     1       0.983  -6.929   2.432  0.00  0.00    +0.016 A 
ATOM     11  C   UNL     1       0.908  -8.304   2.488  0.00  0.00    +0.039 A 
ATOM     12  C   UNL     1       1.505  -8.991   3.534  0.00  0.00    +0.123 A 
ATOM     13  C   UNL     1       2.180  -8.300   4.528  0.00  0.00    +0.039 A 
ATOM     14  C   UNL     1       2.266  -6.925   4.479  0.00  0.00    +0.016 A 
ATOM     15  F   UNL     1       1.428 -10.339   3.585  0.00  0.00    -0.205 F 
ENDBRANCH   6   9
ENDBRANCH   3   5
BRANCH   1  16
ATOM     16  C   UNL     1       0.742  -0.511   1.242  0.00  0.00    +0.119 C 
BRANCH  16  18
ATOM     17  C   UNL     1      -0.019   1.526   0.010  0.00  0.00    +0.028 C 
ATOM     18  C   UNL     1       0.002  -0.004   0.002  0.00  0.00    +0.079 C 
BRANCH  18  19
ATOM     19  N   UNL     1       0.688  -0.476  -1.203  0.00  0.00    -0.312 N 
ATOM     20  C   UNL     1       0.006  -0.608  -2.358  0.00  0.00    +0.216 C 
ATOM     21  O   UNL     1      -1.175  -0.336  -2.400  0.00  0.00    -0.276 OA
ATOM     22  H   UNL     1       1.632  -0.695  -1.170  0.00  0.00    +0.149 HD
BRANCH  20  23
ATOM     23  C   UNL     1       0.712  -1.094  -3.598  0.00  0.00    +0.075 C 
ATOM     24  C   UNL     1       1.849  -0.133  -3.948  0.00  0.00    +0.013 C 
ATOM     25  C   UNL     1       2.565  -0.626  -5.207  0.00  0.00    +0.001 C 
ATOM     26  C   UNL     1       1.572  -0.685  -6.369  0.00  0.00    +0.000 C 
ATOM     27  C   UNL     1       0.434  -1.646  -6.019  0.00  0.00    +0.001 C 
ATOM     28  C   UNL     1      -0.282  -1.153  -4.761  0.00  0.00    +0.013 C 
ENDBRANCH  20  23
ENDBRANCH  18  19
ENDBRANCH  16  18
ENDBRANCH   1  16
TORSDOF 6
