REMARK  Name = ZINC08919976
REMARK  10 active torsions:
REMARK  status: ('A' for Active; 'I' for Inactive)
REMARK    1  A    between atoms: C_1  and  C_2
REMARK    2  A    between atoms: C_2  and  C_3
REMARK    3  A    between atoms: C_3  and  C_4
REMARK    4  A    between atoms: C_3  and  C_5
REMARK    5  A    between atoms: C_3  and  C_6
REMARK    6  A    between atoms: C_15  and  O_30
REMARK    7  A    between atoms: C_17  and  C_20
REMARK    8  A    between atoms: C_25  and  O_26
REMARK    9  A    between atoms: O_26  and  C_27
REMARK   10  A    between atoms: C_27  and  C_28
REMARK                            x       y       z     vdW  Elec       q    Type
REMARK                         _______ _______ _______ _____ _____    ______ ____
ROOT
ATOM      1  C   UNL     1       6.268   3.077  -0.803  0.00  0.00    -0.000 C 
ATOM      2  C   UNL     1       5.302   4.038  -0.105  0.00  0.00    +0.009 C 
ATOM      3  C   UNL     1       3.858   3.646  -0.421  0.00  0.00    +0.037 C 
ATOM      4  C   UNL     1       3.668   2.168  -0.097  0.00  0.00    -0.023 A 
ATOM      5  C   UNL     1       4.734   1.344   0.028  0.00  0.00    -0.004 A 
ATOM      6  S   UNL     1       4.040  -0.244   0.407  0.00  0.00    -0.078 S 
ATOM      7  C   UNL     1       2.383   0.181   0.399  0.00  0.00    +0.080 A 
ATOM      8  C   UNL     1       2.369   1.548   0.098  0.00  0.00    +0.068 A 
ATOM      9  C   UNL     1       1.043   2.212   0.004  0.00  0.00    +0.220 C 
ATOM     10  N   UNL     1      -0.018   1.453   0.010  0.00  0.00    -0.223 NA
ATOM     11  C   UNL     1       0.002  -0.004   0.002  0.00  0.00    +0.227 C 
ATOM     12  N   UNL     1       1.232  -0.536   0.618  0.00  0.00    -0.313 N 
ATOM     13  C   UNL     1       6.179   1.705  -0.121  0.00  0.00    +0.046 C 
ATOM     14  H   UNL     1       1.228  -1.348   1.149  0.00  0.00    +0.149 HD
ENDROOT
BRANCH  11  15
ATOM     15  C   UNL     1      -0.082  -0.489  -1.422  0.00  0.00    +0.037 A 
ATOM     16  C   UNL     1       0.597  -1.629  -1.806  0.00  0.00    +0.026 A 
ATOM     17  C   UNL     1       0.521  -2.075  -3.113  0.00  0.00    +0.018 A 
ATOM     18  C   UNL     1      -0.235  -1.379  -4.040  0.00  0.00    +0.019 A 
ATOM     19  C   UNL     1      -0.916  -0.239  -3.660  0.00  0.00    +0.047 A 
ATOM     20  C   UNL     1      -0.845   0.206  -2.348  0.00  0.00    +0.127 A 
ATOM     21 BR   UNL     1       1.452  -3.636  -3.635  0.00  0.00    -0.050 Br
BRANCH  20  22
ATOM     22  O   UNL     1      -1.519   1.326  -1.972  0.00  0.00    -0.492 OA
BRANCH  22  23
ATOM     23  C   UNL     1      -2.285   1.991  -2.978  0.00  0.00    +0.225 C 
ATOM     24  C   UNL     1      -2.966   3.219  -2.372  0.00  0.00    +0.048 C 
ENDBRANCH  22  23
ENDBRANCH  20  22
ENDBRANCH  11  15
BRANCH   1  25
ATOM     25  C   UNL     1       7.696   3.614  -0.691  0.00  0.00    -0.032 C 
ATOM     26  C   UNL     1       7.778   4.990  -1.356  0.00  0.00    +0.011 C 
ATOM     27  C   UNL     1       8.080   3.738   0.785  0.00  0.00    +0.011 C 
BRANCH  25  29
ATOM     28  C   UNL     1      10.088   3.189  -1.278  0.00  0.00    +0.004 C 
ATOM     29  C   UNL     1       8.659   2.652  -1.390  0.00  0.00    +0.003 C 
ENDBRANCH  25  29
ENDBRANCH   1  25
BRANCH   9  30
ATOM     30  O   UNL     1       0.940   3.558  -0.085  0.00  0.00    -0.492 OA
ATOM     31  H   UNL     1       0.029   3.880  -0.142  0.00  0.00    +0.294 HD
ENDBRANCH   9  30
TORSDOF 6
