REMARK  Name = ZINC26842154
REMARK  8 active torsions:
REMARK  status: ('A' for Active; 'I' for Inactive)
REMARK    1  A    between atoms: C_1  and  C_2
REMARK    2  A    between atoms: C_7  and  N_25
REMARK    3  A    between atoms: C_8  and  C_13
REMARK    4  A    between atoms: N_14  and  N_15
REMARK    5  A    between atoms: C_16  and  C_18
REMARK    6  A    between atoms: C_23  and  O_24
REMARK    7  A    between atoms: N_25  and  C_26
REMARK    8  A    between atoms: N_25  and  C_27
REMARK                            x       y       z     vdW  Elec       q    Type
REMARK                         _______ _______ _______ _____ _____    ______ ____
ROOT
ATOM      1  C   UNL     1      -0.751   5.628   9.568  0.00  0.00    +0.045 C 
ATOM      2  C   UNL     1      -0.628   4.127   9.580  0.00  0.00    -0.034 A 
ATOM      3  C   UNL     1      -0.594   3.436  10.800  0.00  0.00    +0.008 A 
ATOM      4  C   UNL     1      -0.482   2.078  10.801  0.00  0.00    +0.047 A 
ATOM      5  C   UNL     1      -0.401   1.388   9.578  0.00  0.00    +0.142 A 
ATOM      6  N   UNL     1      -0.291   0.060   9.586  0.00  0.00    -0.213 NA
ATOM      7  C   UNL     1      -0.212  -0.637   8.460  0.00  0.00    +0.142 A 
ATOM      8  C   UNL     1      -0.244   0.034   7.222  0.00  0.00    +0.100 A 
ATOM      9  C   UNL     1      -0.355   1.440   7.222  0.00  0.00    +0.269 A 
ATOM     10  O   UNL     1      -0.381   2.060   6.172  0.00  0.00    -0.266 OA
ATOM     11  N   UNL     1      -0.437   2.089   8.404  0.00  0.00    -0.267 N 
ATOM     12  C   UNL     1      -0.549   3.448   8.414  0.00  0.00    +0.099 A 
ENDROOT
BRANCH   8  13
ATOM     13  C   UNL     1      -0.159  -0.712   5.960  0.00  0.00    +0.147 C 
ATOM     14  N   UNL     1      -0.291  -0.089   4.826  0.00  0.00    -0.187 NA
BRANCH  14  15
ATOM     15  N   UNL     1      -0.210  -0.801   3.622  0.00  0.00    -0.203 N 
ATOM     16  C   UNL     1      -0.347  -0.156   2.447  0.00  0.00    +0.267 C 
ATOM     17  O   UNL     1      -0.542   1.044   2.431  0.00  0.00    -0.268 OA
ATOM     18  H   UNL     1      -0.033  -1.887   3.636  0.00  0.00    +0.178 HD
BRANCH  16  19
ATOM     19  C   UNL     1      -0.261  -0.906   1.179  0.00  0.00    +0.080 A 
ATOM     20  C   UNL     1      -0.037  -2.285   1.193  0.00  0.00    +0.017 A 
ATOM     21  C   UNL     1       0.043  -2.979   0.005  0.00  0.00    +0.001 A 
ATOM     22  C   UNL     1      -0.099  -2.317  -1.203  0.00  0.00    +0.004 A 
ATOM     23  C   UNL     1      -0.326  -0.955  -1.230  0.00  0.00    +0.046 A 
ATOM     24  C   UNL     1      -0.404  -0.239  -0.045  0.00  0.00    +0.129 A 
BRANCH  24  25
ATOM     25  O   UNL     1      -0.622   1.099  -0.070  0.00  0.00    -0.506 OA
ATOM     26  H   UNL     1      -0.734   1.620  -1.033  0.00  0.00    +0.292 HD
ENDBRANCH  24  25
ENDBRANCH  16  19
ENDBRANCH  14  15
ENDBRANCH   8  13
BRANCH   7  27
ATOM     27  N   UNL     1      -0.099  -2.013   8.502  0.00  0.00    -0.288 N 
ATOM     28  C   UNL     1       1.219  -2.636   8.646  0.00  0.00    +0.137 C 
BRANCH  27  29
ATOM     29  C   UNL     1      -1.243  -2.811   8.407  0.00  0.00    +0.035 A 
ATOM     30  C   UNL     1      -2.479  -2.230   8.155  0.00  0.00    +0.023 A 
ATOM     31  C   UNL     1      -3.606  -3.022   8.056  0.00  0.00    +0.002 A 
ATOM     32  C   UNL     1      -3.506  -4.392   8.218  0.00  0.00    +0.000 A 
ATOM     33  C   UNL     1      -2.278  -4.973   8.475  0.00  0.00    +0.002 A 
ATOM     34  C   UNL     1      -1.146  -4.188   8.569  0.00  0.00    +0.023 A 
ENDBRANCH  27  29
ENDBRANCH   7  27
TORSDOF 6
