REMARK  Name = ZINC62533045
REMARK  3 active torsions:
REMARK  status: ('A' for Active; 'I' for Inactive)
REMARK    1  A    between atoms: C_1  and  N_2
REMARK    2  A    between atoms: C_9  and  C_13
REMARK    3  A    between atoms: C_11  and  N_12
REMARK                            x       y       z     vdW  Elec       q    Type
REMARK                         _______ _______ _______ _____ _____    ______ ____
ROOT
ATOM      1  C   UNL     1      -0.018   1.461   0.010  0.00  0.00    +0.129 C 
ATOM      2  N   UNL     1       0.002  -0.004   0.002  0.00  0.00    -0.327 N 
ATOM      3  C   UNL     1       0.006  -0.759  -1.263  0.00  0.00    +0.146 C 
ATOM      4  C   UNL     1      -0.957  -1.943  -1.099  0.00  0.00    +0.248 C 
ATOM      5  O   UNL     1      -0.523  -2.739   0.007  0.00  0.00    -0.487 OA
ATOM      6  C   UNL     1      -0.251  -2.102   1.178  0.00  0.00    +0.162 A 
ATOM      7  C   UNL     1       0.023  -0.737   1.200  0.00  0.00    +0.074 A 
ATOM      8  C   UNL     1       0.310  -0.099   2.395  0.00  0.00    +0.035 A 
ATOM      9  C   UNL     1       0.329  -0.825   3.585  0.00  0.00    -0.014 A 
ATOM     10  C   UNL     1       0.057  -2.192   3.567  0.00  0.00    +0.035 A 
ATOM     11  C   UNL     1      -0.240  -2.828   2.367  0.00  0.00    +0.069 A 
ENDROOT
BRANCH   9  12
ATOM     12  C   UNL     1       0.635  -0.145   4.867  0.00  0.00    -0.018 A 
ATOM     13  C   UNL     1       0.901   1.223   4.887  0.00  0.00    +0.008 A 
ATOM     14  C   UNL     1       1.185   1.851   6.083  0.00  0.00    +0.001 A 
ATOM     15  C   UNL     1       1.207   1.125   7.260  0.00  0.00    +0.000 A 
ATOM     16  C   UNL     1       0.945  -0.233   7.246  0.00  0.00    +0.001 A 
ATOM     17  C   UNL     1       0.654  -0.870   6.057  0.00  0.00    +0.008 A 
ENDBRANCH   9  12
BRANCH  11  18
ATOM     18  N   UNL     1      -0.511  -4.201   2.351  0.00  0.00    -0.355 N 
ATOM     19  H   UNL     1      -0.707  -4.646   1.512  0.00  0.00    +0.142 HD
ATOM     20  H   UNL     1      -0.504  -4.707   3.179  0.00  0.00    +0.142 HD
ENDBRANCH  11  18
TORSDOF 2
