REMARK  Name = ZINC34262531
REMARK  9 active torsions:
REMARK  status: ('A' for Active; 'I' for Inactive)
REMARK    1  A    between atoms: C_1  and  C_2
REMARK    2  A    between atoms: C_2  and  O_3
REMARK    3  A    between atoms: O_3  and  C_4
REMARK    4  A    between atoms: C_6  and  C_11
REMARK    5  A    between atoms: C_9  and  O_10
REMARK    6  A    between atoms: C_19  and  O_35
REMARK    7  A    between atoms: C_23  and  C_25
REMARK    8  A    between atoms: C_29  and  N_31
REMARK    9  A    between atoms: C_32  and  C_34
REMARK                            x       y       z     vdW  Elec       q    Type
REMARK                         _______ _______ _______ _____ _____    ______ ____
ROOT
ATOM      1  C   UNL     1       0.517  -5.078  -0.157  0.00  0.00    +0.112 C 
ATOM      2  C   UNL     1       0.203  -5.561  -1.577  0.00  0.00    +0.046 C 
ATOM      3  C   UNL     1       0.599  -4.471  -2.576  0.00  0.00    +0.008 C 
ATOM      4  C   UNL     1       0.302  -4.948  -3.999  0.00  0.00    +0.001 C 
ATOM      5  C   UNL     1       1.106  -6.218  -4.288  0.00  0.00    +0.003 C 
ATOM      6  C   UNL     1       0.708  -7.309  -3.292  0.00  0.00    +0.035 C 
ATOM      7  C   UNL     1       0.996  -6.838  -1.865  0.00  0.00    +0.072 C 
ATOM      8  C   UNL     1       0.583  -7.931  -0.875  0.00  0.00    +0.054 C 
ATOM      9  C   UNL     1       0.903  -7.473   0.551  0.00  0.00    +0.111 C 
ATOM     10  N   UNL     1       0.266  -6.175   0.786  0.00  0.00    -0.290 N 
ATOM     11  C   UNL     1      -0.546  -5.997   1.848  0.00  0.00    +0.247 C 
ATOM     12  O   UNL     1      -1.155  -4.954   1.978  0.00  0.00    -0.270 OA
ENDROOT
BRANCH   1  15
ATOM     13  C   UNL     1      -0.692  -1.804   1.290  0.00  0.00    +0.162 A 
ATOM     14  C   UNL     1       0.119  -2.882   0.975  0.00  0.00    +0.055 A 
ATOM     15  C   UNL     1      -0.367  -3.906   0.184  0.00  0.00    -0.023 A 
ATOM     16  C   UNL     1      -1.664  -3.858  -0.294  0.00  0.00    +0.009 A 
ATOM     17  C   UNL     1      -2.479  -2.785   0.015  0.00  0.00    +0.049 A 
ATOM     18  C   UNL     1      -1.999  -1.758   0.813  0.00  0.00    +0.158 A 
BRANCH  18  19
ATOM     19  O   UNL     1      -2.801  -0.705   1.123  0.00  0.00    -0.503 OA
ATOM     20  H   UNL     1      -2.754   0.025   0.491  0.00  0.00    +0.292 HD
ENDBRANCH  18  19
BRANCH  13  21
ATOM     21  O   UNL     1      -0.215  -0.796   2.068  0.00  0.00    -0.489 OA
BRANCH  21  23
ATOM     22  C   UNL     1       1.491   0.308   3.376  0.00  0.00    +0.048 C 
ATOM     23  C   UNL     1       1.135  -0.910   2.521  0.00  0.00    +0.226 C 
ENDBRANCH  21  23
ENDBRANCH  13  21
ENDBRANCH   1  15
BRANCH  11  24
ATOM     24  C   UNL     1      -0.695  -7.071   2.853  0.00  0.00    +0.039 A 
ATOM     25  C   UNL     1       0.314  -8.022   3.017  0.00  0.00    +0.013 A 
ATOM     26  C   UNL     1       0.172  -9.024   3.955  0.00  0.00    +0.003 A 
ATOM     27  C   UNL     1      -0.967  -9.089   4.736  0.00  0.00    +0.023 A 
ATOM     28  C   UNL     1      -1.976  -8.148   4.581  0.00  0.00    +0.034 A 
ATOM     29  C   UNL     1      -1.841  -7.134   3.644  0.00  0.00    +0.036 A 
BRANCH  28  30
ATOM     30  N   UNL     1      -3.127  -8.219   5.374  0.00  0.00    -0.286 N 
ATOM     31  C   UNL     1      -4.297  -7.738   4.908  0.00  0.00    +0.214 C 
ATOM     32  O   UNL     1      -4.372  -7.319   3.772  0.00  0.00    -0.276 OA
ATOM     33  C   UNL     1      -5.513  -7.722   5.799  0.00  0.00    +0.109 C 
ATOM     34  H   UNL     1      -3.083  -8.614   6.259  0.00  0.00    +0.155 HD
ENDBRANCH  28  30
ENDBRANCH  11  24
BRANCH   7  35
ATOM     35  O   UNL     1       2.394  -6.572  -1.729  0.00  0.00    -0.388 OA
ATOM     36  H   UNL     1       2.958  -7.340  -1.897  0.00  0.00    +0.210 HD
ENDBRANCH   7  35
TORSDOF 7
