REMARK  Name = ZINC07125752
REMARK  3 active torsions:
REMARK  status: ('A' for Active; 'I' for Inactive)
REMARK    1  A    between atoms: C_4  and  N_24
REMARK    2  A    between atoms: C_5  and  C_7
REMARK    3  A    between atoms: C_8  and  C_9
REMARK                            x       y       z     vdW  Elec       q    Type
REMARK                         _______ _______ _______ _____ _____    ______ ____
ROOT
ATOM      1  C   UNL     1       0.100  -4.330  -0.352  0.00  0.00    +0.202 C 
ATOM      2  N   UNL     1      -0.381  -4.779  -1.671  0.00  0.00    -0.295 N 
ATOM      3  C   UNL     1      -1.726  -4.857  -1.915  0.00  0.00    +0.160 C 
ATOM      4  N   UNL     1      -2.587  -5.118  -0.947  0.00  0.00    -0.302 N 
ATOM      5  C   UNL     1      -2.118  -5.248   0.315  0.00  0.00    +0.213 A 
ATOM      6  N   UNL     1      -0.820  -4.887   0.647  0.00  0.00    -0.287 N 
ATOM      7  C   UNL     1      -0.646  -5.147   1.973  0.00  0.00    +0.072 A 
ATOM      8  C   UNL     1       0.437  -5.005   2.832  0.00  0.00    +0.028 A 
ATOM      9  C   UNL     1       0.250  -5.379   4.154  0.00  0.00    +0.002 A 
ATOM     10  C   UNL     1      -0.958  -5.874   4.613  0.00  0.00    +0.002 A 
ATOM     11  C   UNL     1      -2.051  -6.026   3.779  0.00  0.00    +0.030 A 
ATOM     12  C   UNL     1      -1.886  -5.655   2.440  0.00  0.00    +0.091 A 
ATOM     13  N   UNL     1      -2.737  -5.681   1.388  0.00  0.00    -0.212 NA
ATOM     14  N   UNL     1      -2.188  -4.661  -3.188  0.00  0.00    -0.332 N 
ATOM     15  H   UNL     1       0.254  -5.018  -2.364  0.00  0.00    +0.151 HD
ATOM     16  H   UNL     1      -1.565  -4.468  -3.906  0.00  0.00    +0.145 HD
ATOM     17  H   UNL     1      -3.139  -4.714  -3.373  0.00  0.00    +0.145 HD
ATOM     18  H   UNL     1      -3.533  -5.214  -1.137  0.00  0.00    +0.171 HD
ENDROOT
BRANCH   1  20
ATOM     19  C   UNL     1       1.222  -2.158  -0.136  0.00  0.00    +0.009 C 
ATOM     20  C   UNL     1       0.086  -2.825  -0.283  0.00  0.00    +0.018 C 
BRANCH  19  25
ATOM     21  C   UNL     1       0.073   1.407  -0.414  0.00  0.00    +0.001 A 
ATOM     22  C   UNL     1       1.184   2.085   0.057  0.00  0.00    +0.002 A 
ATOM     23  C   UNL     1       2.306   1.387   0.465  0.00  0.00    +0.033 A 
ATOM     24  C   UNL     1       2.325   0.009   0.405  0.00  0.00    +0.133 A 
ATOM     25  C   UNL     1       1.209  -0.681  -0.069  0.00  0.00    +0.005 A 
ATOM     26  C   UNL     1       0.080   0.029  -0.479  0.00  0.00    +0.010 A 
BRANCH  24  27
ATOM     27  N   UNL     1       3.527  -0.736   0.842  0.00  0.00    +0.057 N 
ATOM     28  O   UNL     1       3.407  -1.785   1.432  0.00  0.00    -0.126 OA
ATOM     29  O   UNL     1       4.629  -0.296   0.609  0.00  0.00    -0.126 OA
ENDBRANCH  24  27
ENDBRANCH  19  25
ENDBRANCH   1  20
TORSDOF 3
