REMARK  Name = ZINC60275721
REMARK  7 active torsions:
REMARK  status: ('A' for Active; 'I' for Inactive)
REMARK    1  A    between atoms: C_1  and  C_2
REMARK    2  A    between atoms: C_5  and  C_7
REMARK    3  A    between atoms: C_9  and  C_29
REMARK    4  A    between atoms: C_10  and  C_12
REMARK    5  A    between atoms: C_18  and  C_21
REMARK    6  A    between atoms: C_21  and  N_22
REMARK    7  A    between atoms: C_25  and  C_28
REMARK                            x       y       z     vdW  Elec       q    Type
REMARK                         _______ _______ _______ _____ _____    ______ ____
ROOT
ATOM      1  C   UNL     1       4.827  -5.979  -0.146  0.00  0.00    +0.255 C 
ATOM      2  O   UNL     1       4.750  -7.177  -0.348  0.00  0.00    -0.269 OA
ATOM      3  N   UNL     1       6.030  -5.372  -0.139  0.00  0.00    -0.297 N 
ATOM      4  C   UNL     1       6.134  -3.918   0.042  0.00  0.00    +0.108 C 
ATOM      5  C   UNL     1       6.957  -3.335  -1.111  0.00  0.00    +0.019 C 
ATOM      6  C   UNL     1       8.304  -4.057  -1.187  0.00  0.00    +0.005 C 
ATOM      7  C   UNL     1       8.073  -5.544  -1.462  0.00  0.00    -0.010 C 
ATOM      8  C   UNL     1       7.263  -6.153  -0.308  0.00  0.00    +0.109 C 
ENDROOT
BRANCH   1  12
ATOM      9  C   UNL     1       1.609  -3.567   0.806  0.00  0.00    +0.144 A 
ATOM     10  N   UNL     1       1.414  -4.481  -0.143  0.00  0.00    -0.240 NA
ATOM     11  C   UNL     1       2.364  -5.290  -0.516  0.00  0.00    +0.058 A 
ATOM     12  C   UNL     1       3.611  -5.198   0.090  0.00  0.00    +0.097 A 
ATOM     13  S   UNL     1       3.321  -3.854   1.234  0.00  0.00    -0.059 S 
ATOM     14  C   UNL     1       2.114  -6.315  -1.593  0.00  0.00    +0.067 C 
BRANCH   9  19
ATOM     15  C   UNL     1      -0.262   0.172   3.568  0.00  0.00    +0.086 C 
ATOM     16  C   UNL     1      -0.158  -0.943   2.559  0.00  0.00    +0.103 A 
ATOM     17  C   UNL     1      -1.152  -1.368   1.752  0.00  0.00    +0.045 A 
ATOM     18  C   UNL     1      -0.633  -2.418   0.974  0.00  0.00    +0.052 A 
ATOM     19  C   UNL     1       0.668  -2.580   1.352  0.00  0.00    +0.160 A 
ATOM     20  O   UNL     1       0.940  -1.673   2.312  0.00  0.00    -0.458 OA
ENDBRANCH   9  19
ENDBRANCH   1  12
BRANCH   7  21
ATOM     21  C   UNL     1       9.422  -6.259  -1.571  0.00  0.00    -0.074 C 
BRANCH  21  22
ATOM     22  N   UNL     1       9.201  -7.671  -1.908  0.00  0.00    +0.380 N 
ATOM     23  C   UNL     1      10.493  -8.366  -1.966  0.00  0.00    -0.079 C 
ATOM     24  C   UNL     1      10.264  -9.855  -2.237  0.00  0.00    -0.016 C 
ATOM     25  C   UNL     1       9.534 -10.018  -3.574  0.00  0.00    -0.018 C 
ATOM     26  C   UNL     1       8.223  -9.228  -3.528  0.00  0.00    -0.016 C 
ATOM     27  C   UNL     1       8.528  -7.763  -3.209  0.00  0.00    -0.079 C 
ATOM     28  C   UNL     1       9.231 -11.499  -3.813  0.00  0.00    +0.007 C 
ATOM     29  H   UNL     1       8.623  -8.099  -1.200  0.00  0.00    -0.082 HD
ENDBRANCH  21  22
ENDBRANCH   7  21
TORSDOF 4
