REMARK  Name = ZINC03653682
REMARK  5 active torsions:
REMARK  status: ('A' for Active; 'I' for Inactive)
REMARK    1  A    between atoms: C_6  and  N_7
REMARK    2  A    between atoms: N_7  and  S_8
REMARK    3  A    between atoms: S_8  and  C_11
REMARK    4  A    between atoms: C_14  and  O_20
REMARK    5  A    between atoms: C_15  and  C_17
REMARK                            x       y       z     vdW  Elec       q    Type
REMARK                         _______ _______ _______ _____ _____    ______ ____
ROOT
ATOM      1  S   UNL     1      -2.437  -0.291  -0.990  0.00  0.00    +0.072 S 
ATOM      2  O   UNL     1      -3.485  -1.226  -0.771  0.00  0.00    -0.150 OA
ATOM      3  O   UNL     1      -2.618   1.109  -0.821  0.00  0.00    -0.150 OA
ENDROOT
BRANCH   1   4
ATOM      4  C   UNL     1      -1.886  -0.531  -2.646  0.00  0.00    +0.110 A 
ATOM      5  C   UNL     1      -1.246   0.500  -3.316  0.00  0.00    +0.032 A 
ATOM      6  C   UNL     1      -0.809   0.325  -4.614  0.00  0.00    +0.048 A 
ATOM      7  C   UNL     1      -1.008  -0.887  -5.257  0.00  0.00    +0.131 A 
ATOM      8  C   UNL     1      -1.655  -1.934  -4.583  0.00  0.00    +0.106 A 
ATOM      9  C   UNL     1      -2.087  -1.744  -3.266  0.00  0.00    +0.047 A 
BRANCH   8  10
ATOM     10  C   UNL     1      -1.872  -3.225  -5.254  0.00  0.00    +0.390 C 
ATOM     11  O   UNL     1      -2.436  -4.135  -4.662  0.00  0.00    -0.240 OA
ATOM     12  O   UNL     1      -1.489  -3.389  -6.404  0.00  0.00    -0.240 OA
ENDBRANCH   8  10
BRANCH   7  13
ATOM     13  O   UNL     1      -0.581  -1.060  -6.532  0.00  0.00    -0.506 OA
ATOM     14  H   UNL     1       0.323  -1.398  -6.602  0.00  0.00    +0.292 HD
ENDBRANCH   7  13
ENDBRANCH   1   4
BRANCH   1  15
ATOM     15  N   UNL     1      -1.193  -0.732   0.010  0.00  0.00    -0.216 N 
ATOM     16  H   UNL     1      -1.292  -1.494   0.601  0.00  0.00    +0.174 HD
BRANCH  15  22
ATOM     17  C   UNL     1      -0.017   1.386   0.010  0.00  0.00    +0.028 A 
ATOM     18  C   UNL     1       1.149   2.114   0.002  0.00  0.00    +0.049 A 
ATOM     19  C   UNL     1       2.400   1.478  -0.013  0.00  0.00    +0.146 A 
ATOM     20  C   UNL     1       2.387   0.075  -0.020  0.00  0.00    +0.063 A 
ATOM     21  C   UNL     1       1.229  -0.659  -0.013  0.00  0.00    +0.043 A 
ATOM     22  C   UNL     1       0.002  -0.004   0.002  0.00  0.00    +0.049 A 
ATOM     23  S   UNL     1       4.117  -0.335  -0.038  0.00  0.00    -0.004 S 
ATOM     24  C   UNL     1       4.747   1.337  -0.035  0.00  0.00    +0.379 A 
ATOM     25  O   UNL     1       5.902   1.720  -0.044  0.00  0.00    -0.237 OA
ATOM     26  O   UNL     1       3.615   2.064  -0.021  0.00  0.00    -0.417 OA
ENDBRANCH  15  22
ENDBRANCH   1  15
TORSDOF 5
