REMARK  Name = ZINC09349422
REMARK  7 active torsions:
REMARK  status: ('A' for Active; 'I' for Inactive)
REMARK    1  A    between atoms: C_1  and  C_2
REMARK    2  A    between atoms: N_6  and  C_7
REMARK    3  A    between atoms: C_7  and  C_15
REMARK    4  A    between atoms: C_8  and  C_9
REMARK    5  A    between atoms: N_17  and  C_18
REMARK    6  A    between atoms: N_17  and  C_25
REMARK    7  A    between atoms: C_18  and  C_19
REMARK                            x       y       z     vdW  Elec       q    Type
REMARK                         _______ _______ _______ _____ _____    ______ ____
ROOT
ATOM      1  C   UNL     1      -1.114  -0.508   0.055  0.00  0.00    +0.265 C 
ATOM      2  O   UNL     1      -0.232   0.306   0.252  0.00  0.00    -0.268 OA
ATOM      3  N   UNL     1      -2.293  -0.112  -0.465  0.00  0.00    -0.289 N 
ENDROOT
BRANCH   3   4
ATOM      4  C   UNL     1      -2.562   1.313  -0.667  0.00  0.00    +0.099 C 
ATOM      5  C   UNL     1      -1.527   1.905  -1.638  0.00  0.00    +0.046 C 
ATOM      6  C   UNL     1      -1.600   3.451  -1.610  0.00  0.00    +0.168 C 
ATOM      7  S   UNL     1      -2.208   3.796   0.092  0.00  0.00    -0.029 S 
ATOM      8  O   UNL     1      -3.475   4.433   0.010  0.00  0.00    -0.174 OA
ATOM      9  O   UNL     1      -1.165   4.405   0.841  0.00  0.00    -0.174 OA
ATOM     10  C   UNL     1      -2.443   2.068   0.688  0.00  0.00    +0.188 C 
ENDBRANCH   3   4
BRANCH   1  11
ATOM     11  C   UNL     1      -0.894  -1.923   0.385  0.00  0.00    +0.131 C 
ATOM     12  C   UNL     1      -0.017  -2.263   1.356  0.00  0.00    +0.041 C 
BRANCH  11  18
ATOM     13  C   UNL     1      -0.055  -3.157  -2.329  0.00  0.00    +0.090 C 
ATOM     14  C   UNL     1      -1.263  -3.484  -1.490  0.00  0.00    +0.154 A 
ATOM     15  N   UNL     1      -2.186  -4.366  -1.771  0.00  0.00    -0.113 NA
ATOM     16  N   UNL     1      -3.078  -4.398  -0.848  0.00  0.00    -0.023 NA
ATOM     17  N   UNL     1      -2.788  -3.553   0.081  0.00  0.00    -0.039 NA
ATOM     18  N   UNL     1      -1.594  -2.920  -0.308  0.00  0.00    -0.192 N 
ENDBRANCH  11  18
BRANCH  12  19
ATOM     19  C   UNL     1       0.212  -3.680   1.678  0.00  0.00    -0.023 A 
ATOM     20  C   UNL     1      -0.866  -4.569   1.740  0.00  0.00    +0.008 A 
ATOM     21  C   UNL     1      -0.644  -5.897   2.037  0.00  0.00    +0.001 A 
ATOM     22  C   UNL     1       0.641  -6.349   2.284  0.00  0.00    +0.000 A 
ATOM     23  C   UNL     1       1.712  -5.474   2.232  0.00  0.00    +0.001 A 
ATOM     24  C   UNL     1       1.507  -4.144   1.930  0.00  0.00    +0.008 A 
ENDBRANCH  12  19
ENDBRANCH   1  11
BRANCH   3  25
ATOM     25  C   UNL     1      -3.304  -1.108  -0.828  0.00  0.00    +0.140 C 
BRANCH  25  26
ATOM     26  C   UNL     1      -4.178  -1.414   0.390  0.00  0.00    +0.136 C 
ATOM     27  C   UNL     1      -5.305  -2.389  -0.005  0.00  0.00    +0.035 C 
ATOM     28  C   UNL     1      -5.095  -3.608   0.926  0.00  0.00    +0.031 C 
ATOM     29  C   UNL     1      -4.260  -2.996   2.079  0.00  0.00    +0.160 C 
ATOM     30  O   UNL     1      -3.391  -2.056   1.408  0.00  0.00    -0.375 OA
ENDBRANCH  25  26
ENDBRANCH   3  25
TORSDOF 6
