REMARK  Name = ZINC01364308
REMARK  6 active torsions:
REMARK  status: ('A' for Active; 'I' for Inactive)
REMARK    1  A    between atoms: C_1  and  C_2
REMARK    2  A    between atoms: C_2  and  C_4
REMARK    3  A    between atoms: C_7  and  S_10
REMARK    4  A    between atoms: S_10  and  N_13
REMARK    5  A    between atoms: C_17  and  C_20
REMARK    6  A    between atoms: C_22  and  C_25
REMARK                            x       y       z     vdW  Elec       q    Type
REMARK                         _______ _______ _______ _____ _____    ______ ____
ROOT
ATOM      1  N   UNL     1       1.553   2.269  -0.001  0.00  0.00    -0.176 NA
ATOM      2  C   UNL     1       2.276   2.499   1.258  0.00  0.00    +0.109 C 
ATOM      3  C   UNL     1       3.581   1.690   1.227  0.00  0.00    +0.018 C 
ATOM      4  C   UNL     1       4.374   2.059  -0.028  0.00  0.00    +0.015 C 
ATOM      5  C   UNL     1       3.557   1.703  -1.273  0.00  0.00    +0.093 C 
ATOM      6  C   UNL     1       2.253   2.507  -1.270  0.00  0.00    +0.122 C 
ENDROOT
BRANCH   5   7
ATOM      7  C   UNL     1       4.352   2.037  -2.509  0.00  0.00    +0.232 A 
ATOM      8  N   UNL     1       4.726   1.198  -3.442  0.00  0.00    -0.191 NA
ATOM      9  C   UNL     1       5.408   1.941  -4.346  0.00  0.00    +0.209 A 
ATOM     10  N   UNL     1       5.413   3.175  -3.905  0.00  0.00    -0.056 NA
ATOM     11  O   UNL     1       4.811   3.244  -2.854  0.00  0.00    -0.337 OA
BRANCH   9  12
ATOM     12  C   UNL     1       6.034   1.451  -5.591  0.00  0.00    +0.060 A 
ATOM     13  C   UNL     1       6.736   2.150  -6.537  0.00  0.00    +0.019 A 
ATOM     14  C   UNL     1       7.231   1.473  -7.628  0.00  0.00    +0.008 A 
ATOM     15  C   UNL     1       7.010   0.137  -7.735  0.00  0.00    +0.046 A 
ATOM     16  S   UNL     1       6.077  -0.207  -6.252  0.00  0.00    -0.093 S 
ENDBRANCH   9  12
ENDBRANCH   5   7
BRANCH   1  17
ATOM     17  S   UNL     1      -0.022   1.758   0.012  0.00  0.00    +0.061 S 
ATOM     18  O   UNL     1      -0.590   2.163  -1.226  0.00  0.00    -0.153 OA
ATOM     19  O   UNL     1      -0.566   2.150   1.264  0.00  0.00    -0.153 OA
BRANCH  17  23
ATOM     20  C   UNL     1       0.038  -2.774  -0.013  0.00  0.00    +0.017 A 
ATOM     21  C   UNL     1       0.041  -2.078   1.200  0.00  0.00    +0.013 A 
ATOM     22  C   UNL     1       0.023  -0.699   1.199  0.00  0.00    +0.029 A 
ATOM     23  C   UNL     1       0.002  -0.004   0.002  0.00  0.00    +0.106 A 
ATOM     24  C   UNL     1      -0.006  -0.686  -1.202  0.00  0.00    +0.029 A 
ATOM     25  C   UNL     1       0.018  -2.065  -1.218  0.00  0.00    +0.013 A 
BRANCH  20  27
ATOM     26  C   UNL     1       0.054  -4.992  -1.330  0.00  0.00    +0.091 C 
ATOM     27  C   UNL     1       0.057  -4.245  -0.021  0.00  0.00    +0.160 C 
ATOM     28  O   UNL     1       0.074  -4.857   1.025  0.00  0.00    -0.292 OA
ENDBRANCH  20  27
ENDBRANCH  17  23
ENDBRANCH   1  17
TORSDOF 5
