REMARK  Name = ZINC63314398
REMARK  5 active torsions:
REMARK  status: ('A' for Active; 'I' for Inactive)
REMARK    1  A    between atoms: C_1  and  C_2
REMARK    2  A    between atoms: C_6  and  C_26
REMARK    3  A    between atoms: N_8  and  C_15
REMARK    4  A    between atoms: C_15  and  C_16
REMARK    5  A    between atoms: C_16  and  C_17
REMARK                            x       y       z     vdW  Elec       q    Type
REMARK                         _______ _______ _______ _____ _____    ______ ____
ROOT
ATOM      1  C   UNL     1      -0.019   1.526   0.010  0.00  0.00    +0.035 C 
ATOM      2  C   UNL     1       0.002  -0.004   0.002  0.00  0.00    +0.132 C 
ATOM      3  C   UNL     1       0.763  -0.529  -1.237  0.00  0.00    +0.075 C 
ATOM      4  C   UNL     1      -0.235  -1.195  -2.202  0.00  0.00    +0.115 C 
ATOM      5  N   UNL     1      -0.446  -2.553  -1.692  0.00  0.00    -0.292 N 
ATOM      6  C   UNL     1       0.510  -2.901  -0.817  0.00  0.00    +0.243 C 
ATOM      7  O   UNL     1       0.584  -3.981  -0.270  0.00  0.00    -0.273 OA
ATOM      8  C   UNL     1       1.495  -1.754  -0.605  0.00  0.00    +0.220 C 
ATOM      9  N   UNL     1       1.552  -1.418   0.825  0.00  0.00    -0.179 NA
ATOM     10  N   UNL     1       0.776  -0.515   1.142  0.00  0.00    -0.188 NA
ENDROOT
BRANCH   4  11
ATOM     11  C   UNL     1      -1.536  -0.434  -2.210  0.00  0.00    -0.008 A 
ATOM     12  C   UNL     1      -2.574  -0.833  -1.388  0.00  0.00    +0.008 A 
ATOM     13  C   UNL     1      -3.768  -0.136  -1.394  0.00  0.00    +0.020 A 
ATOM     14  C   UNL     1      -3.924   0.962  -2.222  0.00  0.00    +0.042 A 
ATOM     15  C   UNL     1      -2.886   1.361  -3.044  0.00  0.00    +0.040 A 
ATOM     16  C   UNL     1      -1.690   0.666  -3.034  0.00  0.00    +0.047 A 
ATOM     17 CL   UNL     1      -0.384   1.170  -4.061  0.00  0.00    -0.083 Cl
ATOM     18 CL   UNL     1      -5.423   1.837  -2.230  0.00  0.00    -0.083 Cl
ENDBRANCH   4  11
BRANCH   5  19
ATOM     19  C   UNL     1      -1.559  -3.420  -2.088  0.00  0.00    +0.113 C 
BRANCH  19  20
ATOM     20  C   UNL     1      -1.150  -4.251  -3.305  0.00  0.00    +0.052 C 
BRANCH  20  21
ATOM     21  C   UNL     1      -2.295  -5.143  -3.712  0.00  0.00    -0.040 C 
ATOM     22  C   UNL     1      -3.228  -4.888  -4.658  0.00  0.00    -0.001 A 
ATOM     23  C   UNL     1      -3.449  -3.748  -5.555  0.00  0.00    +0.010 A 
ATOM     24  C   UNL     1      -4.493  -3.781  -6.413  0.00  0.00    +0.001 A 
ATOM     25  C   UNL     1      -5.368  -4.875  -6.467  0.00  0.00    +0.002 A 
ATOM     26  C   UNL     1      -5.231  -5.959  -5.675  0.00  0.00    +0.026 A 
ATOM     27  C   UNL     1      -4.166  -6.031  -4.734  0.00  0.00    +0.043 A 
ATOM     28  N   UNL     1      -3.826  -6.956  -3.870  0.00  0.00    -0.380 N 
ATOM     29  C   UNL     1      -2.629  -6.507  -3.150  0.00  0.00    +0.144 C 
ATOM     30  H   UNL     1      -4.287  -7.798  -3.732  0.00  0.00    +0.160 HD
ENDBRANCH  20  21
ENDBRANCH  19  20
ENDBRANCH   5  19
TORSDOF 4
