REMARK  Name = ZINC36302593
REMARK  19 active torsions:
REMARK  status: ('A' for Active; 'I' for Inactive)
REMARK    1  A    between atoms: C_1  and  C_2
REMARK    2  A    between atoms: C_2  and  C_3
REMARK    3  A    between atoms: C_4  and  C_23
REMARK    4  A    between atoms: C_5  and  O_14
REMARK    5  A    between atoms: N_6  and  C_8
REMARK    6  A    between atoms: O_14  and  C_15
REMARK    7  A    between atoms: C_19  and  O_21
REMARK    8  A    between atoms: O_21  and  C_22
REMARK    9  A    between atoms: C_23  and  N_24
REMARK   10  A    between atoms: N_24  and  C_25
REMARK   11  A    between atoms: N_24  and  C_35
REMARK   12  A    between atoms: C_25  and  C_26
REMARK   13  A    between atoms: C_26  and  C_28
REMARK   14  A    between atoms: C_26  and  O_34
REMARK   15  A    between atoms: C_28  and  O_29
REMARK   16  A    between atoms: O_29  and  C_30
REMARK   17  A    between atoms: C_30  and  C_31
REMARK   18  A    between atoms: C_31  and  C_32
REMARK   19  A    between atoms: C_31  and  C_33
REMARK                            x       y       z     vdW  Elec       q    Type
REMARK                         _______ _______ _______ _____ _____    ______ ____
ROOT
ATOM      1  C   UNL     1       0.564  -0.756   1.363  0.00  0.00    +0.068 A 
ATOM      2  C   UNL     1       1.877  -0.713   0.886  0.00  0.00    +0.021 A 
ATOM      3  C   UNL     1       2.707  -1.009   1.922  0.00  0.00    +0.225 A 
ATOM      4  N   UNL     1       1.931  -1.231   3.017  0.00  0.00    -0.200 N 
ATOM      5  N   UNL     1       0.594  -1.060   2.635  0.00  0.00    -0.168 NA
ENDROOT
BRANCH   4   6
ATOM      6  C   UNL     1       2.388  -1.566   4.299  0.00  0.00    +0.069 A 
ATOM      7  C   UNL     1       3.418  -2.483   4.453  0.00  0.00    +0.028 A 
ATOM      8  C   UNL     1       3.867  -2.811   5.717  0.00  0.00    +0.002 A 
ATOM      9  C   UNL     1       3.290  -2.226   6.830  0.00  0.00    +0.000 A 
ATOM     10  C   UNL     1       2.263  -1.312   6.680  0.00  0.00    +0.002 A 
ATOM     11  C   UNL     1       1.815  -0.976   5.418  0.00  0.00    +0.028 A 
ENDBRANCH   4   6
BRANCH   1  13
ATOM     12  C   UNL     1      -0.993   1.006   0.575  0.00  0.00    +0.010 C 
ATOM     13  C   UNL     1      -0.677  -0.491   0.550  0.00  0.00    +0.054 C 
ENDBRANCH   1  13
BRANCH   3  14
ATOM     14  O   UNL     1       4.062  -1.072   1.873  0.00  0.00    -0.438 OA
BRANCH  14  15
ATOM     15  C   UNL     1       4.632  -2.233   1.455  0.00  0.00    +0.134 A 
ATOM     16  C   UNL     1       3.835  -3.271   0.993  0.00  0.00    +0.046 A 
ATOM     17  C   UNL     1       4.414  -4.451   0.569  0.00  0.00    +0.007 A 
ATOM     18  C   UNL     1       5.787  -4.602   0.604  0.00  0.00    +0.046 A 
ATOM     19  C   UNL     1       6.588  -3.567   1.066  0.00  0.00    +0.124 A 
ATOM     20  C   UNL     1       6.011  -2.379   1.486  0.00  0.00    +0.092 A 
BRANCH  19  21
ATOM     21  O   UNL     1       7.939  -3.716   1.101  0.00  0.00    -0.495 OA
ATOM     22  C   UNL     1       8.466  -4.965   0.648  0.00  0.00    +0.277 C 
ENDBRANCH  19  21
ENDBRANCH  14  15
ENDBRANCH   3  14
BRANCH   2  23
ATOM     23  C   UNL     1       2.299  -0.396  -0.525  0.00  0.00    -0.035 C 
BRANCH  23  24
ATOM     24  N   UNL     1       2.461   1.056  -0.674  0.00  0.00    +0.386 N 
ATOM     25  H   UNL     1       1.612   1.520  -0.387  0.00  0.00    -0.081 HD
BRANCH  24  26
ATOM     26  C   UNL     1       2.743   1.377  -2.079  0.00  0.00    -0.068 C 
ATOM     27  C   UNL     1       1.966   2.535  -2.709  0.00  0.00    -0.017 C 
ATOM     28  C   UNL     1       1.642   1.093  -3.103  0.00  0.00    -0.017 C 
ENDBRANCH  24  26
BRANCH  24  29
ATOM     29  C   UNL     1       3.576   1.513   0.166  0.00  0.00    -0.044 C 
BRANCH  29  30
ATOM     30  C   UNL     1       3.666   3.039   0.109  0.00  0.00    +0.124 C 
BRANCH  30  31
ATOM     31  O   UNL     1       2.493   3.608   0.696  0.00  0.00    -0.391 OA
ATOM     32  H   UNL     1       2.359   3.364   1.622  0.00  0.00    +0.210 HD
ENDBRANCH  30  31
BRANCH  30  33
ATOM     33  C   UNL     1       4.901   3.507   0.882  0.00  0.00    +0.189 C 
BRANCH  33  34
ATOM     34  O   UNL     1       5.050   4.920   0.732  0.00  0.00    -0.377 OA
BRANCH  34  35
ATOM     35  C   UNL     1       6.180   5.462   1.418  0.00  0.00    +0.163 C 
BRANCH  35  36
ATOM     36  C   UNL     1       6.240   6.973   1.189  0.00  0.00    +0.009 C 
ATOM     37  C   UNL     1       5.020   7.636   1.832  0.00  0.00    +0.009 C 
ATOM     38  C   UNL     1       7.516   7.535   1.819  0.00  0.00    +0.009 C 
ENDBRANCH  35  36
ENDBRANCH  34  35
ENDBRANCH  33  34
ENDBRANCH  30  33
ENDBRANCH  29  30
ENDBRANCH  24  29
ENDBRANCH  23  24
ENDBRANCH   2  23
TORSDOF 15
