REMARK  Name = ZINC40404849
REMARK  13 active torsions:
REMARK  status: ('A' for Active; 'I' for Inactive)
REMARK    1  A    between atoms: C_1  and  O_2
REMARK    2  A    between atoms: O_2  and  C_3
REMARK    3  A    between atoms: C_8  and  C_9
REMARK    4  A    between atoms: C_18  and  C_20
REMARK    5  A    between atoms: C_20  and  N_21
REMARK    6  A    between atoms: N_21  and  C_22
REMARK    7  A    between atoms: N_21  and  C_31
REMARK    8  A    between atoms: C_22  and  C_23
REMARK    9  A    between atoms: C_23  and  C_25
REMARK   10  A    between atoms: C_23  and  O_30
REMARK   11  A    between atoms: C_25  and  O_26
REMARK   12  A    between atoms: O_26  and  C_27
REMARK   13  A    between atoms: C_27  and  C_28
REMARK                            x       y       z     vdW  Elec       q    Type
REMARK                         _______ _______ _______ _____ _____    ______ ____
ROOT
ATOM      1  C   UNL     1      -1.445   0.049  -1.619  0.00  0.00    +0.007 A 
ATOM      2  C   UNL     1      -2.758  -0.284  -1.637  0.00  0.00    +0.056 A 
ATOM      3  S   UNL     1      -2.855  -1.507  -2.930  0.00  0.00    -0.076 S 
ATOM      4  C   UNL     1      -1.148  -1.542  -3.411  0.00  0.00    +0.116 A 
ATOM      5  C   UNL     1      -0.543  -0.601  -2.562  0.00  0.00    +0.080 A 
ATOM      6  C   UNL     1       0.865  -0.419  -2.741  0.00  0.00    +0.260 A 
ATOM      7  O   UNL     1       1.480   0.373  -2.048  0.00  0.00    -0.267 OA
ATOM      8  N   UNL     1       1.501  -1.136  -3.686  0.00  0.00    -0.312 N 
ATOM      9  H   UNL     1       2.455  -1.017  -3.812  0.00  0.00    +0.170 HD
ATOM     10  C   UNL     1       0.832  -2.023  -4.467  0.00  0.00    +0.094 A 
ATOM     11  N   UNL     1      -0.451  -2.219  -4.321  0.00  0.00    -0.229 NA
ENDROOT
BRANCH   1  17
ATOM     12  C   UNL     1      -0.418   2.272  -1.129  0.00  0.00    +0.128 A 
ATOM     13  C   UNL     1       0.050   3.213  -0.226  0.00  0.00    +0.046 A 
ATOM     14  C   UNL     1       0.011   2.951   1.131  0.00  0.00    +0.004 A 
ATOM     15  C   UNL     1      -0.495   1.750   1.596  0.00  0.00    +0.001 A 
ATOM     16  C   UNL     1      -0.965   0.804   0.708  0.00  0.00    +0.012 A 
ATOM     17  C   UNL     1      -0.936   1.060  -0.661  0.00  0.00    +0.025 A 
BRANCH  12  19
ATOM     18  C   UNL     1       0.161   3.788  -2.866  0.00  0.00    +0.277 C 
ATOM     19  O   UNL     1      -0.381   2.529  -2.462  0.00  0.00    -0.495 OA
ENDBRANCH  12  19
ENDBRANCH   1  17
BRANCH  10  20
ATOM     20  C   UNL     1       1.586  -2.805  -5.512  0.00  0.00    -0.003 C 
BRANCH  20  21
ATOM     21  N   UNL     1       0.701  -3.821  -6.096  0.00  0.00    +0.388 N 
ATOM     22  H   UNL     1      -0.236  -3.453  -6.164  0.00  0.00    -0.081 HD
BRANCH  21  23
ATOM     23  C   UNL     1       0.697  -5.016  -5.242  0.00  0.00    -0.068 C 
ATOM     24  C   UNL     1       2.115  -5.586  -5.155  0.00  0.00    -0.015 C 
ATOM     25  C   UNL     1       2.111  -6.830  -4.265  0.00  0.00    -0.002 C 
ATOM     26  C   UNL     1       1.626  -6.453  -2.863  0.00  0.00    -0.000 C 
ATOM     27  C   UNL     1       0.208  -5.884  -2.950  0.00  0.00    -0.002 C 
ATOM     28  C   UNL     1       0.212  -4.639  -3.840  0.00  0.00    -0.015 C 
ENDBRANCH  21  23
BRANCH  21  29
ATOM     29  C   UNL     1       1.184  -4.180  -7.436  0.00  0.00    -0.044 C 
BRANCH  29  30
ATOM     30  C   UNL     1       0.206  -5.161  -8.086  0.00  0.00    +0.124 C 
BRANCH  30  31
ATOM     31  O   UNL     1      -1.086  -4.557  -8.175  0.00  0.00    -0.391 OA
ATOM     32  H   UNL     1      -1.105  -3.745  -8.701  0.00  0.00    +0.210 HD
ENDBRANCH  30  31
BRANCH  30  33
ATOM     33  C   UNL     1       0.700  -5.520  -9.489  0.00  0.00    +0.190 C 
BRANCH  33  34
ATOM     34  O   UNL     1      -0.149  -6.523 -10.050  0.00  0.00    -0.365 OA
BRANCH  34  35
ATOM     35  C   UNL     1       0.227  -6.932 -11.367  0.00  0.00    +0.248 C 
BRANCH  35  36
ATOM     36  C   UNL     1      -0.709  -7.962 -11.846  0.00  0.00    -0.077 C 
ATOM     37  C   UNL     1      -1.455  -8.784 -12.229  0.00  0.00    +0.006 C 
ENDBRANCH  35  36
ENDBRANCH  34  35
ENDBRANCH  33  34
ENDBRANCH  30  33
ENDBRANCH  29  30
ENDBRANCH  21  29
ENDBRANCH  20  21
ENDBRANCH  10  20
TORSDOF 12
