REMARK  Name = ZINC19168431
REMARK  5 active torsions:
REMARK  status: ('A' for Active; 'I' for Inactive)
REMARK    1  A    between atoms: C_1  and  C_2
REMARK    2  A    between atoms: C_12  and  C_15
REMARK    3  A    between atoms: C_20  and  N_31
REMARK    4  A    between atoms: N_22  and  C_25
REMARK    5  A    between atoms: N_31  and  N_32
REMARK                            x       y       z     vdW  Elec       q    Type
REMARK                         _______ _______ _______ _____ _____    ______ ____
ROOT
ATOM      1  C   UNL     1      -0.386  -2.768   4.848  0.00  0.00    +0.035 C 
ATOM      2  C   UNL     1      -0.227  -4.141   4.968  0.00  0.00    +0.100 C 
ATOM      3  C   UNL     1       0.047  -4.989   3.794  0.00  0.00    +0.251 C 
ATOM      4  O   UNL     1      -0.118  -4.558   2.668  0.00  0.00    -0.270 OA
ATOM      5  N   UNL     1       0.483  -6.245   3.988  0.00  0.00    -0.279 N 
ATOM      6  C   UNL     1       0.759  -6.800   5.301  0.00  0.00    +0.255 C 
ATOM      7  N   UNL     1       0.122  -6.077   6.388  0.00  0.00    -0.234 N 
ATOM      8  C   UNL     1      -0.320  -4.815   6.274  0.00  0.00    +0.258 C 
ATOM      9  O   UNL     1      -0.794  -4.238   7.235  0.00  0.00    -0.269 OA
ATOM     10  H   UNL     1       0.620  -6.809   3.211  0.00  0.00    +0.152 HD
ENDROOT
BRANCH   1  22
ATOM     11  C   UNL     1      -0.939   0.409  -0.770  0.00  0.00    +0.046 C 
ATOM     12  C   UNL     1       0.272  -0.220  -0.128  0.00  0.00    -0.026 A 
ATOM     13  C   UNL     1       1.496  -0.155  -0.757  0.00  0.00    +0.005 A 
ATOM     14  C   UNL     1       2.619  -0.729  -0.180  0.00  0.00    +0.001 A 
ATOM     15  C   UNL     1       2.524  -1.372   1.035  0.00  0.00    +0.014 A 
ATOM     16  C   UNL     1       1.291  -1.444   1.682  0.00  0.00    +0.046 A 
ATOM     17  C   UNL     1       0.153  -0.860   1.102  0.00  0.00    +0.056 A 
ATOM     18  N   UNL     1      -1.070  -0.923   1.740  0.00  0.00    -0.321 N 
ATOM     19  H   UNL     1      -1.838  -0.514   1.312  0.00  0.00    +0.169 HD
ATOM     20  C   UNL     1      -1.241  -1.528   2.927  0.00  0.00    +0.260 A 
ATOM     21  O   UNL     1      -2.468  -1.547   3.481  0.00  0.00    -0.267 OA
ATOM     22  C   UNL     1      -0.178  -2.141   3.604  0.00  0.00    +0.087 A 
ATOM     23  C   UNL     1       1.156  -2.127   2.984  0.00  0.00    +0.200 A 
ATOM     24  O   UNL     1       2.114  -2.646   3.529  0.00  0.00    -0.286 OA
ENDBRANCH   1  22
BRANCH   7  25
ATOM     25  C   UNL     1      -0.033  -6.727   7.616  0.00  0.00    +0.040 A 
ATOM     26  C   UNL     1      -0.885  -7.818   7.724  0.00  0.00    +0.023 A 
ATOM     27  C   UNL     1      -1.035  -8.458   8.938  0.00  0.00    +0.002 A 
ATOM     28  C   UNL     1      -0.338  -8.014  10.047  0.00  0.00    +0.000 A 
ATOM     29  C   UNL     1       0.512  -6.928   9.943  0.00  0.00    +0.002 A 
ATOM     30  C   UNL     1       0.670  -6.287   8.730  0.00  0.00    +0.023 A 
ENDBRANCH   7  25
BRANCH   6  31
ATOM     31  N   UNL     1       2.211  -6.787   5.520  0.00  0.00    -0.223 NA
ATOM     32  H   UNL     1       2.681  -7.389   4.861  0.00  0.00    +0.144 HD
BRANCH  31  33
ATOM     33  N   UNL     1       2.736  -5.433   5.455  0.00  0.00    -0.268 NA
ATOM     34  H   UNL     1       2.266  -4.831   6.114  0.00  0.00    +0.137 HD
ATOM     35  H   UNL     1       3.734  -5.425   5.606  0.00  0.00    +0.137 HD
ENDBRANCH  31  33
ENDBRANCH   6  31
TORSDOF 4
