REMARK  Name = ZINC27106604
REMARK  10 active torsions:
REMARK  status: ('A' for Active; 'I' for Inactive)
REMARK    1  A    between atoms: C_1  and  C_2
REMARK    2  A    between atoms: C_2  and  C_3
REMARK    3  A    between atoms: C_3  and  C_5
REMARK    4  A    between atoms: C_3  and  N_6
REMARK    5  A    between atoms: C_7  and  C_9
REMARK    6  A    between atoms: C_9  and  C_11
REMARK    7  A    between atoms: C_9  and  N_12
REMARK    8  A    between atoms: N_15  and  C_18
REMARK    9  A    between atoms: C_19  and  C_28
REMARK   10  A    between atoms: C_21  and  C_23
REMARK                            x       y       z     vdW  Elec       q    Type
REMARK                         _______ _______ _______ _____ _____    ______ ____
ROOT
ATOM      1  N   UNL     1       0.746  -0.488   1.173  0.00  0.00    +0.389 N 
ATOM      2  C   UNL     1       0.002  -0.004   0.002  0.00  0.00    -0.058 C 
ATOM      3  C   UNL     1      -0.019   1.526   0.010  0.00  0.00    +0.089 C 
ATOM      4  N   UNL     1       1.361   2.032   0.000  0.00  0.00    -0.303 N 
ATOM      5  C   UNL     1       2.105   1.549   1.171  0.00  0.00    +0.089 C 
ATOM      6  C   UNL     1       2.126   0.018   1.163  0.00  0.00    -0.058 C 
ATOM      7  H   UNL     1       0.249  -0.101   2.075  0.00  0.00    -0.081 HD
ENDROOT
BRANCH   4   8
ATOM      8  C   UNL     1       1.382   3.409  -0.064  0.00  0.00    +0.227 A 
ATOM      9  C   UNL     1       2.507   4.219  -0.086  0.00  0.00    +0.201 A 
ATOM     10  N   UNL     1       2.068   5.504  -0.155  0.00  0.00    -0.194 NA
ATOM     11  C   UNL     1       0.757   5.498  -0.167  0.00  0.00    +0.266 A 
ATOM     12  O   UNL     1       0.314   4.226  -0.113  0.00  0.00    -0.417 OA
BRANCH  11  13
ATOM     13  C   UNL     1      -0.096   6.692  -0.231  0.00  0.00    +0.189 A 
ATOM     14  C   UNL     1       0.337   7.984  -0.287  0.00  0.00    +0.055 A 
ATOM     15  C   UNL     1      -0.813   8.795  -0.336  0.00  0.00    +0.042 A 
ATOM     16  C   UNL     1      -1.880   7.971  -0.308  0.00  0.00    +0.196 A 
ATOM     17  O   UNL     1      -1.444   6.702  -0.251  0.00  0.00    -0.458 OA
ENDBRANCH  11  13
BRANCH   9  18
ATOM     18  C   UNL     1       3.871   3.785  -0.046  0.00  0.00    +0.124 C 
ATOM     19  N   UNL     1       4.953   3.440  -0.015  0.00  0.00    -0.189 NA
ENDBRANCH   9  18
ENDBRANCH   4   8
BRANCH   1  20
ATOM     20  C   UNL     1       0.724  -1.955   1.242  0.00  0.00    +0.016 C 
ATOM     21  C   UNL     1       1.580  -2.531   0.112  0.00  0.00    -0.004 C 
BRANCH  20  23
ATOM     22  N   UNL     1       1.355  -3.719   2.858  0.00  0.00    -0.314 N 
ATOM     23  C   UNL     1       1.278  -2.404   2.570  0.00  0.00    +0.199 C 
ATOM     24  O   UNL     1       1.653  -1.583   3.379  0.00  0.00    -0.278 OA
ATOM     25  H   UNL     1       1.014  -4.463   2.123  0.00  0.00    +0.149 HD
BRANCH  22  26
ATOM     26  C   UNL     1       1.893  -4.155   4.149  0.00  0.00    +0.070 C 
ATOM     27  C   UNL     1       3.418  -4.233   4.065  0.00  0.00    +0.028 C 
BRANCH  26  29
ATOM     28  C   UNL     1      -0.183  -5.431   4.701  0.00  0.00    +0.005 C 
ATOM     29  C   UNL     1       1.329  -5.535   4.495  0.00  0.00    +0.018 C 
ENDBRANCH  26  29
ENDBRANCH  22  26
ENDBRANCH  20  23
ENDBRANCH   1  20
TORSDOF 7
