REMARK  Name = ZINC14094047
REMARK  6 active torsions:
REMARK  status: ('A' for Active; 'I' for Inactive)
REMARK    1  A    between atoms: C_1  and  C_2
REMARK    2  A    between atoms: C_2  and  N_3
REMARK    3  A    between atoms: C_7  and  C_9
REMARK    4  A    between atoms: C_9  and  S_10
REMARK    5  A    between atoms: S_10  and  C_11
REMARK    6  A    between atoms: C_19  and  C_21
REMARK                            x       y       z     vdW  Elec       q    Type
REMARK                         _______ _______ _______ _____ _____    ______ ____
ROOT
ATOM      1  C   UNL     1      -1.286   3.410   0.032  0.00  0.00    +0.109 A 
ATOM      2  C   UNL     1      -0.039   4.173   0.024  0.00  0.00    +0.032 A 
ATOM      3  C   UNL     1      -0.020   5.569   0.031  0.00  0.00    +0.012 A 
ATOM      4  C   UNL     1       1.178   6.225   0.024  0.00  0.00    +0.001 A 
ATOM      5  C   UNL     1       2.378   5.520   0.009  0.00  0.00    +0.002 A 
ATOM      6  C   UNL     1       2.393   4.157   0.002  0.00  0.00    +0.028 A 
ATOM      7  C   UNL     1       1.181   3.451   0.009  0.00  0.00    +0.076 A 
ATOM      8  N   UNL     1       1.137   2.113   0.003  0.00  0.00    -0.225 NA
ATOM      9  C   UNL     1      -0.018   1.471   0.010  0.00  0.00    +0.197 A 
ATOM     10  N   UNL     1      -1.200   2.087   0.019  0.00  0.00    -0.218 NA
ENDROOT
BRANCH   9  11
ATOM     11  C   UNL     1       0.002  -0.004   0.002  0.00  0.00    +0.172 A 
ATOM     12  C   UNL     1      -1.089  -0.818   0.008  0.00  0.00    +0.053 A 
ATOM     13  C   UNL     1      -0.608  -2.140  -0.004  0.00  0.00    +0.042 A 
ATOM     14  C   UNL     1       0.739  -2.071  -0.016  0.00  0.00    +0.196 A 
ATOM     15  O   UNL     1       1.104  -0.780  -0.018  0.00  0.00    -0.460 OA
ENDBRANCH   9  11
BRANCH   1  16
ATOM     16  S   UNL     1      -2.850   4.222   0.050  0.00  0.00    -0.096 S 
BRANCH  16  17
ATOM     17  C   UNL     1      -3.950   2.784   0.053  0.00  0.00    +0.172 C 
BRANCH  17  22
ATOM     18  N   UNL     1      -8.668   1.858   0.093  0.00  0.00    -0.299 N 
ATOM     19  C   UNL     1      -7.667   2.761   0.088  0.00  0.00    +0.306 C 
ATOM     20  O   UNL     1      -7.920   3.950   0.096  0.00  0.00    -0.252 OA
ATOM     21  N   UNL     1      -6.385   2.346   0.074  0.00  0.00    -0.240 N 
ATOM     22  C   UNL     1      -5.384   3.248   0.069  0.00  0.00    +0.231 C 
ATOM     23  O   UNL     1      -5.637   4.434   0.077  0.00  0.00    -0.274 OA
ATOM     24  H   UNL     1      -8.465   0.910   0.086  0.00  0.00    +0.150 HD
ATOM     25  H   UNL     1      -6.182   1.397   0.067  0.00  0.00    +0.159 HD
BRANCH  18  27
ATOM     26  C   UNL     1     -10.991   1.094   0.111  0.00  0.00    +0.024 C 
ATOM     27  C   UNL     1     -10.061   2.310   0.108  0.00  0.00    +0.102 C 
ENDBRANCH  18  27
ENDBRANCH  17  22
ENDBRANCH  16  17
ENDBRANCH   1  16
TORSDOF 5
