REMARK  Name = ZINC35374949
REMARK  7 active torsions:
REMARK  status: ('A' for Active; 'I' for Inactive)
REMARK    1  A    between atoms: C_1  and  C_2
REMARK    2  A    between atoms: C_2  and  C_3
REMARK    3  A    between atoms: C_3  and  C_5
REMARK    4  A    between atoms: C_3  and  N_6
REMARK    5  A    between atoms: C_27  and  C_29
REMARK    6  A    between atoms: C_29  and  C_31
REMARK    7  A    between atoms: C_29  and  O_32
REMARK                            x       y       z     vdW  Elec       q    Type
REMARK                         _______ _______ _______ _____ _____    ______ ____
ROOT
ATOM      1  N   UNL     1      -1.934  -0.102  -1.173  0.00  0.00    -0.239 N 
ATOM      2  C   UNL     1      -1.560  -0.550  -2.377  0.00  0.00    +0.228 C 
ATOM      3  O   UNL     1      -0.708  -1.389  -2.579  0.00  0.00    -0.275 OA
ATOM      4  C   UNL     1      -2.365   0.152  -3.447  0.00  0.00    +0.109 C 
ATOM      5  C   UNL     1      -3.291   1.100  -2.634  0.00  0.00    +0.123 C 
ATOM      6  C   UNL     1      -2.899   0.824  -1.200  0.00  0.00    +0.228 C 
ATOM      7  O   UNL     1      -3.384   1.359  -0.226  0.00  0.00    -0.275 OA
ATOM      8  C   UNL     1      -2.860   2.511  -3.048  0.00  0.00    +0.136 C 
ATOM      9  C   UNL     1      -1.930   3.126  -2.041  0.00  0.00    +0.005 A 
ATOM     10  C   UNL     1      -0.702   2.760  -1.536  0.00  0.00    +0.008 A 
ATOM     11  C   UNL     1      -0.075   3.554  -0.593  0.00  0.00    +0.002 A 
ATOM     12  C   UNL     1      -0.684   4.717  -0.158  0.00  0.00    +0.022 A 
ATOM     13  C   UNL     1      -1.915   5.088  -0.659  0.00  0.00    +0.062 A 
ATOM     14  C   UNL     1      -2.554   4.293  -1.609  0.00  0.00    +0.057 A 
ATOM     15  N   UNL     1      -3.782   4.452  -2.257  0.00  0.00    -0.282 N 
ATOM     16  C   UNL     1      -4.036   3.447  -3.117  0.00  0.00    +0.243 C 
ATOM     17  O   UNL     1      -5.021   3.322  -3.813  0.00  0.00    -0.273 OA
ATOM     18 CL   UNL     1      -2.670   6.550  -0.105  0.00  0.00    -0.082 Cl
ATOM     19  N   UNL     1      -2.210   2.367  -4.364  0.00  0.00    -0.293 NA
ATOM     20  C   UNL     1      -1.434   1.081  -4.254  0.00  0.00    +0.096 C 
ATOM     21  H   UNL     1      -4.382   5.199  -2.104  0.00  0.00    +0.155 HD
ATOM     22  H   UNL     1      -2.896   2.315  -5.102  0.00  0.00    +0.124 HD
ENDROOT
BRANCH   1  23
ATOM     23  C   UNL     1      -1.339  -0.591   0.074  0.00  0.00    +0.081 C 
ATOM     24  C   UNL     1      -0.709   0.580   0.831  0.00  0.00    +0.028 C 
BRANCH  23  26
ATOM     25  C   UNL     1      -2.961  -2.484   0.240  0.00  0.00    +0.006 C 
ATOM     26  C   UNL     1      -2.425  -1.234   0.939  0.00  0.00    +0.019 C 
ENDBRANCH  23  26
ENDBRANCH   1  23
BRANCH  20  27
ATOM     27  C   UNL     1      -1.173   0.497  -5.644  0.00  0.00    +0.129 C 
ATOM     28  C   UNL     1      -0.249   1.433  -6.426  0.00  0.00    +0.039 C 
BRANCH  27  29
ATOM     29  O   UNL     1      -0.553  -0.784  -5.513  0.00  0.00    -0.390 OA
ATOM     30  H   UNL     1       0.294  -0.765  -5.047  0.00  0.00    +0.210 HD
ENDBRANCH  27  29
ENDBRANCH  20  27
TORSDOF 4
