REMARK  Name = ZINC06582242
REMARK  6 active torsions:
REMARK  status: ('A' for Active; 'I' for Inactive)
REMARK    1  A    between atoms: C_1  and  N_2
REMARK    2  A    between atoms: C_3  and  C_17
REMARK    3  A    between atoms: C_6  and  S_7
REMARK    4  A    between atoms: S_7  and  C_8
REMARK    5  A    between atoms: C_8  and  C_9
REMARK    6  A    between atoms: C_9  and  C_11
REMARK                            x       y       z     vdW  Elec       q    Type
REMARK                         _______ _______ _______ _____ _____    ______ ____
ROOT
ATOM      1  C   UNL     1       3.383   9.193   0.030  0.00  0.00    +0.153 C 
ATOM      2  N   UNL     1       2.039   8.610   0.033  0.00  0.00    -0.306 N 
ATOM      3  C   UNL     1       0.847   9.282   0.043  0.00  0.00    +0.178 A 
ATOM      4  N   UNL     1      -0.101   8.389   0.048  0.00  0.00    -0.130 NA
ATOM      5  N   UNL     1       0.405   7.208   0.037  0.00  0.00    -0.122 NA
ATOM      6  C   UNL     1       1.715   7.284   0.024  0.00  0.00    +0.192 A 
ENDROOT
BRANCH   3   7
ATOM      7  C   UNL     1       0.666  10.778   0.052  0.00  0.00    +0.278 C 
ATOM      8  C   UNL     1       0.204  11.252  -1.333  0.00  0.00    +0.281 C 
ATOM      9  O   UNL     1       0.029  12.672  -1.285  0.00  0.00    -0.484 OA
ATOM     10  C   UNL     1      -0.651  13.169  -0.216  0.00  0.00    +0.162 A 
ATOM     11  C   UNL     1      -1.167  14.455  -0.274  0.00  0.00    +0.049 A 
ATOM     12  C   UNL     1      -1.857  14.974   0.805  0.00  0.00    +0.004 A 
ATOM     13  C   UNL     1      -2.034  14.214   1.946  0.00  0.00    +0.004 A 
ATOM     14  C   UNL     1      -1.524  12.931   2.010  0.00  0.00    +0.049 A 
ATOM     15  C   UNL     1      -0.832  12.403   0.930  0.00  0.00    +0.163 A 
ATOM     16  O   UNL     1      -0.339  11.137   1.007  0.00  0.00    -0.474 OA
ENDBRANCH   3   7
BRANCH   6  17
ATOM     17  S   UNL     1       2.843   5.931   0.006  0.00  0.00    -0.078 S 
BRANCH  17  18
ATOM     18  C   UNL     1       1.675   4.548   0.010  0.00  0.00    +0.157 C 
BRANCH  18  19
ATOM     19  C   UNL     1       2.437   3.247  -0.004  0.00  0.00    +0.180 C 
ATOM     20  O   UNL     1       3.651   3.255  -0.016  0.00  0.00    -0.291 OA
BRANCH  19  21
ATOM     21  C   UNL     1       1.739   2.021  -0.004  0.00  0.00    +0.057 A 
ATOM     22  C   UNL     1       2.244   0.724  -0.015  0.00  0.00    +0.020 A 
ATOM     23  C   UNL     1       1.333  -0.298  -0.012  0.00  0.00    +0.028 A 
ATOM     24  C   UNL     1       0.002  -0.004   0.002  0.00  0.00    +0.079 A 
ATOM     25  S   UNL     1      -0.021   1.729   0.012  0.00  0.00    -0.074 S 
ATOM     26 CL   UNL     1      -1.344  -1.100   0.009  0.00  0.00    -0.076 Cl
ENDBRANCH  19  21
ENDBRANCH  18  19
ENDBRANCH  17  18
ENDBRANCH   6  17
TORSDOF 5
