REMARK  Name = ZINC60972389
REMARK  7 active torsions:
REMARK  status: ('A' for Active; 'I' for Inactive)
REMARK    1  A    between atoms: C_1  and  C_2
REMARK    2  A    between atoms: C_2  and  C_23
REMARK    3  A    between atoms: N_5  and  C_9
REMARK    4  A    between atoms: C_9  and  C_10
REMARK    5  A    between atoms: N_15  and  C_16
REMARK    6  A    between atoms: C_16  and  C_17
REMARK    7  A    between atoms: C_17  and  C_18
REMARK                            x       y       z     vdW  Elec       q    Type
REMARK                         _______ _______ _______ _____ _____    ______ ____
ROOT
ATOM      1  C   UNL     1      -2.601  -3.391   1.225  0.00  0.00    +0.238 C 
ATOM      2  O   UNL     1      -1.714  -3.759   0.485  0.00  0.00    -0.274 OA
ATOM      3  N   UNL     1      -3.594  -4.239   1.560  0.00  0.00    -0.239 N 
ATOM      4  C   UNL     1      -3.602  -5.495   1.071  0.00  0.00    +0.306 C 
ATOM      5  O   UNL     1      -2.712  -5.863   0.329  0.00  0.00    -0.252 OA
ATOM      6  N   UNL     1      -4.595  -6.342   1.406  0.00  0.00    -0.299 N 
ATOM      7  H   UNL     1      -4.304  -3.944   2.152  0.00  0.00    +0.159 HD
ATOM      8  H   UNL     1      -5.304  -6.048   1.998  0.00  0.00    +0.150 HD
ENDROOT
BRANCH   1   9
ATOM      9  C   UNL     1      -2.593  -1.987   1.771  0.00  0.00    +0.214 C 
BRANCH   9  14
ATOM     10  C   UNL     1      -0.019   1.526   0.010  0.00  0.00    +0.041 C 
ATOM     11  C   UNL     1       0.002  -0.004   0.002  0.00  0.00    +0.107 C 
ATOM     12  C   UNL     1      -1.404  -0.557   0.121  0.00  0.00    +0.246 C 
ATOM     13  O   UNL     1      -2.324  -0.392  -0.652  0.00  0.00    -0.273 OA
ATOM     14  N   UNL     1      -1.419  -1.272   1.263  0.00  0.00    -0.215 N 
ATOM     15  C   UNL     1      -0.231  -1.248   1.876  0.00  0.00    +0.310 C 
ATOM     16  O   UNL     1       0.001  -1.819   2.923  0.00  0.00    -0.252 OA
ATOM     17  N   UNL     1       0.679  -0.520   1.204  0.00  0.00    -0.285 N 
ATOM     18  C   UNL     1       0.684  -0.525  -1.265  0.00  0.00    +0.041 C 
ATOM     19  H   UNL     1       1.602  -0.365   1.461  0.00  0.00    +0.151 HD
ENDBRANCH   9  14
ENDBRANCH   1   9
BRANCH   6  20
ATOM     20  C   UNL     1      -4.603  -7.708   0.875  0.00  0.00    +0.111 C 
BRANCH  20  21
ATOM     21  C   UNL     1      -5.828  -8.454   1.406  0.00  0.00    +0.061 C 
BRANCH  21  22
ATOM     22  C   UNL     1      -5.836  -9.859   0.860  0.00  0.00    -0.009 A 
ATOM     23  C   UNL     1      -5.287 -10.982   1.384  0.00  0.00    +0.011 A 
ATOM     24  C   UNL     1      -5.422 -12.175   0.701  0.00  0.00    +0.008 A 
ATOM     25  C   UNL     1      -6.098 -12.188  -0.473  0.00  0.00    +0.045 A 
ATOM     26  S   UNL     1      -6.578 -10.477  -0.641  0.00  0.00    -0.102 S 
ENDBRANCH  21  22
ENDBRANCH  20  21
ENDBRANCH   6  20
TORSDOF 5
