REMARK  Name = ZINC44255065
REMARK  10 active torsions:
REMARK  status: ('A' for Active; 'I' for Inactive)
REMARK    1  A    between atoms: C_1  and  C_2
REMARK    2  A    between atoms: C_5  and  C_8
REMARK    3  A    between atoms: C_8  and  N_9
REMARK    4  A    between atoms: N_12  and  N_13
REMARK    5  A    between atoms: C_14  and  C_16
REMARK    6  A    between atoms: C_16  and  C_18
REMARK    7  A    between atoms: C_16  and  O_19
REMARK    8  A    between atoms: O_19  and  C_20
REMARK    9  A    between atoms: C_24  and  C_27
REMARK   10  A    between atoms: C_25  and  C_26
REMARK                            x       y       z     vdW  Elec       q    Type
REMARK                         _______ _______ _______ _____ _____    ______ ____
ROOT
ATOM      1  N   UNL     1       4.046  -5.846   0.288  0.00  0.00    -0.230 N 
ATOM      2  C   UNL     1       5.341  -6.174   0.105  0.00  0.00    +0.270 C 
ATOM      3  O   UNL     1       5.652  -7.329  -0.094  0.00  0.00    -0.270 OA
ATOM      4  H   UNL     1       3.798  -4.923   0.448  0.00  0.00    +0.173 HD
ENDROOT
BRANCH   1   8
ATOM      5  N   UNL     1       1.420  -5.229   0.652  0.00  0.00    -0.294 N 
ATOM      6  C   UNL     1       1.765  -6.513   0.430  0.00  0.00    +0.316 C 
ATOM      7  O   UNL     1       0.909  -7.375   0.395  0.00  0.00    -0.251 OA
ATOM      8  N   UNL     1       3.060  -6.840   0.248  0.00  0.00    -0.218 N 
ATOM      9  H   UNL     1       2.103  -4.541   0.680  0.00  0.00    +0.151 HD
ATOM     10  H   UNL     1       3.308  -7.764   0.088  0.00  0.00    +0.174 HD
BRANCH   5  11
ATOM     11  C   UNL     1       0.013  -4.873   0.851  0.00  0.00    +0.141 C 
BRANCH  11  16
ATOM     12  C   UNL     1      -0.432   0.823   1.720  0.00  0.00    +0.044 C 
ATOM     13  C   UNL     1      -0.316  -0.663   1.494  0.00  0.00    -0.050 A 
ATOM     14  C   UNL     1      -0.385  -1.173   0.211  0.00  0.00    +0.003 A 
ATOM     15  C   UNL     1      -0.278  -2.536   0.003  0.00  0.00    +0.005 A 
ATOM     16  C   UNL     1      -0.102  -3.388   1.077  0.00  0.00    -0.030 A 
ATOM     17  C   UNL     1      -0.032  -2.877   2.360  0.00  0.00    +0.005 A 
ATOM     18  C   UNL     1      -0.134  -1.514   2.568  0.00  0.00    +0.003 A 
ENDBRANCH  11  16
ENDBRANCH   5  11
ENDBRANCH   1   8
BRANCH   2  19
ATOM     19  C   UNL     1       6.402  -5.105   0.149  0.00  0.00    +0.257 C 
ATOM     20  C   UNL     1       6.198  -4.136  -1.018  0.00  0.00    +0.062 C 
BRANCH  19  21
ATOM     21  O   UNL     1       7.692  -5.710   0.046  0.00  0.00    -0.480 OA
BRANCH  21  22
ATOM     22  C   UNL     1       8.740  -5.023   0.572  0.00  0.00    +0.125 A 
ATOM     23  C   UNL     1       8.550  -3.743   1.073  0.00  0.00    +0.046 A 
ATOM     24  C   UNL     1       9.617  -3.047   1.608  0.00  0.00    +0.004 A 
ATOM     25  C   UNL     1      10.873  -3.625   1.645  0.00  0.00    +0.004 A 
ATOM     26  C   UNL     1      11.064  -4.900   1.146  0.00  0.00    -0.044 A 
ATOM     27  C   UNL     1      10.000  -5.602   0.615  0.00  0.00    -0.006 A 
ATOM     28  C   UNL     1      10.208  -6.995   0.077  0.00  0.00    +0.048 C 
ATOM     29  C   UNL     1      12.434  -5.526   1.187  0.00  0.00    +0.044 C 
ENDBRANCH  21  22
ENDBRANCH  19  21
ENDBRANCH   2  19
TORSDOF 6
