REMARK  Name = ZINC48574742
REMARK  8 active torsions:
REMARK  status: ('A' for Active; 'I' for Inactive)
REMARK    1  A    between atoms: C_1  and  C_2
REMARK    2  A    between atoms: C_2  and  C_3
REMARK    3  A    between atoms: C_3  and  C_5
REMARK    4  A    between atoms: C_3  and  N_6
REMARK    5  A    between atoms: C_7  and  C_9
REMARK    6  A    between atoms: N_11  and  C_12
REMARK    7  A    between atoms: C_15  and  S_18
REMARK    8  A    between atoms: S_18  and  N_21
REMARK                            x       y       z     vdW  Elec       q    Type
REMARK                         _______ _______ _______ _____ _____    ______ ____
ROOT
ATOM      1  C   UNL     1       6.318   0.910  -3.344  0.00  0.00    +0.034 A 
ATOM      2  C   UNL     1       6.909   1.038  -2.093  0.00  0.00    +0.025 A 
ATOM      3  C   UNL     1       8.253   1.337  -1.994  0.00  0.00    +0.030 A 
ATOM      4  C   UNL     1       9.011   1.509  -3.137  0.00  0.00    +0.106 A 
ATOM      5  C   UNL     1       8.426   1.383  -4.384  0.00  0.00    +0.030 A 
ATOM      6  C   UNL     1       7.083   1.078  -4.491  0.00  0.00    +0.025 A 
ENDROOT
BRANCH   1   9
ATOM      7  C   UNL     1       4.517  -0.179  -4.449  0.00  0.00    +0.303 C 
ATOM      8  O   UNL     1       5.287  -0.557  -5.308  0.00  0.00    -0.265 OA
ATOM      9  N   UNL     1       4.957   0.609  -3.448  0.00  0.00    -0.278 N 
ATOM     10  H   UNL     1       4.330   0.965  -2.799  0.00  0.00    +0.155 HD
BRANCH   7  12
ATOM     11  N   UNL     1       2.640  -1.373  -5.503  0.00  0.00    -0.305 N 
ATOM     12  C   UNL     1       3.081  -0.586  -4.502  0.00  0.00    +0.300 C 
ATOM     13  O   UNL     1       2.311  -0.208  -3.643  0.00  0.00    -0.265 OA
ATOM     14  H   UNL     1       3.255  -1.675  -6.189  0.00  0.00    +0.149 HD
BRANCH  11  15
ATOM     15  C   UNL     1       1.231  -1.773  -5.555  0.00  0.00    +0.070 C 
ATOM     16  C   UNL     1       0.417  -0.681  -6.252  0.00  0.00    +0.028 C 
BRANCH  15  18
ATOM     17  C   UNL     1       1.812  -4.203  -5.573  0.00  0.00    +0.005 C 
ATOM     18  C   UNL     1       1.101  -3.082  -6.335  0.00  0.00    +0.018 C 
ENDBRANCH  15  18
ENDBRANCH  11  15
ENDBRANCH   7  12
ENDBRANCH   1   9
BRANCH   4  19
ATOM     19  S   UNL     1      10.727   1.890  -3.006  0.00  0.00    +0.061 S 
ATOM     20  O   UNL     1      11.092   2.539  -4.216  0.00  0.00    -0.153 OA
ATOM     21  O   UNL     1      10.913   2.492  -1.732  0.00  0.00    -0.153 OA
BRANCH  19  22
ATOM     22  N   UNL     1      11.547   0.451  -2.974  0.00  0.00    -0.177 NA
ATOM     23  C   UNL     1      11.793  -0.178  -1.696  0.00  0.00    +0.109 C 
ATOM     24  C   UNL     1      13.136   0.332  -1.116  0.00  0.00    +0.017 C 
ATOM     25  C   UNL     1      14.264  -0.217  -1.882  0.00  0.00    +0.001 C 
ATOM     26  C   UNL     1      14.298   0.211  -3.346  0.00  0.00    +0.001 C 
ATOM     27  C   UNL     1      13.421  -0.710  -4.157  0.00  0.00    +0.017 C 
ATOM     28  C   UNL     1      11.990  -0.139  -4.252  0.00  0.00    +0.109 C 
ENDBRANCH  19  22
ENDBRANCH   4  19
TORSDOF 6
