REMARK  Name = ZINC36554832
REMARK  10 active torsions:
REMARK  status: ('A' for Active; 'I' for Inactive)
REMARK    1  A    between atoms: C_1  and  C_2
REMARK    2  A    between atoms: C_2  and  C_3
REMARK    3  A    between atoms: N_5  and  C_6
REMARK    4  A    between atoms: N_5  and  C_13
REMARK    5  A    between atoms: C_13  and  C_15
REMARK    6  A    between atoms: C_13  and  C_24
REMARK    7  A    between atoms: C_16  and  O_23
REMARK    8  A    between atoms: C_18  and  O_22
REMARK    9  A    between atoms: C_20  and  O_21
REMARK   10  A    between atoms: N_26  and  C_27
REMARK                            x       y       z     vdW  Elec       q    Type
REMARK                         _______ _______ _______ _____ _____    ______ ____
ROOT
ATOM      1  C   UNL     1       0.449  -3.439   0.936  0.00  0.00    +0.204 C 
ENDROOT
BRANCH   1   2
ATOM      2  C   UNL     1      -0.675  -2.438   0.885  0.00  0.00    +0.065 A 
ATOM      3  C   UNL     1      -0.500  -1.231   0.225  0.00  0.00    +0.129 A 
ATOM      4  C   UNL     1      -1.535  -0.309   0.179  0.00  0.00    +0.091 A 
ATOM      5  C   UNL     1      -2.746  -0.595   0.792  0.00  0.00    +0.124 A 
ATOM      6  C   UNL     1      -2.921  -1.802   1.452  0.00  0.00    +0.091 A 
ATOM      7  C   UNL     1      -1.888  -2.725   1.494  0.00  0.00    +0.129 A 
BRANCH   7   8
ATOM      8  O   UNL     1      -2.061  -3.910   2.136  0.00  0.00    -0.506 OA
ATOM      9  H   UNL     1      -1.821  -3.889   3.073  0.00  0.00    +0.292 HD
ENDBRANCH   7   8
BRANCH   5  10
ATOM     10  O   UNL     1      -3.760   0.309   0.747  0.00  0.00    -0.507 OA
ATOM     11  H   UNL     1      -4.347   0.204  -0.014  0.00  0.00    +0.292 HD
ENDBRANCH   5  10
BRANCH   3  12
ATOM     12  O   UNL     1       0.686  -0.951  -0.376  0.00  0.00    -0.506 OA
ATOM     13  H   UNL     1       0.707  -1.157  -1.321  0.00  0.00    +0.292 HD
ENDBRANCH   3  12
ENDBRANCH   1   2
BRANCH   1  14
ATOM     14  C   UNL     1       1.147  -3.479  -0.400  0.00  0.00    +0.239 C 
ATOM     15  O   UNL     1       2.038  -2.694  -0.642  0.00  0.00    -0.273 OA
ATOM     16  N   UNL     1       0.779  -4.388  -1.325  0.00  0.00    -0.311 N 
ATOM     17  H   UNL     1       0.066  -5.017  -1.131  0.00  0.00    +0.149 HD
BRANCH  16  18
ATOM     18  C   UNL     1       1.457  -4.427  -2.623  0.00  0.00    +0.073 C 
ATOM     19  C   UNL     1       0.805  -3.418  -3.569  0.00  0.00    +0.022 C 
ATOM     20  C   UNL     1       1.513  -3.458  -4.925  0.00  0.00    +0.002 C 
ATOM     21  C   UNL     1       1.396  -4.863  -5.519  0.00  0.00    +0.000 C 
ATOM     22  C   UNL     1       2.048  -5.873  -4.573  0.00  0.00    +0.002 C 
ATOM     23  C   UNL     1       1.340  -5.832  -3.217  0.00  0.00    +0.022 C 
ENDBRANCH  16  18
ENDBRANCH   1  14
BRANCH   1  26
ATOM     24  C   UNL     1       1.294  -1.846   2.575  0.00  0.00    +0.220 C 
ATOM     25  O   UNL     1       0.369  -1.113   2.296  0.00  0.00    -0.275 OA
ATOM     26  N   UNL     1       1.406  -3.048   1.974  0.00  0.00    -0.255 N 
BRANCH  26  27
ATOM     27  C   UNL     1       2.435  -3.921   2.343  0.00  0.00    +0.039 A 
ATOM     28  C   UNL     1       3.175  -4.576   1.367  0.00  0.00    +0.023 A 
ATOM     29  C   UNL     1       4.190  -5.437   1.734  0.00  0.00    +0.003 A 
ATOM     30  C   UNL     1       4.471  -5.649   3.071  0.00  0.00    +0.020 A 
ATOM     31  C   UNL     1       3.735  -4.999   4.046  0.00  0.00    +0.043 A 
ATOM     32  C   UNL     1       2.721  -4.131   3.685  0.00  0.00    +0.043 A 
ATOM     33 CL   UNL     1       4.090  -5.268   5.724  0.00  0.00    -0.083 Cl
ENDBRANCH  26  27
BRANCH  24  35
ATOM     34  C   UNL     1       2.729   0.034   3.320  0.00  0.00    +0.013 C 
ATOM     35  C   UNL     1       2.318  -1.414   3.592  0.00  0.00    +0.093 C 
ENDBRANCH  24  35
ENDBRANCH   1  26
TORSDOF 9
