REMARK  Name = ZINC27695013
REMARK  14 active torsions:
REMARK  status: ('A' for Active; 'I' for Inactive)
REMARK    1  A    between atoms: C_1  and  C_2
REMARK    2  A    between atoms: C_2  and  C_4
REMARK    3  A    between atoms: C_2  and  C_14
REMARK    4  A    between atoms: C_7  and  C_10
REMARK    5  A    between atoms: C_10  and  C_11
REMARK    6  A    between atoms: C_11  and  C_12
REMARK    7  A    between atoms: C_11  and  C_13
REMARK    8  A    between atoms: N_22  and  C_23
REMARK    9  A    between atoms: C_23  and  C_24
REMARK   10  A    between atoms: C_24  and  C_26
REMARK   11  A    between atoms: C_24  and  O_35
REMARK   12  A    between atoms: C_26  and  N_27
REMARK   13  A    between atoms: N_27  and  C_28
REMARK   14  A    between atoms: N_27  and  C_29
REMARK                            x       y       z     vdW  Elec       q    Type
REMARK                         _______ _______ _______ _____ _____    ______ ____
ROOT
ATOM      1  C   UNL     1       0.129  -0.368   2.300  0.00  0.00    +0.118 A 
ATOM      2  N   UNL     1       1.241  -0.034   2.887  0.00  0.00    -0.232 NA
ATOM      3  C   UNL     1       1.355  -0.703   4.063  0.00  0.00    +0.089 A 
ATOM      4  C   UNL     1       2.325  -0.725   5.069  0.00  0.00    +0.030 A 
ATOM      5  C   UNL     1       2.152  -1.525   6.163  0.00  0.00    +0.002 A 
ATOM      6  C   UNL     1       1.022  -2.320   6.287  0.00  0.00    +0.002 A 
ATOM      7  C   UNL     1       0.053  -2.315   5.307  0.00  0.00    +0.028 A 
ATOM      8  C   UNL     1       0.210  -1.508   4.188  0.00  0.00    +0.069 A 
ATOM      9  N   UNL     1      -0.549  -1.269   3.060  0.00  0.00    -0.325 N 
ENDROOT
BRANCH   1  11
ATOM     10  C   UNL     1      -0.490   1.691   1.063  0.00  0.00    +0.020 C 
ATOM     11  C   UNL     1      -0.343   0.171   0.974  0.00  0.00    +0.082 C 
BRANCH  11  12
ATOM     12  C   UNL     1       0.663  -0.174  -0.095  0.00  0.00    -0.037 A 
ATOM     13  C   UNL     1       1.966   0.278   0.011  0.00  0.00    +0.004 A 
ATOM     14  C   UNL     1       2.888  -0.038  -0.969  0.00  0.00    +0.004 A 
ATOM     15  C   UNL     1       2.509  -0.806  -2.054  0.00  0.00    -0.047 A 
ATOM     16  C   UNL     1       1.207  -1.259  -2.159  0.00  0.00    +0.004 A 
ATOM     17  C   UNL     1       0.285  -0.946  -1.177  0.00  0.00    +0.004 A 
BRANCH  15  18
ATOM     18  C   UNL     1       3.514  -1.150  -3.123  0.00  0.00    +0.038 C 
BRANCH  18  19
ATOM     19  C   UNL     1       4.213  -2.462  -2.762  0.00  0.00    -0.013 C 
ATOM     20  C   UNL     1       3.195  -3.604  -2.782  0.00  0.00    +0.007 C 
ATOM     21  C   UNL     1       5.319  -2.747  -3.780  0.00  0.00    +0.007 C 
ENDBRANCH  18  19
ENDBRANCH  15  18
ENDBRANCH  11  12
ENDBRANCH   1  11
BRANCH   9  22
ATOM     22  C   UNL     1      -1.843  -1.876   2.740  0.00  0.00    +0.153 C 
BRANCH  22  23
ATOM     23  C   UNL     1      -1.619  -3.167   1.950  0.00  0.00    +0.118 C 
BRANCH  23  24
ATOM     24  O   UNL     1      -0.948  -4.121   2.776  0.00  0.00    -0.392 OA
ATOM     25  H   UNL     1      -1.434  -4.358   3.578  0.00  0.00    +0.210 HD
ENDBRANCH  23  24
BRANCH  23  26
ATOM     26  C   UNL     1      -2.969  -3.736   1.509  0.00  0.00    -0.045 C 
BRANCH  26  27
ATOM     27  N   UNL     1      -2.749  -4.877   0.610  0.00  0.00    +0.381 N 
ATOM     28  C   UNL     1      -2.128  -5.978   1.360  0.00  0.00    -0.096 C 
ATOM     29  H   UNL     1      -2.141  -4.599  -0.145  0.00  0.00    -0.082 HD
BRANCH  27  30
ATOM     30  C   UNL     1      -4.037  -5.324   0.062  0.00  0.00    -0.069 C 
ATOM     31  C   UNL     1      -3.809  -6.513  -0.874  0.00  0.00    -0.015 C 
ATOM     32  C   UNL     1      -5.150  -6.978  -1.444  0.00  0.00    -0.002 C 
ATOM     33  C   UNL     1      -5.797  -5.831  -2.225  0.00  0.00    -0.000 C 
ATOM     34  C   UNL     1      -6.025  -4.643  -1.289  0.00  0.00    -0.002 C 
ATOM     35  C   UNL     1      -4.684  -4.178  -0.718  0.00  0.00    -0.015 C 
ENDBRANCH  27  30
ENDBRANCH  26  27
ENDBRANCH  23  26
ENDBRANCH  22  23
ENDBRANCH   9  22
TORSDOF 10
