REMARK  Name = ZINC22577357
REMARK  7 active torsions:
REMARK  status: ('A' for Active; 'I' for Inactive)
REMARK    1  A    between atoms: C_1  and  C_2
REMARK    2  A    between atoms: C_2  and  N_3
REMARK    3  A    between atoms: N_6  and  C_9
REMARK    4  A    between atoms: C_9  and  C_11
REMARK    5  A    between atoms: C_9  and  C_17
REMARK    6  A    between atoms: C_18  and  O_30
REMARK    7  A    between atoms: C_23  and  C_25
REMARK                            x       y       z     vdW  Elec       q    Type
REMARK                         _______ _______ _______ _____ _____    ______ ____
ROOT
ATOM      1  C   UNL     1       1.530  -2.584   4.772  0.00  0.00    +0.129 C 
ENDROOT
BRANCH   1   2
ATOM      2  C   UNL     1       0.708  -2.243   5.988  0.00  0.00    +0.076 A 
ATOM      3  C   UNL     1       1.071  -1.583   7.094  0.00  0.00    +0.228 A 
ATOM      4  N   UNL     1       0.170  -1.365   8.108  0.00  0.00    -0.173 N 
ATOM      5  C   UNL     1      -1.097  -1.849   7.930  0.00  0.00    +0.200 A 
ATOM      6  S   UNL     1      -1.008  -2.605   6.325  0.00  0.00    -0.047 S 
ATOM      7  N   UNL     1      -1.827  -1.563   8.972  0.00  0.00    -0.197 NA
ATOM      8  C   UNL     1      -1.085  -0.891   9.862  0.00  0.00    +0.218 A 
ATOM      9  N   UNL     1       0.133  -0.746   9.384  0.00  0.00    -0.138 NA
BRANCH   8  10
ATOM     10  C   UNL     1      -1.557  -0.392  11.171  0.00  0.00    +0.173 A 
ATOM     11  C   UNL     1      -2.810  -0.542  11.676  0.00  0.00    +0.053 A 
ATOM     12  C   UNL     1      -2.816   0.083  12.939  0.00  0.00    +0.042 A 
ATOM     13  C   UNL     1      -1.579   0.577  13.141  0.00  0.00    +0.196 A 
ATOM     14  O   UNL     1      -0.819   0.284  12.072  0.00  0.00    -0.460 OA
ENDBRANCH   8  10
BRANCH   3  15
ATOM     15  O   UNL     1       2.346  -1.125   7.216  0.00  0.00    -0.492 OA
ATOM     16  H   UNL     1       2.519  -0.660   8.047  0.00  0.00    +0.294 HD
ENDBRANCH   3  15
ENDBRANCH   1   2
BRANCH   1  20
ATOM     17  N   UNL     1       0.713  -0.491   1.192  0.00  0.00    +0.381 N 
ATOM     18  C   UNL     1      -0.039  -0.117   2.398  0.00  0.00    -0.063 C 
ATOM     19  C   UNL     1       0.710  -0.608   3.639  0.00  0.00    +0.067 C 
ATOM     20  N   UNL     1       0.864  -2.067   3.569  0.00  0.00    -0.295 NA
ATOM     21  C   UNL     1       1.594  -2.458   2.354  0.00  0.00    +0.067 C 
ATOM     22  C   UNL     1       0.837  -1.953   1.124  0.00  0.00    -0.063 C 
ATOM     23  H   UNL     1       1.632  -0.076   1.228  0.00  0.00    -0.082 HD
BRANCH  17  25
ATOM     24  C   UNL     1      -0.019   1.526   0.010  0.00  0.00    -0.017 C 
ATOM     25  C   UNL     1       0.002  -0.004   0.002  0.00  0.00    -0.082 C 
ENDBRANCH  17  25
ENDBRANCH   1  20
BRANCH   1  26
ATOM     26  C   UNL     1       1.671  -4.081   4.665  0.00  0.00    -0.025 A 
ATOM     27  C   UNL     1       0.642  -4.835   4.132  0.00  0.00    +0.005 A 
ATOM     28  C   UNL     1       0.771  -6.208   4.034  0.00  0.00    +0.000 A 
ATOM     29  C   UNL     1       1.928  -6.827   4.468  0.00  0.00    +0.000 A 
ATOM     30  C   UNL     1       2.957  -6.072   5.000  0.00  0.00    +0.000 A 
ATOM     31  C   UNL     1       2.830  -4.699   5.095  0.00  0.00    +0.005 A 
ENDBRANCH   1  26
TORSDOF 6
