REMARK  Name = ZINC63165604
REMARK  16 active torsions:
REMARK  status: ('A' for Active; 'I' for Inactive)
REMARK    1  A    between atoms: C_1  and  C_2
REMARK    2  A    between atoms: C_2  and  C_3
REMARK    3  A    between atoms: C_2  and  C_4
REMARK    4  A    between atoms: C_4  and  C_6
REMARK    5  A    between atoms: C_4  and  N_10
REMARK    6  A    between atoms: C_6  and  O_8
REMARK    7  A    between atoms: O_8  and  C_9
REMARK    8  A    between atoms: C_11  and  C_13
REMARK    9  A    between atoms: C_13  and  C_15
REMARK   10  A    between atoms: C_13  and  N_25
REMARK   11  A    between atoms: C_15  and  C_16
REMARK   12  A    between atoms: C_26  and  O_28
REMARK   13  A    between atoms: O_28  and  C_29
REMARK   14  A    between atoms: C_29  and  C_30
REMARK   15  A    between atoms: C_29  and  C_31
REMARK   16  A    between atoms: C_29  and  C_32
REMARK                            x       y       z     vdW  Elec       q    Type
REMARK                         _______ _______ _______ _____ _____    ______ ____
ROOT
ATOM      1  C   UNL     1      -3.456   1.665  -2.381  0.00  0.00    +0.166 C 
ENDROOT
BRANCH   1   3
ATOM      2  N   UNL     1      -2.142  -0.048  -1.174  0.00  0.00    -0.301 N 
ATOM      3  C   UNL     1      -2.727   1.166  -1.160  0.00  0.00    +0.234 C 
ATOM      4  O   UNL     1      -2.667   1.857  -0.165  0.00  0.00    -0.274 OA
ATOM      5  H   UNL     1      -2.190  -0.601  -1.970  0.00  0.00    +0.150 HD
BRANCH   2   6
ATOM      6  C   UNL     1      -1.433  -0.534   0.013  0.00  0.00    +0.184 C 
BRANCH   6   8
ATOM      7  C   UNL     1      -0.019   1.526   0.010  0.00  0.00    +0.009 C 
ATOM      8  C   UNL     1       0.002  -0.004   0.002  0.00  0.00    +0.014 C 
ATOM      9  C   UNL     1       0.742  -0.511   1.242  0.00  0.00    +0.009 C 
ENDBRANCH   6   8
BRANCH   6  10
ATOM     10  C   UNL     1      -1.413  -2.041   0.005  0.00  0.00    +0.328 C 
ATOM     11  O   UNL     1      -1.936  -2.647  -0.900  0.00  0.00    -0.249 OA
BRANCH  10  12
ATOM     12  O   UNL     1      -0.813  -2.709   1.002  0.00  0.00    -0.467 OA
ATOM     13  C   UNL     1      -0.832  -4.136   0.930  0.00  0.00    +0.280 C 
ENDBRANCH  10  12
ENDBRANCH   6  10
ENDBRANCH   2   6
ENDBRANCH   1   3
BRANCH   1  14
ATOM     14  N   UNL     1      -3.580   3.123  -2.313  0.00  0.00    -0.270 N 
ATOM     15  C   UNL     1      -4.236   3.696  -1.285  0.00  0.00    +0.401 C 
ATOM     16  O   UNL     1      -4.725   3.004  -0.414  0.00  0.00    -0.226 OA
ATOM     17  H   UNL     1      -3.190   3.676  -3.008  0.00  0.00    +0.153 HD
BRANCH  15  18
ATOM     18  O   UNL     1      -4.351   5.037  -1.223  0.00  0.00    -0.445 OA
BRANCH  18  19
ATOM     19  C   UNL     1      -5.059   5.576  -0.105  0.00  0.00    +0.107 C 
ATOM     20  C   UNL     1      -4.359   5.163   1.190  0.00  0.00    +0.055 C 
ATOM     21  C   UNL     1      -5.085   7.102  -0.206  0.00  0.00    +0.055 C 
ATOM     22  C   UNL     1      -6.492   5.041  -0.104  0.00  0.00    +0.055 C 
ENDBRANCH  18  19
ENDBRANCH  15  18
ENDBRANCH   1  14
BRANCH   1  23
ATOM     23  C   UNL     1      -4.849   1.036  -2.436  0.00  0.00    +0.065 C 
BRANCH  23  24
ATOM     24  C   UNL     1      -5.532   1.438  -3.718  0.00  0.00    -0.039 C 
ATOM     25  C   UNL     1      -5.571   0.736  -4.873  0.00  0.00    -0.001 A 
ATOM     26  C   UNL     1      -5.010  -0.562  -5.267  0.00  0.00    +0.010 A 
ATOM     27  C   UNL     1      -5.221  -1.013  -6.524  0.00  0.00    +0.001 A 
ATOM     28  C   UNL     1      -5.960  -0.274  -7.458  0.00  0.00    +0.002 A 
ATOM     29  C   UNL     1      -6.506   0.926  -7.171  0.00  0.00    +0.026 A 
ATOM     30  C   UNL     1      -6.348   1.496  -5.878  0.00  0.00    +0.043 A 
ATOM     31  N   UNL     1      -6.773   2.625  -5.363  0.00  0.00    -0.380 N 
ATOM     32  C   UNL     1      -6.318   2.705  -3.971  0.00  0.00    +0.144 C 
ATOM     33  H   UNL     1      -7.303   3.293  -5.825  0.00  0.00    +0.160 HD
ENDBRANCH  23  24
ENDBRANCH   1  23
TORSDOF 10
