REMARK  Name = ZINC02326727
REMARK  6 active torsions:
REMARK  status: ('A' for Active; 'I' for Inactive)
REMARK    1  A    between atoms: C_1  and  C_2
REMARK    2  A    between atoms: C_9  and  N_29
REMARK    3  A    between atoms: C_10  and  C_13
REMARK    4  A    between atoms: N_17  and  C_21
REMARK    5  A    between atoms: C_21  and  C_22
REMARK    6  A    between atoms: C_34  and  N_59
REMARK                            x       y       z     vdW  Elec       q    Type
REMARK                         _______ _______ _______ _____ _____    ______ ____
ROOT
ATOM      1  C   UNL     1       1.489   3.966   0.727  0.00  0.00    +0.047 C 
ATOM      2  C   UNL     1       1.378   2.514   0.343  0.00  0.00    -0.007 A 
ATOM      3  C   UNL     1       0.159   1.966   0.074  0.00  0.00    +0.008 A 
ATOM      4  C   UNL     1       0.072   0.613  -0.282  0.00  0.00    +0.019 A 
ATOM      5  C   UNL     1       1.191  -0.141  -0.358  0.00  0.00    +0.096 A 
ATOM      6  N   UNL     1       2.415   0.397  -0.091  0.00  0.00    -0.267 N 
ATOM      7  C   UNL     1       2.531   1.713   0.260  0.00  0.00    +0.145 A 
ATOM      8  N   UNL     1       3.719   2.257   0.526  0.00  0.00    -0.213 NA
ATOM      9  C   UNL     1       4.838   1.549   0.462  0.00  0.00    +0.136 A 
ATOM     10  C   UNL     1       4.779   0.182   0.104  0.00  0.00    +0.081 A 
ATOM     11  C   UNL     1       3.513  -0.385  -0.176  0.00  0.00    +0.267 A 
ATOM     12  O   UNL     1       3.415  -1.560  -0.487  0.00  0.00    -0.267 OA
ENDROOT
BRANCH  10  13
ATOM     13  C   UNL     1       5.956  -0.599   0.027  0.00  0.00    +0.037 C 
ATOM     14  C   UNL     1       6.987  -0.203  -0.774  0.00  0.00    +0.077 C 
ATOM     15  C   UNL     1       8.269  -0.794  -0.960  0.00  0.00    +0.259 C 
ATOM     16  O   UNL     1       8.586  -1.805  -0.358  0.00  0.00    -0.269 OA
ATOM     17  N   UNL     1       9.104  -0.218  -1.806  0.00  0.00    -0.251 N 
ATOM     18  C   UNL     1       8.756   0.908  -2.469  0.00  0.00    +0.121 C 
ATOM     19  S   UNL     1       9.671   1.819  -3.593  0.00  0.00    -0.027 S 
ATOM     20  S   UNL     1       7.098   1.204  -1.871  0.00  0.00    -0.061 S 
BRANCH  17  21
ATOM     21  C   UNL     1      10.429  -0.803  -2.025  0.00  0.00    +0.150 C 
BRANCH  21  22
ATOM     22  C   UNL     1      11.406  -0.218  -1.038  0.00  0.00    -0.029 A 
ATOM     23  C   UNL     1      12.117   0.922  -1.364  0.00  0.00    +0.008 A 
ATOM     24  C   UNL     1      13.009   1.463  -0.457  0.00  0.00    +0.038 A 
ATOM     25  C   UNL     1      13.199   0.856   0.773  0.00  0.00    +0.123 A 
ATOM     26  C   UNL     1      12.491  -0.290   1.095  0.00  0.00    +0.038 A 
ATOM     27  C   UNL     1      11.595  -0.826   0.189  0.00  0.00    +0.008 A 
ATOM     28  F   UNL     1      14.075   1.380   1.657  0.00  0.00    -0.205 F 
ENDBRANCH  21  22
ENDBRANCH  17  21
ENDBRANCH  10  13
BRANCH   9  29
ATOM     29  N   UNL     1       6.050   2.141   0.744  0.00  0.00    -0.318 N 
ATOM     30  C   UNL     1       6.660   1.547   1.941  0.00  0.00    +0.088 C 
ATOM     31  C   UNL     1       8.037   2.174   2.173  0.00  0.00    -0.060 C 
ATOM     32  C   UNL     1       7.280   4.222   1.129  0.00  0.00    -0.060 C 
ATOM     33  C   UNL     1       5.903   3.595   0.897  0.00  0.00    +0.088 C 
ATOM     34  C   UNL     1       9.183   4.259   2.627  0.00  0.00    -0.096 C 
ATOM     35  N   UNL     1       7.873   3.633   2.348  0.00  0.00    +0.380 N 
ATOM     36  H   UNL     1       7.245   3.805   3.142  0.00  0.00    -0.082 HD
ENDBRANCH   9  29
TORSDOF 4
