REMARK  Name = ZINC12654608
REMARK  10 active torsions:
REMARK  status: ('A' for Active; 'I' for Inactive)
REMARK    1  A    between atoms: C_1  and  C_2
REMARK    2  A    between atoms: C_2  and  C_3
REMARK    3  A    between atoms: C_3  and  C_4
REMARK    4  A    between atoms: C_4  and  O_5
REMARK    5  A    between atoms: O_5  and  C_6
REMARK    6  A    between atoms: C_9  and  C_15
REMARK    7  A    between atoms: C_11  and  N_12
REMARK    8  A    between atoms: C_15  and  C_26
REMARK    9  A    between atoms: N_16  and  N_17
REMARK   10  A    between atoms: C_21  and  C_24
REMARK                            x       y       z     vdW  Elec       q    Type
REMARK                         _______ _______ _______ _____ _____    ______ ____
ROOT
ATOM      1  C   UNL     1      -2.913  -3.907   0.009  0.00  0.00    +0.151 A 
ATOM      2  C   UNL     1      -1.798  -4.736  -0.000  0.00  0.00    +0.048 A 
ATOM      3  C   UNL     1      -1.956  -6.105  -0.006  0.00  0.00    +0.013 A 
ATOM      4  C   UNL     1      -3.239  -6.659  -0.002  0.00  0.00    -0.000 A 
ATOM      5  C   UNL     1      -4.357  -5.821   0.007  0.00  0.00    +0.046 A 
ATOM      6  C   UNL     1      -4.190  -4.453   0.018  0.00  0.00    +0.168 A 
ENDROOT
BRANCH   6   7
ATOM      7  N   UNL     1      -5.373  -3.564   0.034  0.00  0.00    +0.060 N 
ATOM      8  O   UNL     1      -6.485  -4.039   0.042  0.00  0.00    -0.126 OA
ATOM      9  O   UNL     1      -5.228  -2.364   0.038  0.00  0.00    -0.126 OA
ENDBRANCH   6   7
BRANCH   4  10
ATOM     10  C   UNL     1      -3.412  -8.123  -0.009  0.00  0.00    +0.063 C 
ATOM     11  N   UNL     1      -4.604  -8.636  -0.005  0.00  0.00    -0.185 NA
ATOM     12  C   UNL     1      -2.204  -9.025  -0.020  0.00  0.00    +0.068 C 
BRANCH  11  13
ATOM     13  N   UNL     1      -4.769 -10.027  -0.012  0.00  0.00    -0.217 N 
ATOM     14  C   UNL     1      -6.034 -10.570  -0.008  0.00  0.00    +0.148 C 
ATOM     15  N   UNL     1      -6.349 -11.835  -0.007  0.00  0.00    -0.365 N 
ATOM     16  C   UNL     1      -7.735 -12.265  -0.028  0.00  0.00    +0.130 C 
ATOM     17  C   UNL     1      -8.684 -11.116   0.409  0.00  0.00    +0.083 C 
ATOM     18  S   UNL     1      -7.588  -9.691   0.006  0.00  0.00    -0.085 S 
ATOM     19  H   UNL     1      -3.992 -10.607  -0.019  0.00  0.00    +0.176 HD
ATOM     20  H   UNL     1      -5.644 -12.501   0.006  0.00  0.00    +0.161 HD
BRANCH  17  21
ATOM     21  C   UNL     1      -9.968 -11.099  -0.423  0.00  0.00    +0.096 C 
ATOM     22 BR   UNL     1     -11.121  -9.625   0.180  0.00  0.00    -0.091 Br
ENDBRANCH  17  21
ENDBRANCH  11  13
ENDBRANCH   4  10
BRANCH   1  23
ATOM     23  O   UNL     1      -2.753  -2.558   0.015  0.00  0.00    -0.490 OA
BRANCH  23  24
ATOM     24  C   UNL     1      -1.413  -2.063   0.004  0.00  0.00    +0.229 C 
BRANCH  24  25
ATOM     25  C   UNL     1      -1.433  -0.534   0.013  0.00  0.00    +0.041 C 
BRANCH  25  27
ATOM     26  C   UNL     1      -0.019   1.526   0.010  0.00  0.00    +0.004 C 
ATOM     27  C   UNL     1       0.002  -0.004   0.002  0.00  0.00    -0.000 C 
ENDBRANCH  25  27
ENDBRANCH  24  25
ENDBRANCH  23  24
ENDBRANCH   1  23
TORSDOF 8
