REMARK  Name = ZINC09463137
REMARK  4 active torsions:
REMARK  status: ('A' for Active; 'I' for Inactive)
REMARK    1  A    between atoms: C_4  and  N_7
REMARK    2  A    between atoms: C_8  and  C_10
REMARK    3  A    between atoms: N_28  and  C_31
REMARK    4  A    between atoms: C_34  and  N_37
REMARK                            x       y       z     vdW  Elec       q    Type
REMARK                         _______ _______ _______ _____ _____    ______ ____
ROOT
ATOM      1  C   UNL     1       3.921   3.893  -1.538  0.00  0.00    +0.156 C 
ATOM      2  C   UNL     1       3.436   5.348  -1.597  0.00  0.00    +0.118 C 
ATOM      3  C   UNL     1       2.120   5.351  -0.760  0.00  0.00    +0.113 C 
ATOM      4  C   UNL     1       2.308   4.180   0.213  0.00  0.00    +0.100 C 
ATOM      5  C   UNL     1       3.511   1.981   0.112  0.00  0.00    +0.054 C 
ATOM      6  C   UNL     1       2.428   1.341   0.597  0.00  0.00    +0.022 C 
ATOM      7  C   UNL     1       1.113   2.012   0.562  0.00  0.00    -0.019 A 
ATOM      8  C   UNL     1       1.032   3.399   0.384  0.00  0.00    -0.021 A 
ATOM      9  C   UNL     1      -0.193   4.024   0.363  0.00  0.00    +0.006 A 
ATOM     10  C   UNL     1      -1.352   3.280   0.514  0.00  0.00    +0.000 A 
ATOM     11  C   UNL     1      -1.283   1.908   0.681  0.00  0.00    +0.001 A 
ATOM     12  C   UNL     1      -0.059   1.271   0.713  0.00  0.00    +0.008 A 
ATOM     13  C   UNL     1       2.264   6.649   0.019  0.00  0.00    +0.232 C 
ATOM     14  O   UNL     1       1.361   7.268   0.540  0.00  0.00    -0.274 OA
ATOM     15  N   UNL     1       3.561   6.993   0.029  0.00  0.00    -0.210 N 
ATOM     16  C   UNL     1       4.336   6.240  -0.769  0.00  0.00    +0.232 C 
ATOM     17  O   UNL     1       5.547   6.271  -0.818  0.00  0.00    -0.274 OA
ATOM     18  N   UNL     1       3.504   3.472  -0.174  0.00  0.00    -0.383 NA
ATOM     19  H   UNL     1       4.234   3.842   0.446  0.00  0.00    +0.127 HD
ENDROOT
BRANCH  15  20
ATOM     20  C   UNL     1       4.064   8.047   0.806  0.00  0.00    +0.044 A 
ATOM     21  C   UNL     1       4.784   9.071   0.206  0.00  0.00    +0.026 A 
ATOM     22  C   UNL     1       5.273  10.110   0.973  0.00  0.00    +0.034 A 
ATOM     23  C   UNL     1       5.056  10.126   2.338  0.00  0.00    +0.126 A 
ATOM     24  C   UNL     1       4.344   9.104   2.939  0.00  0.00    +0.034 A 
ATOM     25  C   UNL     1       3.848   8.065   2.177  0.00  0.00    +0.026 A 
BRANCH  23  26
ATOM     26  N   UNL     1       5.586  11.238   3.158  0.00  0.00    +0.056 N 
ATOM     27  O   UNL     1       5.395  11.253   4.361  0.00  0.00    -0.126 OA
ATOM     28  O   UNL     1       6.213  12.139   2.630  0.00  0.00    -0.126 OA
ENDBRANCH  23  26
ENDBRANCH  15  20
BRANCH   1  30
ATOM     29  N   UNL     1       6.204   4.032  -2.478  0.00  0.00    -0.284 N 
ATOM     30  C   UNL     1       5.421   3.859  -1.396  0.00  0.00    +0.237 C 
ATOM     31  O   UNL     1       5.922   3.677  -0.307  0.00  0.00    -0.273 OA
ATOM     32  H   UNL     1       5.807   4.257  -3.334  0.00  0.00    +0.155 HD
BRANCH  29  36
ATOM     33  C   UNL     1      10.335   3.601  -2.151  0.00  0.00    +0.000 A 
ATOM     34  C   UNL     1       9.496   2.804  -1.393  0.00  0.00    +0.002 A 
ATOM     35  C   UNL     1       8.126   2.945  -1.500  0.00  0.00    +0.023 A 
ATOM     36  C   UNL     1       7.592   3.888  -2.368  0.00  0.00    +0.033 A 
ATOM     37  C   UNL     1       8.437   4.683  -3.131  0.00  0.00    +0.023 A 
ATOM     38  C   UNL     1       9.806   4.540  -3.016  0.00  0.00    +0.002 A 
ENDBRANCH  29  36
ENDBRANCH   1  30
TORSDOF 4
