REMARK  Name = ZINC01474976
REMARK  9 active torsions:
REMARK  status: ('A' for Active; 'I' for Inactive)
REMARK    1  A    between atoms: C_1  and  C_2
REMARK    2  A    between atoms: C_5  and  C_8
REMARK    3  A    between atoms: C_11  and  S_19
REMARK    4  A    between atoms: N_12  and  C_13
REMARK    5  A    between atoms: S_19  and  C_20
REMARK    6  A    between atoms: C_20  and  C_21
REMARK    7  A    between atoms: N_23  and  N_24
REMARK    8  A    between atoms: C_25  and  C_26
REMARK    9  A    between atoms: C_30  and  O_32
REMARK                            x       y       z     vdW  Elec       q    Type
REMARK                         _______ _______ _______ _____ _____    ______ ____
ROOT
ATOM      1  C   UNL     1      -4.185  14.000   0.112  0.00  0.00    +0.169 A 
ATOM      2  N   UNL     1      -2.902  13.721   0.097  0.00  0.00    -0.128 NA
ATOM      3  N   UNL     1      -2.729  12.447   0.089  0.00  0.00    -0.122 NA
ATOM      4  C   UNL     1      -3.891  11.833   0.098  0.00  0.00    +0.197 A 
ATOM      5  N   UNL     1      -4.860  12.799   0.107  0.00  0.00    -0.270 N 
ENDROOT
BRANCH   1  10
ATOM      6  C   UNL     1      -6.543  19.249   0.164  0.00  0.00    +0.044 C 
ATOM      7  C   UNL     1      -5.926  17.874   0.150  0.00  0.00    -0.050 A 
ATOM      8  C   UNL     1      -4.589  17.723  -0.176  0.00  0.00    +0.004 A 
ATOM      9  C   UNL     1      -4.018  16.467  -0.190  0.00  0.00    +0.012 A 
ATOM     10  C   UNL     1      -4.791  15.348   0.125  0.00  0.00    +0.020 A 
ATOM     11  C   UNL     1      -6.140  15.508   0.447  0.00  0.00    +0.012 A 
ATOM     12  C   UNL     1      -6.697  16.769   0.463  0.00  0.00    +0.004 A 
ENDBRANCH   1  10
BRANCH   5  13
ATOM     13  C   UNL     1      -6.249  12.607   0.113  0.00  0.00    +0.051 A 
ATOM     14  C   UNL     1      -7.013  13.024  -0.969  0.00  0.00    +0.026 A 
ATOM     15  C   UNL     1      -8.380  12.828  -0.963  0.00  0.00    +0.002 A 
ATOM     16  C   UNL     1      -8.989  12.227   0.124  0.00  0.00    +0.000 A 
ATOM     17  C   UNL     1      -8.231  11.816   1.205  0.00  0.00    +0.002 A 
ATOM     18  C   UNL     1      -6.863  12.004   1.202  0.00  0.00    +0.026 A 
ENDBRANCH   5  13
BRANCH   4  19
ATOM     19  S   UNL     1      -4.152  10.090   0.093  0.00  0.00    -0.076 S 
BRANCH  19  20
ATOM     20  C   UNL     1      -2.436   9.515   0.073  0.00  0.00    +0.174 C 
BRANCH  20  21
ATOM     21  C   UNL     1      -2.411   8.008   0.066  0.00  0.00    +0.242 C 
ATOM     22  O   UNL     1      -3.452   7.385   0.073  0.00  0.00    -0.273 OA
ATOM     23  N   UNL     1      -1.233   7.354   0.051  0.00  0.00    -0.206 N 
ATOM     24  H   UNL     1      -0.290   7.920   0.044  0.00  0.00    +0.177 HD
BRANCH  23  25
ATOM     25  N   UNL     1      -1.210   5.953   0.044  0.00  0.00    -0.188 NA
ATOM     26  C   UNL     1      -0.076   5.323   0.030  0.00  0.00    +0.138 C 
BRANCH  26  27
ATOM     27  C   UNL     1      -0.051   3.849   0.023  0.00  0.00    -0.002 A 
ATOM     28  C   UNL     1      -1.248   3.127   0.031  0.00  0.00    +0.010 A 
ATOM     29  C   UNL     1      -1.221   1.748   0.017  0.00  0.00    +0.004 A 
ATOM     30  C   UNL     1      -0.013   1.076   0.008  0.00  0.00    +0.045 A 
ATOM     31  C   UNL     1       1.182   1.784   0.000  0.00  0.00    +0.117 A 
ATOM     32  C   UNL     1       1.167   3.168   0.007  0.00  0.00    +0.054 A 
BRANCH  31  33
ATOM     33  O   UNL     1       2.366   1.117  -0.015  0.00  0.00    -0.507 OA
ATOM     34  H   UNL     1       3.313   1.677  -0.021  0.00  0.00    +0.292 HD
ENDBRANCH  31  33
ENDBRANCH  26  27
ENDBRANCH  23  25
ENDBRANCH  20  21
ENDBRANCH  19  20
ENDBRANCH   4  19
TORSDOF 8
