REMARK  Name = ZINC30960754
REMARK  11 active torsions:
REMARK  status: ('A' for Active; 'I' for Inactive)
REMARK    1  A    between atoms: C_1  and  C_2
REMARK    2  A    between atoms: C_2  and  C_3
REMARK    3  A    between atoms: C_2  and  C_4
REMARK    4  A    between atoms: C_4  and  C_6
REMARK    5  A    between atoms: C_4  and  N_22
REMARK    6  A    between atoms: N_8  and  N_9
REMARK    7  A    between atoms: C_10  and  C_11
REMARK    8  A    between atoms: C_16  and  O_17
REMARK    9  A    between atoms: O_17  and  C_18
REMARK   10  A    between atoms: C_18  and  C_19
REMARK   11  A    between atoms: C_23  and  C_25
REMARK                            x       y       z     vdW  Elec       q    Type
REMARK                         _______ _______ _______ _____ _____    ______ ____
ROOT
ATOM      1  C   UNL     1      -0.971   1.753  -1.067  0.00  0.00    +0.253 C 
ATOM      2  O   UNL     1      -1.216   2.789  -0.485  0.00  0.00    -0.272 OA
ATOM      3  N   UNL     1       0.288   1.272  -1.085  0.00  0.00    -0.205 N 
ATOM      4  H   UNL     1       0.528   0.383  -1.687  0.00  0.00    +0.177 HD
ENDROOT
BRANCH   3   5
ATOM      5  N   UNL     1       1.291   1.905  -0.339  0.00  0.00    -0.188 NA
ATOM      6  C   UNL     1       2.515   1.477  -0.403  0.00  0.00    +0.142 C 
BRANCH   6   7
ATOM      7  C   UNL     1       2.788   0.074  -0.760  0.00  0.00    +0.036 A 
ATOM      8  C   UNL     1       1.739  -0.845  -0.850  0.00  0.00    +0.013 A 
ATOM      9  C   UNL     1       2.001  -2.155  -1.190  0.00  0.00    +0.001 A 
ATOM     10  C   UNL     1       3.300  -2.567  -1.432  0.00  0.00    +0.004 A 
ATOM     11  C   UNL     1       4.347  -1.670  -1.341  0.00  0.00    +0.046 A 
ATOM     12  C   UNL     1       4.101  -0.348  -1.006  0.00  0.00    +0.130 A 
BRANCH  12  13
ATOM     13  O   UNL     1       5.129   0.535  -0.916  0.00  0.00    -0.482 OA
BRANCH  13  14
ATOM     14  C   UNL     1       6.425   0.061  -1.287  0.00  0.00    +0.324 C 
BRANCH  14  15
ATOM     15  C   UNL     1       7.449   1.134  -1.016  0.00  0.00    +0.248 C 
ATOM     16  O   UNL     1       7.117   2.164  -0.468  0.00  0.00    -0.272 OA
ATOM     17  N   UNL     1       8.732   0.949  -1.383  0.00  0.00    -0.327 N 
ATOM     18  H   UNL     1       9.479   1.732  -1.185  0.00  0.00    +0.145 HD
ATOM     19  H   UNL     1       9.033   0.015  -1.881  0.00  0.00    +0.145 HD
ENDBRANCH  14  15
ENDBRANCH  13  14
ENDBRANCH  12  13
ENDBRANCH   6   7
ENDBRANCH   3   5
BRANCH   1  20
ATOM     20  C   UNL     1      -2.074   1.004  -1.769  0.00  0.00    +0.163 C 
BRANCH  20  21
ATOM     21  N   UNL     1      -3.138   1.939  -2.142  0.00  0.00    -0.300 N 
ATOM     22  C   UNL     1      -4.009   1.615  -3.118  0.00  0.00    +0.245 C 
ATOM     23  O   UNL     1      -3.857   0.588  -3.752  0.00  0.00    -0.270 OA
ATOM     24  H   UNL     1      -3.227   2.906  -1.625  0.00  0.00    +0.150 HD
BRANCH  22  25
ATOM     25  C   UNL     1      -5.149   2.507  -3.419  0.00  0.00    +0.038 A 
ATOM     26  C   UNL     1      -5.329   3.683  -2.689  0.00  0.00    +0.014 A 
ATOM     27  C   UNL     1      -6.391   4.514  -2.977  0.00  0.00    +0.022 A 
ATOM     28  C   UNL     1      -7.285   4.179  -3.980  0.00  0.00    +0.059 A 
ATOM     29  C   UNL     1      -7.114   3.010  -4.705  0.00  0.00    +0.060 A 
ATOM     30  C   UNL     1      -6.052   2.173  -4.429  0.00  0.00    +0.034 A 
ATOM     31 CL   UNL     1      -8.239   2.598  -5.962  0.00  0.00    -0.082 Cl
ATOM     32 CL   UNL     1      -8.623   5.227  -4.332  0.00  0.00    -0.082 Cl
ENDBRANCH  22  25
ENDBRANCH  20  21
BRANCH  20  34
ATOM     33  C   UNL     1      -1.529  -1.045  -0.448  0.00  0.00    +0.009 C 
ATOM     34  C   UNL     1      -2.640  -0.066  -0.834  0.00  0.00    +0.012 C 
ATOM     35  C   UNL     1      -3.193   0.600   0.427  0.00  0.00    +0.009 C 
ENDBRANCH  20  34
ENDBRANCH   1  20
TORSDOF 9
