REMARK  Name = ZINC12743360
REMARK  9 active torsions:
REMARK  status: ('A' for Active; 'I' for Inactive)
REMARK    1  A    between atoms: C_1  and  C_2
REMARK    2  A    between atoms: C_5  and  C_8
REMARK    3  A    between atoms: C_8  and  N_9
REMARK    4  A    between atoms: C_16  and  C_18
REMARK    5  A    between atoms: C_18  and  N_19
REMARK    6  A    between atoms: C_22  and  C_26
REMARK    7  A    between atoms: C_22  and  C_27
REMARK    8  A    between atoms: C_30  and  O_33
REMARK    9  A    between atoms: O_33  and  C_34
REMARK                            x       y       z     vdW  Elec       q    Type
REMARK                         _______ _______ _______ _____ _____    ______ ____
ROOT
ATOM      1  N   UNL     1       1.520  -4.758  -0.031  0.00  0.00    -0.331 N 
ATOM      2  C   UNL     1       2.222  -4.744  -1.190  0.00  0.00    +0.088 A 
ATOM      3  C   UNL     1       3.577  -4.726  -1.179  0.00  0.00    +0.018 A 
ATOM      4  C   UNL     1       4.268  -4.723   0.037  0.00  0.00    +0.005 A 
ATOM      5  C   UNL     1       3.565  -4.737   1.210  0.00  0.00    +0.042 A 
ATOM      6  C   UNL     1       2.165  -4.750   1.170  0.00  0.00    +0.105 A 
ATOM      7  N   UNL     1       1.460  -4.758   2.311  0.00  0.00    -0.270 N 
ATOM      8  C   UNL     1       2.054  -5.069   3.454  0.00  0.00    +0.236 C 
ATOM      9  O   UNL     1       3.206  -5.460   3.454  0.00  0.00    -0.274 OA
ATOM     10  H   UNL     1       0.516  -4.537   2.300  0.00  0.00    +0.156 HD
ENDROOT
BRANCH   1  11
ATOM     11  C   UNL     1       0.056  -4.777  -0.069  0.00  0.00    +0.158 C 
BRANCH  11  16
ATOM     12  C   UNL     1      -1.944   0.644  -0.119  0.00  0.00    +0.044 C 
ATOM     13  C   UNL     1      -1.422  -0.770  -0.106  0.00  0.00    -0.050 A 
ATOM     14  C   UNL     1      -1.151  -1.418  -1.297  0.00  0.00    +0.004 A 
ATOM     15  C   UNL     1      -0.673  -2.715  -1.285  0.00  0.00    +0.005 A 
ATOM     16  C   UNL     1      -0.465  -3.363  -0.082  0.00  0.00    -0.028 A 
ATOM     17  C   UNL     1      -0.735  -2.715   1.109  0.00  0.00    +0.005 A 
ATOM     18  C   UNL     1      -1.209  -1.417   1.097  0.00  0.00    +0.004 A 
ENDBRANCH  11  16
ENDBRANCH   1  11
BRANCH   8  19
ATOM     19  C   UNL     1       1.302  -4.938   4.753  0.00  0.00    +0.214 C 
BRANCH  19  20
ATOM     20  N   UNL     1       2.171  -5.339   5.863  0.00  0.00    -0.215 N 
ATOM     21  C   UNL     1       2.267  -6.599   6.332  0.00  0.00    +0.251 C 
ATOM     22  O   UNL     1       1.673  -7.577   5.931  0.00  0.00    -0.272 OA
ATOM     23  C   UNL     1       3.272  -6.539   7.465  0.00  0.00    +0.135 C 
ATOM     24  N   UNL     1       3.663  -5.119   7.506  0.00  0.00    -0.281 N 
ATOM     25  C   UNL     1       2.971  -4.501   6.531  0.00  0.00    +0.310 C 
ATOM     26  O   UNL     1       3.062  -3.314   6.287  0.00  0.00    -0.252 OA
ATOM     27  C   UNL     1       2.622  -6.957   8.785  0.00  0.00    +0.047 C 
ATOM     28  H   UNL     1       4.297  -4.710   8.115  0.00  0.00    +0.152 HD
BRANCH  23  29
ATOM     29  C   UNL     1       4.465  -7.409   7.161  0.00  0.00    -0.015 A 
ATOM     30  C   UNL     1       4.315  -8.536   6.375  0.00  0.00    +0.010 A 
ATOM     31  C   UNL     1       5.407  -9.335   6.096  0.00  0.00    +0.046 A 
ATOM     32  C   UNL     1       6.655  -9.005   6.604  0.00  0.00    +0.120 A 
ATOM     33  C   UNL     1       6.803  -7.872   7.392  0.00  0.00    +0.046 A 
ATOM     34  C   UNL     1       5.709  -7.074   7.664  0.00  0.00    +0.010 A 
BRANCH  32  35
ATOM     35  O   UNL     1       7.731  -9.789   6.331  0.00  0.00    -0.495 OA
ATOM     36  C   UNL     1       8.984  -9.388   6.888  0.00  0.00    +0.277 C 
ENDBRANCH  32  35
ENDBRANCH  23  29
ENDBRANCH  19  20
ENDBRANCH   8  19
TORSDOF 6
