REMARK  Name = ZINC05884889
REMARK  9 active torsions:
REMARK  status: ('A' for Active; 'I' for Inactive)
REMARK    1  A    between atoms: C_1  and  C_2
REMARK    2  A    between atoms: C_5  and  C_9
REMARK    3  A    between atoms: C_7  and  C_8
REMARK    4  A    between atoms: C_9  and  C_11
REMARK    5  A    between atoms: C_9  and  N_12
REMARK    6  A    between atoms: C_13  and  C_15
REMARK    7  A    between atoms: C_15  and  S_16
REMARK    8  A    between atoms: S_16  and  C_17
REMARK    9  A    between atoms: C_28  and  C_30
REMARK                            x       y       z     vdW  Elec       q    Type
REMARK                         _______ _______ _______ _____ _____    ______ ____
ROOT
ATOM      1  C   UNL     1      -0.013   1.086   0.008  0.00  0.00    +0.173 C 
ENDROOT
BRANCH   1   3
ATOM      2  N   UNL     1      -0.288   1.272  -2.443  0.00  0.00    -0.308 N 
ATOM      3  C   UNL     1      -0.742   1.585  -1.213  0.00  0.00    +0.224 C 
ATOM      4  O   UNL     1      -1.736   2.268  -1.088  0.00  0.00    -0.275 OA
ATOM      5  H   UNL     1       0.507   0.726  -2.543  0.00  0.00    +0.149 HD
BRANCH   2   6
ATOM      6  C   UNL     1      -0.997   1.758  -3.630  0.00  0.00    +0.100 C 
ATOM      7  C   UNL     1      -2.141   0.800  -3.968  0.00  0.00    +0.033 C 
BRANCH   6  12
ATOM      8  C   UNL     1       2.670   2.026  -8.088  0.00  0.00    +0.044 C 
ATOM      9  C   UNL     1       1.714   1.956  -6.925  0.00  0.00    -0.048 A 
ATOM     10  C   UNL     1       1.774   0.892  -6.044  0.00  0.00    +0.004 A 
ATOM     11  C   UNL     1       0.897   0.828  -4.978  0.00  0.00    +0.006 A 
ATOM     12  C   UNL     1      -0.041   1.828  -4.792  0.00  0.00    -0.027 A 
ATOM     13  C   UNL     1      -0.104   2.888  -5.677  0.00  0.00    +0.009 A 
ATOM     14  C   UNL     1       0.777   2.955  -6.740  0.00  0.00    -0.047 A 
ATOM     15  C   UNL     1       0.712   4.114  -7.700  0.00  0.00    +0.044 C 
ENDBRANCH   6  12
ENDBRANCH   2   6
ENDBRANCH   1   3
BRANCH   1  16
ATOM     16  S   UNL     1      -0.860   1.669   1.497  0.00  0.00    -0.076 S 
BRANCH  16  17
ATOM     17  C   UNL     1       0.174   0.961   2.735  0.00  0.00    +0.197 A 
ATOM     18  N   UNL     1       1.245   0.225   2.530  0.00  0.00    -0.122 NA
ATOM     19  N   UNL     1       1.763  -0.129   3.653  0.00  0.00    -0.129 NA
ATOM     20  C   UNL     1       1.050   0.362   4.650  0.00  0.00    +0.162 A 
ATOM     21  N   UNL     1       0.017   1.077   4.085  0.00  0.00    -0.270 N 
ATOM     22  C   UNL     1      -0.914   1.725   4.878  0.00  0.00    +0.058 A 
ATOM     23  C   UNL     1      -1.958   2.445   4.311  0.00  0.00    +0.027 A 
ATOM     24  C   UNL     1      -2.874   3.083   5.121  0.00  0.00    +0.002 A 
ATOM     25  C   UNL     1      -2.764   3.015   6.502  0.00  0.00    +0.001 A 
ATOM     26  C   UNL     1      -1.737   2.307   7.085  0.00  0.00    +0.010 A 
ATOM     27  C   UNL     1      -0.801   1.655   6.278  0.00  0.00    +0.002 A 
ATOM     28  C   UNL     1       0.304   0.894   6.870  0.00  0.00    -0.038 A 
ATOM     29  C   UNL     1       1.185   0.270   6.055  0.00  0.00    +0.052 A 
ATOM     30  C   UNL     1       0.451   0.800   8.366  0.00  0.00    +0.044 C 
ENDBRANCH  16  17
ENDBRANCH   1  16
TORSDOF 5
