REMARK  Name = ZINC14537069
REMARK  7 active torsions:
REMARK  status: ('A' for Active; 'I' for Inactive)
REMARK    1  A    between atoms: C_1  and  C_2
REMARK    2  A    between atoms: C_2  and  N_3
REMARK    3  A    between atoms: N_6  and  C_25
REMARK    4  A    between atoms: C_14  and  N_67
REMARK    5  A    between atoms: C_25  and  C_26
REMARK    6  A    between atoms: C_26  and  C_27
REMARK    7  A    between atoms: C_27  and  C_28
REMARK                            x       y       z     vdW  Elec       q    Type
REMARK                         _______ _______ _______ _____ _____    ______ ____
ROOT
ATOM      1  N   UNL     1       0.499  -5.322  -5.002  0.00  0.00    -0.271 N 
ATOM      2  C   UNL     1       0.444  -4.946  -3.710  0.00  0.00    +0.312 C 
ATOM      3  O   UNL     1      -0.577  -4.933  -3.052  0.00  0.00    -0.252 OA
ATOM      4  N   UNL     1       1.641  -4.583  -3.233  0.00  0.00    -0.224 N 
ATOM      5  C   UNL     1       2.605  -4.697  -4.171  0.00  0.00    +0.247 C 
ATOM      6  O   UNL     1       3.785  -4.449  -4.045  0.00  0.00    -0.273 OA
ATOM      7  C   UNL     1       1.903  -5.197  -5.411  0.00  0.00    +0.112 C 
ATOM      8  C   UNL     1       2.461  -6.553  -5.831  0.00  0.00    +0.017 C 
ATOM      9  C   UNL     1       1.751  -7.022  -7.104  0.00  0.00    -0.076 C 
ATOM     10  C   UNL     1       1.344  -4.734  -7.797  0.00  0.00    -0.076 C 
ATOM     11  C   UNL     1       2.041  -4.189  -6.547  0.00  0.00    +0.017 C 
ATOM     12  N   UNL     1       1.970  -6.021  -8.170  0.00  0.00    +0.382 N 
ATOM     13  H   UNL     1       2.980  -5.878  -8.289  0.00  0.00    -0.081 HD
ENDROOT
BRANCH  12  14
ATOM     14  C   UNL     1       1.401  -6.508  -9.443  0.00  0.00    -0.064 C 
ATOM     15  C   UNL     1       2.023  -7.868  -9.785  0.00  0.00    -0.010 C 
ATOM     16  C   UNL     1       1.634  -8.228 -11.217  0.00  0.00    +0.034 C 
ATOM     17  C   UNL     1       0.146  -8.101 -11.410  0.00  0.00    -0.044 A 
ATOM     18  C   UNL     1      -0.420  -8.732 -12.510  0.00  0.00    +0.004 A 
ATOM     19  C   UNL     1      -1.777  -8.649 -12.745  0.00  0.00    +0.000 A 
ATOM     20  C   UNL     1      -2.581  -7.930 -11.880  0.00  0.00    +0.000 A 
ATOM     21  C   UNL     1      -2.021  -7.304 -10.786  0.00  0.00    +0.004 A 
ATOM     22  C   UNL     1      -0.655  -7.389 -10.546  0.00  0.00    -0.046 A 
ATOM     23  C   UNL     1      -0.112  -6.685  -9.330  0.00  0.00    +0.020 C 
ENDBRANCH  12  14
BRANCH   1  25
ATOM     24  C   UNL     1      -1.590  -4.610  -6.056  0.00  0.00    +0.024 C 
ATOM     25  C   UNL     1      -0.621  -5.773  -5.832  0.00  0.00    +0.107 C 
ENDBRANCH   1  25
BRANCH   4  26
ATOM     26  C   UNL     1       1.877  -4.126  -1.861  0.00  0.00    +0.118 C 
BRANCH  26  27
ATOM     27  C   UNL     1       1.719  -2.606  -1.796  0.00  0.00    +0.024 C 
BRANCH  27  28
ATOM     28  C   UNL     1       1.965  -2.129  -0.363  0.00  0.00    +0.038 C 
BRANCH  28  29
ATOM     29  C   UNL     1       1.809  -0.631  -0.298  0.00  0.00    -0.029 A 
ATOM     30  C   UNL     1       2.899   0.198  -0.512  0.00  0.00    +0.006 A 
ATOM     31  C   UNL     1       2.708   1.570  -0.442  0.00  0.00    +0.020 A 
ATOM     32  C   UNL     1       1.447   2.061  -0.164  0.00  0.00    +0.111 A 
ATOM     33  N   UNL     1       0.432   1.242   0.034  0.00  0.00    -0.263 NA
ATOM     34  C   UNL     1       0.577  -0.068  -0.025  0.00  0.00    +0.114 A 
ENDBRANCH  28  29
ENDBRANCH  27  28
ENDBRANCH  26  27
ENDBRANCH   4  26
TORSDOF 6
