REMARK  Name = ZINC01115199
REMARK  14 active torsions:
REMARK  status: ('A' for Active; 'I' for Inactive)
REMARK    1  A    between atoms: C_1  and  C_2
REMARK    2  A    between atoms: C_2  and  C_3
REMARK    3  A    between atoms: C_2  and  C_4
REMARK    4  A    between atoms: C_4  and  C_5
REMARK    5  A    between atoms: C_5  and  N_6
REMARK    6  A    between atoms: N_6  and  S_7
REMARK    7  A    between atoms: S_7  and  C_10
REMARK    8  A    between atoms: C_17  and  S_25
REMARK    9  A    between atoms: S_25  and  N_28
REMARK   10  A    between atoms: N_28  and  C_29
REMARK   11  A    between atoms: C_29  and  C_30
REMARK   12  A    between atoms: C_30  and  C_31
REMARK   13  A    between atoms: C_31  and  C_32
REMARK   14  A    between atoms: C_31  and  C_33
REMARK                            x       y       z     vdW  Elec       q    Type
REMARK                         _______ _______ _______ _____ _____    ______ ____
ROOT
ATOM      1  C   UNL     1      -1.571   2.658  -1.502  0.00  0.00    +0.106 A 
ATOM      2  C   UNL     1      -2.151   2.052  -2.606  0.00  0.00    +0.029 A 
ATOM      3  C   UNL     1      -2.251   2.726  -3.806  0.00  0.00    +0.011 A 
ATOM      4  C   UNL     1      -1.765   4.024  -3.906  0.00  0.00    -0.000 A 
ATOM      5  C   UNL     1      -1.845   4.795  -5.162  0.00  0.00    +0.025 A 
ATOM      6  C   UNL     1      -2.419   4.239  -6.304  0.00  0.00    +0.014 A 
ATOM      7  C   UNL     1      -2.483   4.976  -7.467  0.00  0.00    +0.029 A 
ATOM      8  C   UNL     1      -1.979   6.266  -7.502  0.00  0.00    +0.109 A 
ATOM      9  C   UNL     1      -1.410   6.827  -6.378  0.00  0.00    +0.075 A 
ATOM     10  C   UNL     1      -1.335   6.100  -5.195  0.00  0.00    +0.142 A 
ATOM     11  O   UNL     1      -0.776   6.659  -4.099  0.00  0.00    -0.422 OA
ATOM     12  C   UNL     1      -0.671   6.016  -2.925  0.00  0.00    +0.345 A 
ATOM     13  O   UNL     1      -0.157   6.572  -1.974  0.00  0.00    -0.245 OA
ATOM     14  C   UNL     1      -1.174   4.642  -2.784  0.00  0.00    +0.069 A 
ATOM     15  C   UNL     1      -1.088   3.947  -1.580  0.00  0.00    +0.044 A 
ENDROOT
BRANCH   1  16
ATOM     16  S   UNL     1      -1.456   1.774   0.019  0.00  0.00    +0.058 S 
ATOM     17  O   UNL     1      -2.475   0.784  -0.009  0.00  0.00    -0.153 OA
ATOM     18  O   UNL     1      -1.369   2.749   1.049  0.00  0.00    -0.153 OA
BRANCH  16  19
ATOM     19  N   UNL     1      -0.011   0.966   0.007  0.00  0.00    -0.190 NA
ATOM     20  H   UNL     1       0.002  -0.004   0.002  0.00  0.00    +0.148 HD
BRANCH  19  21
ATOM     21  C   UNL     1       1.248   1.716  -0.001  0.00  0.00    +0.106 C 
BRANCH  21  22
ATOM     22  C   UNL     1       2.402   0.777   0.357  0.00  0.00    +0.020 C 
BRANCH  22  24
ATOM     23  C   UNL     1       4.853   0.654   0.826  0.00  0.00    +0.007 C 
ATOM     24  C   UNL     1       3.717   1.560   0.348  0.00  0.00    -0.016 C 
ATOM     25  C   UNL     1       4.013   2.044  -1.073  0.00  0.00    +0.007 C 
ENDBRANCH  22  24
ENDBRANCH  21  22
ENDBRANCH  19  21
ENDBRANCH  16  19
ENDBRANCH   1  16
BRANCH   8  26
ATOM     26  S   UNL     1      -2.067   7.199  -8.994  0.00  0.00    +0.059 S 
ATOM     27  O   UNL     1      -3.136   6.651  -9.753  0.00  0.00    -0.153 OA
ATOM     28  O   UNL     1      -2.023   8.569  -8.620  0.00  0.00    -0.153 OA
BRANCH  26  29
ATOM     29  N   UNL     1      -0.678   6.895  -9.844  0.00  0.00    -0.190 NA
ATOM     30  H   UNL     1      -0.042   7.609 -10.005  0.00  0.00    +0.148 HD
BRANCH  29  31
ATOM     31  C   UNL     1      -0.411   5.548 -10.352  0.00  0.00    +0.106 C 
BRANCH  31  32
ATOM     32  C   UNL     1       0.708   5.609 -11.394  0.00  0.00    +0.020 C 
BRANCH  32  33
ATOM     33  C   UNL     1       0.988   4.201 -11.925  0.00  0.00    -0.016 C 
ATOM     34  C   UNL     1      -0.240   3.688 -12.680  0.00  0.00    +0.007 C 
ATOM     35  C   UNL     1       2.188   4.243 -12.873  0.00  0.00    +0.007 C 
ENDBRANCH  32  33
ENDBRANCH  31  32
ENDBRANCH  29  31
ENDBRANCH  26  29
ENDBRANCH   8  26
TORSDOF 10
