REMARK  Name = ZINC42529902
REMARK  9 active torsions:
REMARK  status: ('A' for Active; 'I' for Inactive)
REMARK    1  A    between atoms: C_1  and  C_2
REMARK    2  A    between atoms: C_2  and  C_3
REMARK    3  A    between atoms: C_2  and  N_4
REMARK    4  A    between atoms: N_4  and  C_5
REMARK    5  A    between atoms: N_4  and  S_11
REMARK    6  A    between atoms: C_5  and  C_6
REMARK    7  A    between atoms: C_6  and  C_7
REMARK    8  A    between atoms: N_8  and  O_9
REMARK    9  A    between atoms: S_11  and  C_14
REMARK                            x       y       z     vdW  Elec       q    Type
REMARK                         _______ _______ _______ _____ _____    ______ ____
ROOT
ATOM      1  N   UNL     1      -1.373  -0.517   0.130  0.00  0.00    -0.174 NA
ENDROOT
BRANCH   1   3
ATOM      2  C   UNL     1      -0.131   1.577  -0.105  0.00  0.00    +0.025 C 
ATOM      3  C   UNL     1      -0.035   0.051  -0.056  0.00  0.00    +0.074 C 
ATOM      4  C   UNL     1       0.863  -0.366   1.111  0.00  0.00    +0.025 C 
ENDBRANCH   1   3
BRANCH   1   5
ATOM      5  S   UNL     1      -1.949  -1.644  -0.938  0.00  0.00    +0.061 S 
ATOM      6  O   UNL     1      -3.367  -1.586  -0.863  0.00  0.00    -0.153 OA
ATOM      7  O   UNL     1      -1.241  -1.450  -2.155  0.00  0.00    -0.153 OA
BRANCH   5   8
ATOM      8  C   UNL     1      -1.477  -3.228  -0.328  0.00  0.00    +0.108 A 
ATOM      9  C   UNL     1      -0.268  -3.781  -0.705  0.00  0.00    +0.048 A 
ATOM     10  C   UNL     1       0.103  -5.026  -0.227  0.00  0.00    +0.044 A 
ATOM     11  C   UNL     1      -0.737  -5.716   0.629  0.00  0.00    +0.040 A 
ATOM     12  C   UNL     1      -1.947  -5.161   1.007  0.00  0.00    +0.044 A 
ATOM     13  C   UNL     1      -2.314  -3.915   0.532  0.00  0.00    +0.048 A 
ATOM     14 CL   UNL     1      -3.001  -6.027   2.080  0.00  0.00    -0.083 Cl
ATOM     15 CL   UNL     1       1.621  -5.721  -0.701  0.00  0.00    -0.083 Cl
ENDBRANCH   5   8
ENDBRANCH   1   5
BRANCH   1  16
ATOM     16  C   UNL     1      -2.200  -0.087   1.260  0.00  0.00    +0.117 C 
BRANCH  16  17
ATOM     17  C   UNL     1      -2.978   1.172   0.873  0.00  0.00    +0.091 C 
BRANCH  17  18
ATOM     18  C   UNL     1      -3.926   1.539   1.985  0.00  0.00    +0.133 C 
ATOM     19  N   UNL     1      -3.979   0.815   3.054  0.00  0.00    -0.077 NA
ATOM     20  N   UNL     1      -4.737   2.645   1.862  0.00  0.00    -0.344 N 
ATOM     21  H   UNL     1      -4.698   3.188   1.059  0.00  0.00    +0.144 HD
ATOM     22  H   UNL     1      -5.348   2.881   2.578  0.00  0.00    +0.144 HD
BRANCH  19  23
ATOM     23  O   UNL     1      -4.870   1.159   4.099  0.00  0.00    -0.408 OA
ATOM     24  H   UNL     1      -4.838   0.559   4.856  0.00  0.00    +0.328 HD
ENDBRANCH  19  23
ENDBRANCH  17  18
ENDBRANCH  16  17
ENDBRANCH   1  16
TORSDOF 7
