REMARK  Name = ZINC40448652
REMARK  13 active torsions:
REMARK  status: ('A' for Active; 'I' for Inactive)
REMARK    1  A    between atoms: C_1  and  C_2
REMARK    2  A    between atoms: C_6  and  C_33
REMARK    3  A    between atoms: C_8  and  C_11
REMARK    4  A    between atoms: C_11  and  C_20
REMARK    5  A    between atoms: C_14  and  C_17
REMARK    6  A    between atoms: C_17  and  C_18
REMARK    7  A    between atoms: C_18  and  O_19
REMARK    8  A    between atoms: C_23  and  C_32
REMARK    9  A    between atoms: C_27  and  C_29
REMARK   10  A    between atoms: C_29  and  C_30
REMARK   11  A    between atoms: C_29  and  C_31
REMARK   12  A    between atoms: C_33  and  C_34
REMARK   13  A    between atoms: C_33  and  C_35
REMARK                            x       y       z     vdW  Elec       q    Type
REMARK                         _______ _______ _______ _____ _____    ______ ____
ROOT
ATOM      1  C   UNL     1       0.131  -4.702   1.862  0.00  0.00    +0.177 C 
ATOM      2  O   UNL     1      -0.268  -4.448   3.215  0.00  0.00    -0.345 OA
ATOM      3  C   UNL     1      -0.667  -5.710   3.788  0.00  0.00    +0.195 C 
ATOM      4  C   UNL     1      -0.993  -6.573   2.544  0.00  0.00    +0.149 C 
ATOM      5  O   UNL     1      -0.002  -6.109   1.596  0.00  0.00    -0.342 OA
ENDROOT
BRANCH   1  11
ATOM      6  C   UNL     1      -1.439  -0.135   0.579  0.00  0.00    +0.007 C 
ATOM      7  C   UNL     1      -1.549  -1.628   0.264  0.00  0.00    -0.014 C 
ATOM      8  C   UNL     1      -3.001  -2.080   0.433  0.00  0.00    +0.003 C 
ATOM      9  C   UNL     1      -3.111  -3.573   0.118  0.00  0.00    +0.004 C 
ATOM     10  C   UNL     1      -2.216  -4.363   1.075  0.00  0.00    -0.000 C 
ATOM     11  C   UNL     1      -0.764  -3.912   0.905  0.00  0.00    +0.052 C 
ATOM     12  C   UNL     1      -0.654  -2.419   1.220  0.00  0.00    +0.012 C 
BRANCH  10  13
ATOM     13  C   UNL     1      -2.663  -4.112   2.516  0.00  0.00    -0.014 C 
ATOM     14  C   UNL     1      -3.321  -2.735   2.613  0.00  0.00    +0.007 C 
ATOM     15  C   UNL     1      -3.668  -5.188   2.933  0.00  0.00    +0.007 C 
ENDBRANCH  10  13
ENDBRANCH   1  11
BRANCH   1  16
ATOM     16  C   UNL     1       1.589  -4.278   1.671  0.00  0.00    +0.052 C 
ATOM     17  C   UNL     1       2.075  -4.733   0.293  0.00  0.00    +0.012 C 
ATOM     18  C   UNL     1       3.533  -4.309   0.102  0.00  0.00    -0.014 C 
ATOM     19  C   UNL     1       4.398  -4.954   1.187  0.00  0.00    +0.003 C 
ATOM     20  C   UNL     1       3.911  -4.499   2.564  0.00  0.00    +0.004 C 
ATOM     21  C   UNL     1       2.454  -4.923   2.755  0.00  0.00    -0.000 C 
ATOM     22  C   UNL     1       4.020  -4.764  -1.276  0.00  0.00    +0.007 C 
BRANCH  21  23
ATOM     23  C   UNL     1       2.348  -6.446   2.654  0.00  0.00    -0.014 C 
ATOM     24  C   UNL     1       3.089  -6.927   1.405  0.00  0.00    +0.007 C 
ATOM     25  C   UNL     1       2.974  -7.084   3.896  0.00  0.00    +0.007 C 
ENDBRANCH  21  23
ENDBRANCH   1  16
BRANCH   4  26
ATOM     26  C   UNL     1      -0.809  -8.061   2.846  0.00  0.00    +0.062 C 
BRANCH  26  27
ATOM     27  C   UNL     1      -1.280  -8.887   1.647  0.00  0.00    +0.158 C 
BRANCH  27  28
ATOM     28  O   UNL     1      -1.108 -10.277   1.929  0.00  0.00    -0.395 OA
ATOM     29  H   UNL     1      -1.387 -10.862   1.210  0.00  0.00    +0.209 HD
ENDBRANCH  27  28
ENDBRANCH  26  27
ENDBRANCH   4  26
TORSDOF 7
