REMARK  Name = ZINC35183201
REMARK  2 active torsions:
REMARK  status: ('A' for Active; 'I' for Inactive)
REMARK    1  A    between atoms: C_11  and  C_20
REMARK    2  A    between atoms: CA_14  and  C_17
REMARK                            x       y       z     vdW  Elec       q    Type
REMARK                         _______ _______ _______ _____ _____    ______ ____
ROOT
ATOM      1  C   UNL     1      -0.016   1.362   0.009  0.00  0.00    +0.001 A 
ATOM      2  C   UNL     1       1.169   2.083   0.002  0.00  0.00    +0.002 A 
ATOM      3  C   UNL     1       2.385   1.435  -0.014  0.00  0.00    +0.026 A 
ATOM      4  C   UNL     1       2.428   0.045  -0.022  0.00  0.00    +0.047 A 
ATOM      5  C   UNL     1       1.222  -0.683  -0.014  0.00  0.00    +0.003 A 
ATOM      6  C   UNL     1       0.002  -0.004   0.002  0.00  0.00    +0.010 A 
ATOM      7  C   UNL     1       1.609  -2.088  -0.026  0.00  0.00    -0.015 A 
ATOM      8  C   UNL     1       2.957  -2.137  -0.040  0.00  0.00    +0.042 A 
ATOM      9  N   UNL     1       3.460  -0.869  -0.038  0.00  0.00    -0.356 N 
ATOM     10  H   UNL     1       4.403  -0.644  -0.046  0.00  0.00    +0.166 HD
ATOM     11  C   UNL     1       3.732  -3.434  -0.052  0.00  0.00    +0.134 C 
ATOM     12  N   UNL     1       2.825  -4.521   0.354  0.00  0.00    -0.292 NA
ATOM     13  CA  UNL     1       1.587  -4.513  -0.438  0.00  0.00    +0.173 C 
ATOM     14  C   UNL     1       0.726  -3.310  -0.027  0.00  0.00    +0.068 C 
ATOM     15  H   UNL     1       3.286  -5.417   0.295  0.00  0.00    +0.124 HD
ENDROOT
BRANCH  11  16
ATOM     16  C   UNL     1       4.884  -3.346   0.914  0.00  0.00    +0.004 A 
ATOM     17  C   UNL     1       4.784  -3.913   2.139  0.00  0.00    +0.008 A 
ATOM     18  C   UNL     1       5.830  -3.851   3.059  0.00  0.00    +0.003 A 
ATOM     19  C   UNL     1       6.992  -3.222   2.767  0.00  0.00    +0.030 A 
ATOM     20  C   UNL     1       7.170  -2.604   1.500  0.00  0.00    +0.100 A 
ATOM     21  C   UNL     1       6.078  -2.674   0.536  0.00  0.00    +0.105 A 
ATOM     22  N   UNL     1       6.357  -2.066  -0.618  0.00  0.00    -0.190 NA
ATOM     23  S   UNL     1       7.851  -1.492  -0.456  0.00  0.00    +0.116 S 
ATOM     24  N   UNL     1       8.234  -1.945   1.040  0.00  0.00    -0.191 NA
ENDBRANCH  11  16
BRANCH  13  25
ATOM     25  C   UNL     1       0.822  -5.787  -0.186  0.00  0.00    +0.373 C 
ATOM     26  O   UNL     1       1.167  -6.539   0.709  0.00  0.00    -0.245 OA
ATOM     27  OXT UNL     1      -0.142  -6.066  -0.879  0.00  0.00    -0.245 OA
ENDBRANCH  13  25
TORSDOF 2
