REMARK  Name = ZINC12320956
REMARK  11 active torsions:
REMARK  status: ('A' for Active; 'I' for Inactive)
REMARK    1  A    between atoms: C_1  and  C_2
REMARK    2  A    between atoms: C_2  and  C_3
REMARK    3  A    between atoms: C_5  and  C_23
REMARK    4  A    between atoms: C_6  and  C_11
REMARK    5  A    between atoms: C_7  and  C_9
REMARK    6  A    between atoms: C_9  and  C_10
REMARK    7  A    between atoms: C_12  and  C_21
REMARK    8  A    between atoms: C_13  and  N_20
REMARK    9  A    between atoms: C_15  and  N_19
REMARK   10  A    between atoms: C_16  and  C_17
REMARK   11  A    between atoms: C_23  and  C_24
REMARK                            x       y       z     vdW  Elec       q    Type
REMARK                         _______ _______ _______ _____ _____    ______ ____
ROOT
ATOM      1  C   UNL     1      -3.051   2.616   4.964  0.00  0.00    +0.110 C 
ATOM      2  C   UNL     1      -2.882   1.471   5.926  0.00  0.00    +0.099 C 
ATOM      3  C   UNL     1      -3.842   0.530   6.068  0.00  0.00    +0.200 C 
ATOM      4  O   UNL     1      -4.985   0.574   5.359  0.00  0.00    -0.427 OA
ATOM      5  C   UNL     1      -5.369   1.726   4.779  0.00  0.00    +0.200 C 
ATOM      6  C   UNL     1      -4.495   2.739   4.563  0.00  0.00    +0.099 C 
ENDROOT
BRANCH   1  10
ATOM      7  C   UNL     1      -0.669   1.911   1.489  0.00  0.00    -0.047 A 
ATOM      8  C   UNL     1      -0.375   2.972   2.325  0.00  0.00    +0.007 A 
ATOM      9  C   UNL     1      -1.149   3.203   3.447  0.00  0.00    -0.043 A 
ATOM     10  C   UNL     1      -2.210   2.367   3.738  0.00  0.00    -0.028 A 
ATOM     11  C   UNL     1      -2.502   1.303   2.905  0.00  0.00    -0.043 A 
ATOM     12  C   UNL     1      -1.731   1.075   1.780  0.00  0.00    +0.007 A 
BRANCH   7  14
ATOM     13  C   UNL     1      -0.422   2.423  -0.925  0.00  0.00    +0.009 C 
ATOM     14  C   UNL     1       0.171   1.663   0.263  0.00  0.00    +0.032 C 
ENDBRANCH   7  14
BRANCH  11  15
ATOM     15  C   UNL     1      -3.659   0.392   3.223  0.00  0.00    +0.032 C 
ATOM     16  C   UNL     1      -4.921   0.910   2.530  0.00  0.00    +0.009 C 
ENDBRANCH  11  15
BRANCH   9  17
ATOM     17  C   UNL     1      -0.832   4.363   4.355  0.00  0.00    +0.032 C 
ATOM     18  C   UNL     1       0.096   3.893   5.477  0.00  0.00    +0.009 C 
ENDBRANCH   9  17
ENDBRANCH   1  10
BRANCH   5  19
ATOM     19  N   UNL     1      -6.678   1.879   4.397  0.00  0.00    -0.328 N 
ATOM     20  H   UNL     1      -6.968   2.705   3.978  0.00  0.00    +0.145 HD
ATOM     21  H   UNL     1      -7.314   1.162   4.546  0.00  0.00    +0.145 HD
ENDBRANCH   5  19
BRANCH   3  22
ATOM     22  N   UNL     1      -3.647  -0.498   6.957  0.00  0.00    -0.328 N 
ATOM     23  H   UNL     1      -4.328  -1.180   7.068  0.00  0.00    +0.145 HD
ATOM     24  H   UNL     1      -2.827  -0.542   7.475  0.00  0.00    +0.145 HD
ENDBRANCH   3  22
BRANCH   6  25
ATOM     25  C   UNL     1      -4.954   3.945   3.942  0.00  0.00    +0.101 C 
ATOM     26  N   UNL     1      -5.318   4.902   3.450  0.00  0.00    -0.191 NA
ENDBRANCH   6  25
BRANCH   2  27
ATOM     27  C   UNL     1      -1.685   1.376   6.705  0.00  0.00    +0.101 C 
ATOM     28  N   UNL     1      -0.735   1.300   7.324  0.00  0.00    -0.191 NA
ENDBRANCH   2  27
TORSDOF 8
