REMARK  Name = ZINC63062664
REMARK  9 active torsions:
REMARK  status: ('A' for Active; 'I' for Inactive)
REMARK    1  A    between atoms: C_1  and  C_2
REMARK    2  A    between atoms: C_2  and  S_3
REMARK    3  A    between atoms: S_3  and  C_6
REMARK    4  A    between atoms: C_6  and  C_7
REMARK    5  A    between atoms: C_7  and  O_8
REMARK    6  A    between atoms: O_8  and  C_9
REMARK    7  A    between atoms: C_10  and  C_20
REMARK    8  A    between atoms: C_14  and  S_15
REMARK    9  A    between atoms: S_15  and  N_18
REMARK                            x       y       z     vdW  Elec       q    Type
REMARK                         _______ _______ _______ _____ _____    ______ ____
ROOT
ATOM      1  C   UNL     1       1.959  -5.214  -3.366  0.00  0.00    +0.150 A 
ATOM      2  C   UNL     1       1.204  -5.599  -4.465  0.00  0.00    -0.006 A 
ATOM      3  C   UNL     1       1.781  -6.353  -5.468  0.00  0.00    +0.022 A 
ATOM      4  C   UNL     1       3.111  -6.723  -5.378  0.00  0.00    +0.020 A 
ATOM      5  C   UNL     1       3.865  -6.341  -4.284  0.00  0.00    +0.047 A 
ATOM      6  C   UNL     1       3.294  -5.582  -3.281  0.00  0.00    +0.148 A 
ATOM      7 BR   UNL     1       3.899  -7.755  -6.754  0.00  0.00    -0.050 Br
ATOM      8  C   UNL     1      -0.245  -5.196  -4.563  0.00  0.00    +0.047 C 
ENDROOT
BRANCH   6   9
ATOM      9  S   UNL     1       4.257  -5.088  -1.891  0.00  0.00    +0.059 S 
ATOM     10  O   UNL     1       3.498  -5.414  -0.734  0.00  0.00    -0.153 OA
ATOM     11  O   UNL     1       5.569  -5.589  -2.107  0.00  0.00    -0.153 OA
BRANCH   9  12
ATOM     12  N   UNL     1       4.368  -3.437  -1.934  0.00  0.00    -0.203 NA
ATOM     13  H   UNL     1       4.453  -2.934  -1.108  0.00  0.00    +0.144 HD
ATOM     14  H   UNL     1       4.348  -2.971  -2.785  0.00  0.00    +0.144 HD
ENDBRANCH   9  12
ENDBRANCH   6   9
BRANCH   1  15
ATOM     15  O   UNL     1       1.393  -4.473  -2.377  0.00  0.00    -0.488 OA
BRANCH  15  16
ATOM     16  C   UNL     1       1.456  -3.052  -2.515  0.00  0.00    +0.251 C 
BRANCH  16  17
ATOM     17  C   UNL     1       0.771  -2.393  -1.316  0.00  0.00    +0.206 C 
BRANCH  17  18
ATOM     18  S   UNL     1       0.851  -0.589  -1.490  0.00  0.00    -0.028 S 
ATOM     19  O   UNL     1       0.080  -0.213  -2.623  0.00  0.00    -0.174 OA
ATOM     20  O   UNL     1       2.213  -0.190  -1.418  0.00  0.00    -0.174 OA
BRANCH  18  22
ATOM     21  C   UNL     1      -0.019   1.526   0.010  0.00  0.00    +0.028 C 
ATOM     22  C   UNL     1       0.002  -0.004   0.002  0.00  0.00    +0.162 C 
ENDBRANCH  18  22
ENDBRANCH  17  18
ENDBRANCH  16  17
ENDBRANCH  15  16
ENDBRANCH   1  15
TORSDOF 7
