REMARK  Name = ZINC54764780
REMARK  5 active torsions:
REMARK  status: ('A' for Active; 'I' for Inactive)
REMARK    1  A    between atoms: C_3  and  S_15
REMARK    2  A    between atoms: C_6  and  N_7
REMARK    3  A    between atoms: N_7  and  C_8
REMARK    4  A    between atoms: C_8  and  C_9
REMARK    5  A    between atoms: S_15  and  C_16
REMARK                            x       y       z     vdW  Elec       q    Type
REMARK                         _______ _______ _______ _____ _____    ______ ____
ROOT
ATOM      1  C   UNL     1      -0.019   1.395   0.004  0.00  0.00    +0.024 A 
ATOM      2  C   UNL     1       1.169   2.099  -0.004  0.00  0.00    +0.017 A 
ATOM      3  C   UNL     1       2.379   1.417  -0.013  0.00  0.00    +0.016 A 
ATOM      4  C   UNL     1       2.394   0.028  -0.016  0.00  0.00    +0.017 A 
ATOM      5  C   UNL     1       1.206  -0.675  -0.009  0.00  0.00    +0.024 A 
ATOM      6  C   UNL     1      -0.004   0.007   0.001  0.00  0.00    +0.027 A 
ENDROOT
BRANCH   6   7
ATOM      7  N   UNL     1      -1.209  -0.706   0.008  0.00  0.00    -0.338 N 
ATOM      8  H   UNL     1      -2.054  -0.230   0.015  0.00  0.00    +0.146 HD
BRANCH   7   9
ATOM      9  C   UNL     1      -1.193  -2.171   0.006  0.00  0.00    +0.156 C 
BRANCH   9  10
ATOM     10  C   UNL     1      -2.608  -2.689   0.015  0.00  0.00    +0.050 A 
ATOM     11  C   UNL     1      -3.324  -3.049   1.097  0.00  0.00    +0.106 A 
ATOM     12  N   UNL     1      -4.533  -3.453   0.679  0.00  0.00    -0.352 N 
ATOM     13  C   UNL     1      -4.594  -3.356  -0.621  0.00  0.00    +0.171 A 
ATOM     14  N   UNL     1      -3.415  -2.877  -1.075  0.00  0.00    -0.349 N 
ATOM     15  H   UNL     1      -3.183  -2.702  -2.000  0.00  0.00    +0.166 HD
ATOM     16  H   UNL     1      -5.249  -3.767   1.253  0.00  0.00    +0.166 HD
ENDBRANCH   9  10
ENDBRANCH   7   9
ENDBRANCH   6   7
BRANCH   3  17
ATOM     17  S   UNL     1       3.895   2.315  -0.023  0.00  0.00    -0.050 S 
BRANCH  17  18
ATOM     18  C   UNL     1       4.202   2.652   1.679  0.00  0.00    +0.189 A 
ATOM     19  N   UNL     1       5.204   3.412   2.171  0.00  0.00    -0.254 N 
ATOM     20  H   UNL     1       5.889   3.873   1.661  0.00  0.00    +0.191 HD
ATOM     21  N   UNL     1       5.058   3.402   3.568  0.00  0.00    -0.160 NA
ATOM     22  C   UNL     1       4.014   2.664   3.837  0.00  0.00    +0.245 A 
ATOM     23  N   UNL     1       3.491   2.213   2.696  0.00  0.00    -0.209 NA
ENDBRANCH  17  18
ENDBRANCH   3  17
TORSDOF 5
