REMARK  Name = ZINC50330420
REMARK  5 active torsions:
REMARK  status: ('A' for Active; 'I' for Inactive)
REMARK    1  A    between atoms: C_1  and  O_2
REMARK    2  A    between atoms: O_2  and  C_3
REMARK    3  A    between atoms: C_5  and  C_11
REMARK    4  A    between atoms: C_8  and  O_9
REMARK    5  A    between atoms: C_16  and  N_21
REMARK                            x       y       z     vdW  Elec       q    Type
REMARK                         _______ _______ _______ _____ _____    ______ ____
ROOT
ATOM      1  C   UNL     1      -4.858   0.230   0.038  0.00  0.00    +0.109 A 
ATOM      2  N   UNL     1      -5.028   1.542   0.036  0.00  0.00    -0.244 NA
ATOM      3  C   UNL     1      -6.230   2.104   0.046  0.00  0.00    +0.051 A 
ATOM      4  C   UNL     1      -7.306   1.268   0.060  0.00  0.00    -0.001 A 
ATOM      5  S   UNL     1      -6.554  -0.339   0.050  0.00  0.00    -0.074 S 
ATOM      6  C   UNL     1      -8.752   1.633   0.071  0.00  0.00    -0.036 C 
ATOM      7  C   UNL     1      -8.876   3.120  -0.298  0.00  0.00    -0.011 C 
ATOM      8  C   UNL     1      -7.861   3.916   0.527  0.00  0.00    +0.005 C 
ATOM      9  C   UNL     1      -6.441   3.616   0.045  0.00  0.00    +0.056 C 
ENDROOT
BRANCH   1  12
ATOM     10  C   UNL     1      -1.201  -0.638   0.010  0.00  0.00    +0.163 A 
ATOM     11  C   UNL     1      -2.371   0.100   0.019  0.00  0.00    +0.060 A 
ATOM     12  C   UNL     1      -3.604  -0.554   0.028  0.00  0.00    +0.012 A 
ATOM     13  C   UNL     1      -3.652  -1.949   0.026  0.00  0.00    +0.029 A 
ATOM     14  C   UNL     1      -2.481  -2.679   0.017  0.00  0.00    +0.064 A 
ATOM     15  C   UNL     1      -1.255  -2.029   0.003  0.00  0.00    +0.173 A 
ATOM     16 BR   UNL     1      -2.548  -4.569   0.016  0.00  0.00    -0.046 Br
BRANCH  10  18
ATOM     17  C   UNL     1      -0.017   1.425   0.010  0.00  0.00    +0.277 C 
ATOM     18  O   UNL     1       0.002  -0.004   0.002  0.00  0.00    -0.491 OA
ENDBRANCH  10  18
BRANCH  15  19
ATOM     19  O   UNL     1      -0.104  -2.753  -0.012  0.00  0.00    -0.503 OA
ATOM     20  H   UNL     1       0.238  -2.967   0.867  0.00  0.00    +0.292 HD
ENDBRANCH  15  19
ENDBRANCH   1  12
BRANCH   6  21
ATOM     21  N   UNL     1      -9.477   0.816  -0.910  0.00  0.00    +0.383 N 
ATOM     22  H   UNL     1      -9.377  -0.160  -0.675  0.00  0.00    -0.089 HD
ATOM     23  H   UNL     1     -10.455   1.066  -0.899  0.00  0.00    -0.089 HD
ATOM     24  H   UNL     1      -9.098   0.980  -1.831  0.00  0.00    -0.089 HD
ENDBRANCH   6  21
TORSDOF 4
