REMARK  Name = ZINC63490997
REMARK  11 active torsions:
REMARK  status: ('A' for Active; 'I' for Inactive)
REMARK    1  A    between atoms: C_1  and  C_2
REMARK    2  A    between atoms: C_2  and  C_3
REMARK    3  A    between atoms: C_10  and  C_14
REMARK    4  A    between atoms: C_14  and  O_15
REMARK    5  A    between atoms: O_15  and  C_16
REMARK    6  A    between atoms: C_19  and  C_25
REMARK    7  A    between atoms: C_21  and  O_22
REMARK    8  A    between atoms: O_22  and  C_23
REMARK    9  A    between atoms: C_23  and  C_24
REMARK   10  A    between atoms: C_26  and  C_27
REMARK   11  A    between atoms: C_26  and  C_29
REMARK                            x       y       z     vdW  Elec       q    Type
REMARK                         _______ _______ _______ _____ _____    ______ ____
ROOT
ATOM      1  C   UNL     1      -9.264  -2.880   1.806  0.00  0.00    +0.162 A 
ATOM      2  C   UNL     1      -9.308  -4.268   1.816  0.00  0.00    +0.050 A 
ATOM      3  C   UNL     1     -10.449  -4.922   2.226  0.00  0.00    +0.012 A 
ATOM      4  C   UNL     1     -11.567  -4.187   2.635  0.00  0.00    -0.020 A 
ATOM      5  C   UNL     1     -11.522  -2.788   2.625  0.00  0.00    +0.057 A 
ATOM      6  C   UNL     1     -10.372  -2.141   2.216  0.00  0.00    +0.162 A 
ENDROOT
BRANCH   4   7
ATOM      7  C   UNL     1     -12.787  -4.882   3.073  0.00  0.00    +0.026 C 
ATOM      8  C   UNL     1     -12.697  -6.085   3.678  0.00  0.00    +0.072 C 
BRANCH   8   9
ATOM      9  C   UNL     1     -13.947  -6.870   3.982  0.00  0.00    +0.216 C 
ATOM     10  N   UNL     1     -14.018  -7.167   5.419  0.00  0.00    -0.359 N 
ATOM     11  C   UNL     1     -14.021  -8.462   5.550  0.00  0.00    +0.060 A 
ATOM     12  C   UNL     1     -14.078  -9.347   6.722  0.00  0.00    +0.027 A 
ATOM     13  C   UNL     1     -14.065 -10.683   6.547  0.00  0.00    +0.002 A 
ATOM     14  C   UNL     1     -13.999 -11.281   5.276  0.00  0.00    +0.002 A 
ATOM     15  C   UNL     1     -13.944 -10.562   4.137  0.00  0.00    +0.027 A 
ATOM     16  C   UNL     1     -13.952  -9.094   4.205  0.00  0.00    +0.060 A 
ATOM     17  N   UNL     1     -13.909  -8.166   3.293  0.00  0.00    -0.359 N 
ATOM     18  H   UNL     1     -14.056  -6.517   6.138  0.00  0.00    +0.162 HD
ATOM     19  H   UNL     1     -13.861  -8.305   2.334  0.00  0.00    +0.162 HD
ENDBRANCH   8   9
BRANCH   8  20
ATOM     20  C   UNL     1     -11.415  -6.616   4.030  0.00  0.00    +0.099 C 
ATOM     21  N   UNL     1     -10.398  -7.037   4.309  0.00  0.00    -0.191 NA
ENDBRANCH   8  20
ENDBRANCH   4   7
BRANCH   1  22
ATOM     22  O   UNL     1      -8.136  -2.241   1.400  0.00  0.00    -0.482 OA
BRANCH  22  23
ATOM     23  C   UNL     1      -7.038  -3.060   0.992  0.00  0.00    +0.279 C 
BRANCH  23  30
ATOM     24  C   UNL     1      -1.495  -0.766  -0.574  0.00  0.00    +0.095 C 
ATOM     25  N   UNL     1      -2.561  -0.043  -0.413  0.00  0.00    -0.172 NA
ATOM     26  N   UNL     1      -3.822  -0.594  -0.288  0.00  0.00    -0.158 N 
ATOM     27  C   UNL     1      -3.907  -1.990  -0.823  0.00  0.00    +0.250 C 
ATOM     28  S   UNL     1      -2.129  -2.436  -0.674  0.00  0.00    -0.065 S 
ATOM     29  N   UNL     1      -4.709  -2.750   0.145  0.00  0.00    -0.316 N 
ATOM     30  C   UNL     1      -5.884  -2.183   0.579  0.00  0.00    +0.049 C 
ATOM     31  C   UNL     1      -6.003  -0.840   0.633  0.00  0.00    +0.091 C 
ATOM     32  C   UNL     1      -4.916  -0.014   0.269  0.00  0.00    +0.263 C 
ATOM     33  O   UNL     1      -4.977   1.193   0.421  0.00  0.00    -0.269 OA
ATOM     34  H   UNL     1      -4.420  -3.619   0.466  0.00  0.00    +0.148 HD
BRANCH  24  36
ATOM     35  C   UNL     1      -0.006   1.215  -0.523  0.00  0.00    +0.011 C 
ATOM     36  C   UNL     1      -0.063  -0.307  -0.662  0.00  0.00    +0.061 C 
ENDBRANCH  24  36
ENDBRANCH  23  30
ENDBRANCH  22  23
ENDBRANCH   1  22
BRANCH   6  37
ATOM     37  O   UNL     1     -10.323  -0.782   2.209  0.00  0.00    -0.489 OA
BRANCH  37  38
ATOM     38  C   UNL     1     -11.495  -0.088   2.643  0.00  0.00    +0.226 C 
ATOM     39  C   UNL     1     -11.252   1.421   2.567  0.00  0.00    +0.048 C 
ENDBRANCH  37  38
ENDBRANCH   6  37
TORSDOF 9
