REMARK  Name = ZINC39364486
REMARK  5 active torsions:
REMARK  status: ('A' for Active; 'I' for Inactive)
REMARK    1  A    between atoms: C_1  and  C_2
REMARK    2  A    between atoms: C_2  and  C_3
REMARK    3  A    between atoms: C_6  and  C_9
REMARK    4  A    between atoms: C_17  and  C_19
REMARK    5  A    between atoms: C_19  and  N_20
REMARK                            x       y       z     vdW  Elec       q    Type
REMARK                         _______ _______ _______ _____ _____    ______ ____
ROOT
ATOM      1  C   UNL     1       2.707  -1.868  -4.752  0.00  0.00    +0.158 C 
ATOM      2  C   UNL     1       3.012  -3.340  -4.651  0.00  0.00    -0.002 C 
ATOM      3  C   UNL     1       4.345  -3.423  -4.707  0.00  0.00    +0.066 C 
ATOM      4  C   UNL     1       5.100  -4.732  -4.644  0.00  0.00    +0.076 C 
ATOM      5  C   UNL     1       4.181  -5.809  -4.056  0.00  0.00    +0.114 C 
ATOM      6  N   UNL     1       2.862  -5.731  -4.703  0.00  0.00    -0.296 N 
ATOM      7  C   UNL     1       2.070  -4.500  -4.510  0.00  0.00    +0.142 C 
ATOM      8  C   UNL     1       2.393  -6.750  -5.448  0.00  0.00    +0.234 C 
ATOM      9  O   UNL     1       1.302  -6.666  -5.973  0.00  0.00    -0.274 OA
ATOM     10  N   UNL     1       4.878  -2.186  -4.827  0.00  0.00    -0.182 NA
ATOM     11  N   UNL     1       4.049  -1.264  -4.863  0.00  0.00    -0.297 N 
ATOM     12  H   UNL     1       4.245  -0.318  -4.947  0.00  0.00    +0.183 HD
ENDROOT
BRANCH   1  16
ATOM     13  C   UNL     1       0.707  -0.490  -1.238  0.00  0.00    -0.048 A 
ATOM     14  C   UNL     1      -0.011  -0.719  -2.397  0.00  0.00    +0.004 A 
ATOM     15  C   UNL     1       0.636  -1.164  -3.534  0.00  0.00    +0.006 A 
ATOM     16  C   UNL     1       2.002  -1.381  -3.513  0.00  0.00    -0.020 A 
ATOM     17  C   UNL     1       2.720  -1.152  -2.354  0.00  0.00    +0.006 A 
ATOM     18  C   UNL     1       2.073  -0.702  -1.218  0.00  0.00    +0.004 A 
BRANCH  13  20
ATOM     19  C   UNL     1      -0.019   1.526   0.010  0.00  0.00    +0.009 C 
ATOM     20  C   UNL     1       0.002  -0.004   0.002  0.00  0.00    +0.032 C 
ENDBRANCH  13  20
ENDBRANCH   1  16
BRANCH   8  21
ATOM     21  C   UNL     1       3.222  -7.996  -5.629  0.00  0.00    +0.213 C 
BRANCH  21  22
ATOM     22  N   UNL     1       2.496  -8.947  -6.474  0.00  0.00    -0.216 N 
ATOM     23  C   UNL     1       1.645  -9.881  -6.004  0.00  0.00    +0.241 C 
ATOM     24  O   UNL     1       1.348 -10.085  -4.846  0.00  0.00    -0.273 OA
ATOM     25  C   UNL     1       1.137 -10.623  -7.224  0.00  0.00    +0.202 C 
ATOM     26  N   UNL     1       1.825  -9.959  -8.345  0.00  0.00    -0.290 N 
ATOM     27  C   UNL     1       2.591  -8.993  -7.808  0.00  0.00    +0.309 C 
ATOM     28  O   UNL     1       3.293  -8.246  -8.461  0.00  0.00    -0.252 OA
ATOM     29  H   UNL     1       1.739 -10.175  -9.287  0.00  0.00    +0.151 HD
ENDBRANCH  21  22
ENDBRANCH   8  21
TORSDOF 4
