REMARK  Name = ZINC39324827
REMARK  7 active torsions:
REMARK  status: ('A' for Active; 'I' for Inactive)
REMARK    1  A    between atoms: C_4  and  C_7
REMARK    2  A    between atoms: C_7  and  C_8
REMARK    3  A    between atoms: C_8  and  N_9
REMARK    4  A    between atoms: N_9  and  C_10
REMARK    5  A    between atoms: N_9  and  S_27
REMARK    6  A    between atoms: C_10  and  C_11
REMARK    7  A    between atoms: S_27  and  C_30
REMARK                            x       y       z     vdW  Elec       q    Type
REMARK                         _______ _______ _______ _____ _____    ______ ____
ROOT
ATOM      1  N   UNL     1       5.043  -1.896   1.648  0.00  0.00    -0.175 NA
ENDROOT
BRANCH   1   2
ATOM      2  S   UNL     1       5.548  -3.448   1.369  0.00  0.00    +0.062 S 
ATOM      3  O   UNL     1       4.385  -4.265   1.400  0.00  0.00    -0.153 OA
ATOM      4  O   UNL     1       6.413  -3.398   0.243  0.00  0.00    -0.153 OA
BRANCH   2   5
ATOM      5  C   UNL     1       6.538  -3.929   2.745  0.00  0.00    +0.124 A 
ATOM      6  C   UNL     1       6.007  -4.743   3.728  0.00  0.00    +0.030 A 
ATOM      7  C   UNL     1       6.784  -5.120   4.807  0.00  0.00    +0.002 A 
ATOM      8  C   UNL     1       8.092  -4.685   4.904  0.00  0.00    +0.002 A 
ATOM      9  C   UNL     1       8.625  -3.872   3.921  0.00  0.00    +0.022 A 
ATOM     10  C   UNL     1       7.849  -3.498   2.837  0.00  0.00    +0.067 A 
ATOM     11 CL   UNL     1       8.519  -2.482   1.599  0.00  0.00    -0.082 Cl
ENDBRANCH   2   5
ENDBRANCH   1   2
BRANCH   1  12
ATOM     12  C   UNL     1       3.623  -1.618   1.883  0.00  0.00    +0.114 C 
BRANCH  12  13
ATOM     13  C   UNL     1       2.938  -1.307   0.551  0.00  0.00    +0.052 C 
BRANCH  13  17
ATOM     14  C   UNL     1      -1.246  -0.740   1.198  0.00  0.00    +0.000 A 
ATOM     15  C   UNL     1      -0.383   0.337   1.272  0.00  0.00    +0.000 A 
ATOM     16  C   UNL     1       0.971   0.154   1.063  0.00  0.00    +0.003 A 
ATOM     17  C   UNL     1       1.462  -1.107   0.780  0.00  0.00    -0.046 A 
ATOM     18  C   UNL     1       0.599  -2.184   0.707  0.00  0.00    +0.003 A 
ATOM     19  C   UNL     1      -0.755  -2.001   0.914  0.00  0.00    +0.000 A 
ENDBRANCH  13  17
ENDBRANCH  12  13
ENDBRANCH   1  12
BRANCH   1  20
ATOM     20  C   UNL     1       6.015  -0.801   1.661  0.00  0.00    +0.126 C 
BRANCH  20  21
ATOM     21  C   UNL     1       6.580  -0.637   3.073  0.00  0.00    +0.114 C 
ATOM     22  C   UNL     1       7.733   0.345   3.002  0.00  0.00    -0.003 C 
ATOM     23  C   UNL     1       7.651   1.463   3.772  0.00  0.00    -0.003 A 
ATOM     24  C   UNL     1       8.723   2.459   3.763  0.00  0.00    +0.059 A 
ATOM     25  C   UNL     1       8.611   3.567   4.544  0.00  0.00    +0.163 A 
ATOM     26  C   UNL     1       7.480   3.772   5.361  0.00  0.00    +0.164 A 
ATOM     27  C   UNL     1       6.445   2.860   5.407  0.00  0.00    +0.073 A 
ATOM     28  C   UNL     1       6.478   1.692   4.636  0.00  0.00    +0.044 A 
ATOM     29  N   UNL     1       5.465   0.824   4.697  0.00  0.00    -0.284 N 
ATOM     30  C   UNL     1       5.432  -0.295   3.996  0.00  0.00    +0.225 C 
ATOM     31  O   UNL     1       4.481  -1.047   4.092  0.00  0.00    -0.275 OA
ATOM     32  O   UNL     1       7.383   4.891   6.127  0.00  0.00    -0.485 OA
ATOM     33  C   UNL     1       8.592   5.617   6.368  0.00  0.00    +0.270 C 
ATOM     34  C   UNL     1       9.329   5.783   5.033  0.00  0.00    +0.270 C 
ATOM     35  O   UNL     1       9.624   4.480   4.521  0.00  0.00    -0.485 OA
ATOM     36  H   UNL     1       4.719   1.025   5.283  0.00  0.00    +0.155 HD
ENDBRANCH  20  21
ENDBRANCH   1  20
TORSDOF 7
