REMARK  Name = ZINC20888466
REMARK  9 active torsions:
REMARK  status: ('A' for Active; 'I' for Inactive)
REMARK    1  A    between atoms: C_1  and  C_2
REMARK    2  A    between atoms: C_5  and  N_8
REMARK    3  A    between atoms: C_9  and  C_28
REMARK    4  A    between atoms: C_12  and  S_13
REMARK    5  A    between atoms: S_13  and  C_14
REMARK    6  A    between atoms: C_14  and  C_15
REMARK    7  A    between atoms: N_17  and  C_18
REMARK    8  A    between atoms: C_19  and  C_27
REMARK    9  A    between atoms: C_23  and  N_24
REMARK                            x       y       z     vdW  Elec       q    Type
REMARK                         _______ _______ _______ _____ _____    ______ ____
ROOT
ATOM      1  N   UNL     1       1.040   0.272   1.669  0.00  0.00    -0.270 N 
ATOM      2  C   UNL     1       1.931   1.229   1.234  0.00  0.00    +0.172 A 
ATOM      3  N   UNL     1       1.240   2.124   0.568  0.00  0.00    -0.128 NA
ATOM      4  N   UNL     1      -0.004   1.800   0.555  0.00  0.00    -0.122 NA
ATOM      5  C   UNL     1      -0.185   0.676   1.213  0.00  0.00    +0.197 A 
ENDROOT
BRANCH   1  10
ATOM      6  C   UNL     1       2.209  -4.373   4.713  0.00  0.00    +0.044 C 
ATOM      7  C   UNL     1       1.899  -3.140   3.905  0.00  0.00    -0.050 A 
ATOM      8  C   UNL     1       1.445  -3.263   2.605  0.00  0.00    +0.005 A 
ATOM      9  C   UNL     1       1.159  -2.134   1.862  0.00  0.00    +0.026 A 
ATOM     10  C   UNL     1       1.329  -0.875   2.421  0.00  0.00    +0.051 A 
ATOM     11  C   UNL     1       1.789  -0.754   3.725  0.00  0.00    +0.026 A 
ATOM     12  C   UNL     1       2.068  -1.887   4.465  0.00  0.00    +0.005 A 
ENDBRANCH   1  10
BRANCH   2  13
ATOM     13  C   UNL     1       3.390   1.244   1.473  0.00  0.00    +0.055 A 
ATOM     14  C   UNL     1       4.147   0.091   1.262  0.00  0.00    +0.014 A 
ATOM     15  C   UNL     1       5.508   0.112   1.486  0.00  0.00    +0.001 A 
ATOM     16  C   UNL     1       6.124   1.273   1.919  0.00  0.00    +0.003 A 
ATOM     17  C   UNL     1       5.382   2.420   2.131  0.00  0.00    +0.039 A 
ATOM     18  C   UNL     1       4.018   2.416   1.905  0.00  0.00    +0.134 A 
ATOM     19  F   UNL     1       3.294   3.538   2.106  0.00  0.00    -0.205 F 
ENDBRANCH   2  13
BRANCH   5  20
ATOM     20  S   UNL     1      -1.719  -0.153   1.462  0.00  0.00    -0.076 S 
BRANCH  20  21
ATOM     21  C   UNL     1      -2.831   0.972   0.583  0.00  0.00    +0.173 C 
BRANCH  21  22
ATOM     22  C   UNL     1      -4.242   0.448   0.664  0.00  0.00    +0.228 C 
ATOM     23  O   UNL     1      -4.473  -0.583   1.258  0.00  0.00    -0.275 OA
ATOM     24  N   UNL     1      -5.248   1.127   0.077  0.00  0.00    -0.283 N 
ATOM     25  H   UNL     1      -5.028   2.013  -0.538  0.00  0.00    +0.155 HD
BRANCH  24  26
ATOM     26  C   UNL     1      -6.571   0.706   0.249  0.00  0.00    +0.067 A 
ATOM     27  C   UNL     1      -6.941  -0.586  -0.101  0.00  0.00    -0.027 A 
ATOM     28  C   UNL     1      -8.247  -0.999   0.070  0.00  0.00    +0.005 A 
ATOM     29  C   UNL     1      -9.187  -0.128   0.591  0.00  0.00    +0.003 A 
ATOM     30  C   UNL     1      -8.822   1.159   0.941  0.00  0.00    +0.034 A 
ATOM     31  C   UNL     1      -7.515   1.577   0.776  0.00  0.00    +0.148 A 
ATOM     32  C   UNL     1      -5.918  -1.536  -0.669  0.00  0.00    +0.046 C 
BRANCH  31  33
ATOM     33  N   UNL     1      -7.124   2.952   1.157  0.00  0.00    +0.058 N 
ATOM     34  O   UNL     1      -7.928   3.685   1.703  0.00  0.00    -0.126 OA
ATOM     35  O   UNL     1      -5.997   3.351   0.924  0.00  0.00    -0.126 OA
ENDBRANCH  31  33
ENDBRANCH  24  26
ENDBRANCH  21  22
ENDBRANCH  20  21
ENDBRANCH   5  20
TORSDOF 7
