REMARK  Name = ZINC12713061
REMARK  11 active torsions:
REMARK  status: ('A' for Active; 'I' for Inactive)
REMARK    1  A    between atoms: C_1  and  N_60
REMARK    2  A    between atoms: C_2  and  C_3
REMARK    3  A    between atoms: C_2  and  N_60
REMARK    4  A    between atoms: C_3  and  C_5
REMARK    5  A    between atoms: C_3  and  O_19
REMARK    6  A    between atoms: C_5  and  O_6
REMARK    7  A    between atoms: O_6  and  C_7
REMARK    8  A    between atoms: C_12  and  C_13
REMARK    9  A    between atoms: C_13  and  N_62
REMARK   10  A    between atoms: C_14  and  N_62
REMARK   11  A    between atoms: C_20  and  N_60
REMARK                            x       y       z     vdW  Elec       q    Type
REMARK                         _______ _______ _______ _____ _____    ______ ____
ROOT
ATOM      1  O   UNL     1       3.604   2.051   0.473  0.00  0.00    -0.489 OA
ENDROOT
BRANCH   1   2
ATOM      2  C   UNL     1       2.439   1.356   0.536  0.00  0.00    +0.122 A 
ATOM      3  C   UNL     1       2.438  -0.018   0.340  0.00  0.00    +0.046 A 
ATOM      4  C   UNL     1       1.251  -0.723   0.404  0.00  0.00    +0.004 A 
ATOM      5  C   UNL     1       0.065  -0.060   0.663  0.00  0.00    +0.000 A 
ATOM      6  C   UNL     1       0.064   1.308   0.859  0.00  0.00    +0.005 A 
ATOM      7  C   UNL     1       1.248   2.018   0.796  0.00  0.00    -0.023 A 
BRANCH   7   8
ATOM      8  C   UNL     1       1.245   3.510   1.009  0.00  0.00    -0.043 C 
BRANCH   8   9
ATOM      9  N   UNL     1       1.298   4.185  -0.301  0.00  0.00    +0.384 N 
ATOM     10  H   UNL     1       0.479   3.911  -0.856  0.00  0.00    -0.085 HD
ATOM     11  H   UNL     1       2.154   3.904  -0.792  0.00  0.00    -0.085 HD
BRANCH   9  12
ATOM     12  C   UNL     1       1.296   5.649  -0.123  0.00  0.00    -0.071 C 
ATOM     13  C   UNL     1      -0.153   6.173  -0.063  0.00  0.00    -0.016 C 
ATOM     14  C   UNL     1      -0.100   7.524  -0.818  0.00  0.00    -0.002 C 
ATOM     15  C   UNL     1       0.885   7.230  -1.976  0.00  0.00    -0.002 C 
ATOM     16  C   UNL     1       1.957   6.321  -1.339  0.00  0.00    -0.016 C 
ENDBRANCH   9  12
ENDBRANCH   8   9
ENDBRANCH   7   8
ENDBRANCH   1   2
BRANCH   1  17
ATOM     17  C   UNL     1       4.792   1.304   0.201  0.00  0.00    +0.258 C 
BRANCH  17  18
ATOM     18  C   UNL     1       5.993   2.251   0.168  0.00  0.00    +0.135 C 
BRANCH  18  19
ATOM     19  O   UNL     1       6.191   2.814   1.467  0.00  0.00    -0.390 OA
ATOM     20  H   UNL     1       6.362   2.159   2.158  0.00  0.00    +0.210 HD
ENDBRANCH  18  19
BRANCH  18  21
ATOM     21  C   UNL     1       7.244   1.473  -0.246  0.00  0.00    -0.044 C 
BRANCH  21  23
ATOM     22  C   UNL     1       9.657   1.648  -0.338  0.00  0.00    -0.096 C 
ATOM     23  N   UNL     1       8.389   2.406  -0.293  0.00  0.00    +0.381 N 
ATOM     24  H   UNL     1       8.380   2.990   0.551  0.00  0.00    -0.082 HD
BRANCH  23  25
ATOM     25  C   UNL     1       8.281   3.279  -1.481  0.00  0.00    -0.069 C 
ATOM     26  C   UNL     1       8.368   2.451  -2.765  0.00  0.00    -0.015 C 
ATOM     27  C   UNL     1       8.254   3.378  -3.978  0.00  0.00    -0.002 C 
ATOM     28  C   UNL     1       9.395   4.397  -3.950  0.00  0.00    -0.000 C 
ATOM     29  C   UNL     1       9.308   5.224  -2.666  0.00  0.00    -0.002 C 
ATOM     30  C   UNL     1       9.421   4.298  -1.453  0.00  0.00    -0.015 C 
ENDBRANCH  23  25
ENDBRANCH  21  23
ENDBRANCH  18  21
ENDBRANCH  17  18
ENDBRANCH   1  17
TORSDOF 10
