REMARK  Name = ZINC66637912
REMARK  6 active torsions:
REMARK  status: ('A' for Active; 'I' for Inactive)
REMARK    1  A    between atoms: C_5  and  C_6
REMARK    2  A    between atoms: C_8  and  C_11
REMARK    3  A    between atoms: C_11  and  C_12
REMARK    4  A    between atoms: N_14  and  C_15
REMARK    5  A    between atoms: C_15  and  C_16
REMARK    6  A    between atoms: N_20  and  C_21
REMARK                            x       y       z     vdW  Elec       q    Type
REMARK                         _______ _______ _______ _____ _____    ______ ____
ROOT
ATOM      1  C   UNL     1      -1.898  -4.728  -1.031  0.00  0.00    +0.219 C 
ATOM      2  O   UNL     1      -1.270  -4.008  -1.778  0.00  0.00    -0.275 OA
ATOM      3  N   UNL     1      -1.962  -6.053  -1.268  0.00  0.00    -0.308 N 
ATOM      4  H   UNL     1      -2.464  -6.629  -0.670  0.00  0.00    +0.149 HD
ENDROOT
BRANCH   1   5
ATOM      5  C   UNL     1      -2.607  -4.141   0.162  0.00  0.00    +0.151 C 
BRANCH   5   8
ATOM      6  C   UNL     1      -0.931  -0.866   0.221  0.00  0.00    +0.109 A 
ATOM      7  N   UNL     1      -1.157  -2.172   0.189  0.00  0.00    -0.243 NA
ATOM      8  C   UNL     1      -2.381  -2.651   0.199  0.00  0.00    +0.058 A 
ATOM      9  C   UNL     1      -3.440  -1.803   0.241  0.00  0.00    +0.071 A 
ATOM     10  S   UNL     1      -2.599  -0.225   0.276  0.00  0.00    -0.075 S 
BRANCH   6  15
ATOM     11  C   UNL     1       0.385   1.257   0.260  0.00  0.00    +0.018 A 
ATOM     12  C   UNL     1       1.579   1.887   0.256  0.00  0.00    +0.046 A 
ATOM     13  S   UNL     1       2.729   0.524   0.189  0.00  0.00    -0.104 S 
ATOM     14  C   UNL     1       1.545  -0.811   0.171  0.00  0.00    +0.055 A 
ATOM     15  C   UNL     1       0.354  -0.136   0.217  0.00  0.00    +0.014 A 
ENDBRANCH   6  15
ENDBRANCH   5   8
ENDBRANCH   1   5
BRANCH   3  16
ATOM     16  C   UNL     1      -1.272  -6.624  -2.428  0.00  0.00    +0.180 C 
BRANCH  16  17
ATOM     17  C   UNL     1      -1.499  -8.113  -2.464  0.00  0.00    +0.149 A 
ATOM     18  N   UNL     1      -2.198  -8.790  -1.611  0.00  0.00    -0.157 NA
ATOM     19  N   UNL     1      -2.166 -10.138  -1.991  0.00  0.00    -0.254 N 
ATOM     20  C   UNL     1      -1.414 -10.222  -3.109  0.00  0.00    +0.176 A 
ATOM     21  N   UNL     1      -1.002  -8.974  -3.412  0.00  0.00    -0.303 N 
ATOM     22  S   UNL     1      -1.055 -11.648  -3.985  0.00  0.00    -0.011 S 
ATOM     23  H   UNL     1      -2.602 -10.875  -1.536  0.00  0.00    +0.191 HD
BRANCH  21  24
ATOM     24  C   UNL     1      -0.166  -8.601  -4.555  0.00  0.00    +0.091 C 
ATOM     25  C   UNL     1       0.592  -9.721  -5.271  0.00  0.00    +0.027 C 
ATOM     26  C   UNL     1      -0.616  -9.064  -5.942  0.00  0.00    +0.027 C 
ENDBRANCH  21  24
ENDBRANCH  16  17
ENDBRANCH   3  16
TORSDOF 6
