REMARK  Name = ZINC65565339
REMARK  5 active torsions:
REMARK  status: ('A' for Active; 'I' for Inactive)
REMARK    1  A    between atoms: C_8  and  C_25
REMARK    2  A    between atoms: N_11  and  S_12
REMARK    3  A    between atoms: S_12  and  C_15
REMARK    4  A    between atoms: C_19  and  S_21
REMARK    5  A    between atoms: S_21  and  N_24
REMARK                            x       y       z     vdW  Elec       q    Type
REMARK                         _______ _______ _______ _____ _____    ______ ____
ROOT
ATOM      1  C   UNL     1      -0.019   1.374  -0.006  0.00  0.00    +0.000 A 
ATOM      2  C   UNL     1       1.167   2.086  -0.013  0.00  0.00    +0.002 A 
ATOM      3  C   UNL     1       2.373   1.415  -0.025  0.00  0.00    +0.025 A 
ATOM      4  C   UNL     1       2.396   0.024  -0.029  0.00  0.00    +0.054 A 
ATOM      5  C   UNL     1       1.207  -0.689  -0.018  0.00  0.00    -0.024 A 
ATOM      6  C   UNL     1       0.001  -0.007  -0.008  0.00  0.00    +0.005 A 
ATOM      7  C   UNL     1       1.193  -2.195  -0.011  0.00  0.00    +0.051 C 
ATOM      8  C   UNL     1       2.524  -2.745  -0.522  0.00  0.00    +0.098 C 
ATOM      9  C   UNL     1       3.668  -2.075   0.251  0.00  0.00    +0.144 C 
ATOM     10  N   UNL     1       3.629  -0.637  -0.046  0.00  0.00    -0.202 N 
ENDROOT
BRANCH   8  11
ATOM     11  C   UNL     1       2.571  -4.236  -0.307  0.00  0.00    +0.215 C 
ATOM     12  O   UNL     1       3.438  -4.721   0.388  0.00  0.00    -0.276 OA
ATOM     13  N   UNL     1       1.648  -5.029  -0.886  0.00  0.00    -0.329 N 
ATOM     14  H   UNL     1       0.954  -4.641  -1.441  0.00  0.00    +0.145 HD
ATOM     15  H   UNL     1       1.678  -5.989  -0.747  0.00  0.00    +0.145 HD
ENDBRANCH   8  11
BRANCH  10  16
ATOM     16  S   UNL     1       5.021   0.188  -0.396  0.00  0.00    +0.075 S 
ATOM     17  O   UNL     1       5.986  -0.785  -0.772  0.00  0.00    -0.150 OA
ATOM     18  O   UNL     1       4.652   1.265  -1.247  0.00  0.00    -0.150 OA
BRANCH  16  19
ATOM     19  C   UNL     1       5.592   0.908   1.108  0.00  0.00    +0.111 A 
ATOM     20  C   UNL     1       5.171   2.173   1.473  0.00  0.00    +0.029 A 
ATOM     21  C   UNL     1       5.618   2.737   2.652  0.00  0.00    +0.004 A 
ATOM     22  C   UNL     1       6.487   2.037   3.468  0.00  0.00    +0.028 A 
ATOM     23  C   UNL     1       6.908   0.771   3.103  0.00  0.00    +0.107 A 
ATOM     24  C   UNL     1       6.457   0.205   1.926  0.00  0.00    +0.057 A 
BRANCH  23  25
ATOM     25  S   UNL     1       8.016  -0.122   4.143  0.00  0.00    +0.056 S 
ATOM     26  O   UNL     1       8.685  -1.060   3.311  0.00  0.00    -0.153 OA
ATOM     27  O   UNL     1       8.714   0.844   4.917  0.00  0.00    -0.153 OA
BRANCH  25  28
ATOM     28  N   UNL     1       7.094  -1.000   5.201  0.00  0.00    -0.204 NA
ATOM     29  H   UNL     1       6.127  -0.950   5.159  0.00  0.00    +0.144 HD
ATOM     30  H   UNL     1       7.522  -1.565   5.863  0.00  0.00    +0.144 HD
ENDBRANCH  25  28
ENDBRANCH  23  25
ENDBRANCH  16  19
ENDBRANCH  10  16
TORSDOF 5
