REMARK  Name = ZINC61075338
REMARK  9 active torsions:
REMARK  status: ('A' for Active; 'I' for Inactive)
REMARK    1  A    between atoms: C_1  and  C_2
REMARK    2  A    between atoms: C_3  and  C_9
REMARK    3  A    between atoms: C_4  and  C_8
REMARK    4  A    between atoms: N_5  and  C_7
REMARK    5  A    between atoms: C_9  and  C_10
REMARK    6  A    between atoms: C_10  and  N_11
REMARK    7  A    between atoms: N_14  and  C_15
REMARK    8  A    between atoms: C_15  and  C_16
REMARK    9  A    between atoms: C_16  and  N_22
REMARK                            x       y       z     vdW  Elec       q    Type
REMARK                         _______ _______ _______ _____ _____    ______ ____
ROOT
ATOM      1  N   UNL     1       1.069   1.110  -4.475  0.00  0.00    -0.299 N 
ATOM      2  C   UNL     1       2.283   1.144  -5.060  0.00  0.00    +0.300 C 
ATOM      3  O   UNL     1       3.288   1.073  -4.380  0.00  0.00    -0.253 OA
ATOM      4  N   UNL     1       2.382   1.257  -6.400  0.00  0.00    -0.298 N 
ATOM      5  H   UNL     1       0.267   1.167  -5.018  0.00  0.00    +0.150 HD
ATOM      6  H   UNL     1       1.581   1.314  -6.943  0.00  0.00    +0.150 HD
ENDROOT
BRANCH   1   7
ATOM      7  C   UNL     1       0.961   0.988  -3.019  0.00  0.00    +0.110 C 
BRANCH   7   8
ATOM      8  C   UNL     1      -0.515   0.973  -2.617  0.00  0.00    +0.057 C 
BRANCH   8  11
ATOM      9  C   UNL     1      -0.619   3.372  -0.549  0.00  0.00    +0.068 C 
ATOM     10  C   UNL     1      -0.673   1.905  -0.206  0.00  0.00    +0.063 A 
ATOM     11  C   UNL     1      -0.626   0.847  -1.120  0.00  0.00    -0.003 A 
ATOM     12  C   UNL     1      -0.700  -0.310  -0.421  0.00  0.00    +0.039 A 
ATOM     13  N   UNL     1      -0.790   0.005   0.888  0.00  0.00    -0.271 N 
ATOM     14  N   UNL     1      -0.765   1.401   0.998  0.00  0.00    -0.176 NA
ATOM     15  C   UNL     1      -0.889  -0.946   1.998  0.00  0.00    +0.172 C 
ATOM     16  C   UNL     1      -0.685  -1.700  -1.002  0.00  0.00    +0.065 C 
ENDBRANCH   8  11
ENDBRANCH   7   8
ENDBRANCH   1   7
BRANCH   4  17
ATOM     17  C   UNL     1       3.702   1.294  -7.036  0.00  0.00    +0.128 C 
BRANCH  17  18
ATOM     18  C   UNL     1       3.538   1.551  -8.535  0.00  0.00    +0.038 C 
ATOM     19  C   UNL     1       4.903   1.457  -9.220  0.00  0.00    +0.024 C 
ATOM     20  C   UNL     1       5.847   2.503  -8.623  0.00  0.00    +0.002 C 
ATOM     21  C   UNL     1       5.262   3.900  -8.840  0.00  0.00    +0.000 C 
ATOM     22  C   UNL     1       3.897   3.994  -8.154  0.00  0.00    +0.002 C 
ATOM     23  C   UNL     1       2.954   2.949  -8.752  0.00  0.00    +0.024 C 
BRANCH  18  24
ATOM     24  N   UNL     1       2.632   0.547  -9.108  0.00  0.00    -0.291 NA
ATOM     25  C   UNL     1       3.136  -0.814  -8.871  0.00  0.00    +0.113 C 
ATOM     26  C   UNL     1       2.134  -1.827  -9.431  0.00  0.00    +0.175 C 
ATOM     27  O   UNL     1       1.922  -1.563 -10.820  0.00  0.00    -0.377 OA
ATOM     28  C   UNL     1       1.431  -0.247 -11.087  0.00  0.00    +0.175 C 
ATOM     29  C   UNL     1       2.425   0.783 -10.545  0.00  0.00    +0.113 C 
ENDBRANCH  18  24
ENDBRANCH  17  18
ENDBRANCH   4  17
TORSDOF 6
