REMARK  Name = ZINC63654874
REMARK  9 active torsions:
REMARK  status: ('A' for Active; 'I' for Inactive)
REMARK    1  A    between atoms: C_1  and  O_2
REMARK    2  A    between atoms: O_2  and  C_3
REMARK    3  A    between atoms: C_6  and  C_9
REMARK    4  A    between atoms: C_11  and  S_19
REMARK    5  A    between atoms: S_19  and  C_20
REMARK    6  A    between atoms: C_20  and  C_21
REMARK    7  A    between atoms: C_21  and  N_22
REMARK    8  A    between atoms: C_23  and  C_25
REMARK    9  A    between atoms: C_26  and  C_27
REMARK                            x       y       z     vdW  Elec       q    Type
REMARK                         _______ _______ _______ _____ _____    ______ ____
ROOT
ATOM      1  C   UNL     1       2.598  -2.543   4.344  0.00  0.00    +0.147 C 
ATOM      2  C   UNL     1       3.976  -2.997   3.916  0.00  0.00    +0.021 C 
ATOM      3  C   UNL     1       3.982  -4.379   4.073  0.00  0.00    +0.010 A 
ATOM      4  C   UNL     1       4.972  -5.359   3.841  0.00  0.00    +0.011 A 
ATOM      5  C   UNL     1       4.697  -6.666   4.088  0.00  0.00    +0.001 A 
ATOM      6  C   UNL     1       3.451  -7.072   4.569  0.00  0.00    +0.002 A 
ATOM      7  C   UNL     1       2.455  -6.184   4.814  0.00  0.00    +0.026 A 
ATOM      8  C   UNL     1       2.668  -4.802   4.580  0.00  0.00    +0.044 A 
ATOM      9  N   UNL     1       1.875  -3.757   4.737  0.00  0.00    -0.373 N 
ATOM     10  H   UNL     1       0.961  -3.787   5.060  0.00  0.00    +0.161 HD
ENDROOT
BRANCH   1  14
ATOM     11  C   UNL     1       0.600  -0.631   1.086  0.00  0.00    +0.120 A 
ATOM     12  C   UNL     1       1.188   0.132   2.084  0.00  0.00    +0.046 A 
ATOM     13  C   UNL     1       1.833  -0.488   3.137  0.00  0.00    +0.009 A 
ATOM     14  C   UNL     1       1.893  -1.869   3.195  0.00  0.00    -0.020 A 
ATOM     15  C   UNL     1       1.308  -2.631   2.201  0.00  0.00    +0.009 A 
ATOM     16  C   UNL     1       0.656  -2.015   1.150  0.00  0.00    +0.046 A 
BRANCH  11  18
ATOM     17  C   UNL     1      -0.054   1.406   0.049  0.00  0.00    +0.277 C 
ATOM     18  O   UNL     1      -0.036  -0.023   0.050  0.00  0.00    -0.495 OA
ENDBRANCH  11  18
ENDBRANCH   1  14
BRANCH   2  19
ATOM     19  S   UNL     1       5.221  -2.043   3.371  0.00  0.00    -0.125 S 
BRANCH  19  20
ATOM     20  C   UNL     1       6.610  -3.196   3.192  0.00  0.00    +0.093 C 
BRANCH  20  21
ATOM     21  C   UNL     1       7.875  -2.417   2.829  0.00  0.00    +0.115 C 
BRANCH  21  22
ATOM     22  N   UNL     1       8.998  -3.347   2.685  0.00  0.00    -0.311 N 
ATOM     23  C   UNL     1      10.222  -2.883   2.365  0.00  0.00    +0.237 C 
ATOM     24  O   UNL     1      10.395  -1.690   2.195  0.00  0.00    -0.271 OA
ATOM     25  H   UNL     1       8.860  -4.298   2.820  0.00  0.00    +0.149 HD
BRANCH  23  26
ATOM     26  C   UNL     1      11.343  -3.813   2.221  0.00  0.00    +0.068 C 
ATOM     27  C   UNL     1      12.568  -3.348   1.901  0.00  0.00    +0.013 C 
BRANCH  27  28
ATOM     28  C   UNL     1      13.695  -4.284   1.756  0.00  0.00    -0.025 A 
ATOM     29  C   UNL     1      13.499  -5.655   1.944  0.00  0.00    +0.008 A 
ATOM     30  C   UNL     1      14.560  -6.525   1.806  0.00  0.00    +0.001 A 
ATOM     31  C   UNL     1      15.817  -6.043   1.483  0.00  0.00    +0.000 A 
ATOM     32  C   UNL     1      16.019  -4.687   1.296  0.00  0.00    +0.001 A 
ATOM     33  C   UNL     1      14.967  -3.805   1.424  0.00  0.00    +0.008 A 
ENDBRANCH  27  28
ENDBRANCH  23  26
ENDBRANCH  21  22
ENDBRANCH  20  21
ENDBRANCH  19  20
ENDBRANCH   2  19
TORSDOF 8
