REMARK  Name = ZINC09344717
REMARK  8 active torsions:
REMARK  status: ('A' for Active; 'I' for Inactive)
REMARK    1  A    between atoms: C_1  and  C_2
REMARK    2  A    between atoms: C_9  and  N_26
REMARK    3  A    between atoms: C_10  and  C_13
REMARK    4  A    between atoms: N_17  and  C_21
REMARK    5  A    between atoms: N_26  and  C_27
REMARK    6  A    between atoms: C_27  and  C_28
REMARK    7  A    between atoms: C_28  and  C_30
REMARK    8  A    between atoms: C_28  and  O_36
REMARK                            x       y       z     vdW  Elec       q    Type
REMARK                         _______ _______ _______ _____ _____    ______ ____
ROOT
ATOM      1  C   UNL     1     -10.263   6.292   6.918  0.00  0.00    +0.047 C 
ATOM      2  C   UNL     1      -9.047   6.650   6.102  0.00  0.00    -0.007 A 
ATOM      3  C   UNL     1      -8.674   7.954   5.963  0.00  0.00    +0.008 A 
ATOM      4  C   UNL     1      -7.541   8.271   5.201  0.00  0.00    +0.019 A 
ATOM      5  C   UNL     1      -6.825   7.289   4.609  0.00  0.00    +0.096 A 
ATOM      6  N   UNL     1      -7.189   5.982   4.743  0.00  0.00    -0.267 N 
ATOM      7  C   UNL     1      -8.290   5.642   5.479  0.00  0.00    +0.145 A 
ATOM      8  N   UNL     1      -8.663   4.369   5.621  0.00  0.00    -0.214 NA
ATOM      9  C   UNL     1      -7.986   3.380   5.056  0.00  0.00    +0.134 A 
ATOM     10  C   UNL     1      -6.839   3.672   4.282  0.00  0.00    +0.081 A 
ATOM     11  C   UNL     1      -6.449   5.025   4.143  0.00  0.00    +0.267 A 
ATOM     12  O   UNL     1      -5.464   5.322   3.489  0.00  0.00    -0.267 OA
ENDROOT
BRANCH  10  13
ATOM     13  C   UNL     1      -6.096   2.637   3.668  0.00  0.00    +0.037 C 
ATOM     14  C   UNL     1      -5.587   1.621   4.424  0.00  0.00    +0.077 C 
ATOM     15  C   UNL     1      -4.914   0.435   4.013  0.00  0.00    +0.259 C 
ATOM     16  O   UNL     1      -4.716   0.204   2.833  0.00  0.00    -0.269 OA
ATOM     17  N   UNL     1      -4.514  -0.410   4.947  0.00  0.00    -0.252 N 
ATOM     18  C   UNL     1      -4.728  -0.151   6.256  0.00  0.00    +0.121 C 
ATOM     19  S   UNL     1      -4.296  -1.089   7.622  0.00  0.00    -0.027 S 
ATOM     20  S   UNL     1      -5.578   1.419   6.200  0.00  0.00    -0.061 S 
BRANCH  17  21
ATOM     21  C   UNL     1      -3.822  -1.642   4.559  0.00  0.00    +0.083 C 
ATOM     22  C   UNL     1      -4.537  -2.882   5.160  0.00  0.00    +0.023 C 
ATOM     23  C   UNL     1      -3.409  -3.943   5.184  0.00  0.00    +0.002 C 
ATOM     24  C   UNL     1      -2.145  -3.147   5.572  0.00  0.00    +0.002 C 
ATOM     25  C   UNL     1      -2.408  -1.684   5.174  0.00  0.00    +0.023 C 
ENDBRANCH  17  21
ENDBRANCH  10  13
BRANCH   9  26
ATOM     26  N   UNL     1      -8.398   2.075   5.222  0.00  0.00    -0.326 N 
ATOM     27  H   UNL     1      -7.901   1.353   4.807  0.00  0.00    +0.148 HD
BRANCH  26  28
ATOM     28  C   UNL     1      -9.587   1.779   6.024  0.00  0.00    +0.139 C 
BRANCH  28  29
ATOM     29  C   UNL     1      -9.823   0.267   6.048  0.00  0.00    +0.161 C 
BRANCH  29  30
ATOM     30  C   UNL     1     -11.046  -0.038   6.873  0.00  0.00    -0.018 A 
ATOM     31  C   UNL     1     -12.301   0.021   6.297  0.00  0.00    +0.006 A 
ATOM     32  C   UNL     1     -13.423  -0.264   7.053  0.00  0.00    +0.000 A 
ATOM     33  C   UNL     1     -13.291  -0.597   8.388  0.00  0.00    +0.000 A 
ATOM     34  C   UNL     1     -12.036  -0.650   8.965  0.00  0.00    +0.000 A 
ATOM     35  C   UNL     1     -10.914  -0.371   8.208  0.00  0.00    +0.006 A 
ENDBRANCH  29  30
BRANCH  29  36
ATOM     36  O   UNL     1     -10.019  -0.205   4.713  0.00  0.00    -0.386 OA
ATOM     37  H   UNL     1     -10.775   0.195   4.261  0.00  0.00    +0.210 HD
ENDBRANCH  29  36
ENDBRANCH  28  29
ENDBRANCH  26  28
ENDBRANCH   9  26
TORSDOF 7
