REMARK  Name = ZINC12507752
REMARK  4 active torsions:
REMARK  status: ('A' for Active; 'I' for Inactive)
REMARK    1  A    between atoms: C_1  and  C_2
REMARK    2  A    between atoms: C_2  and  C_3
REMARK    3  A    between atoms: C_2  and  C_4
REMARK    4  A    between atoms: C_7  and  C_10
REMARK                            x       y       z     vdW  Elec       q    Type
REMARK                         _______ _______ _______ _____ _____    ______ ____
ROOT
ATOM      1  C   UNL     1      -5.419  -2.005   0.043  0.00  0.00    +0.209 C 
ATOM      2  N   UNL     1      -5.443  -3.394  -0.452  0.00  0.00    -0.294 N 
ATOM      3  C   UNL     1      -5.422  -3.593  -1.825  0.00  0.00    +0.159 C 
ATOM      4  N   UNL     1      -6.373  -2.894  -2.570  0.00  0.00    -0.259 N 
ATOM      5  C   UNL     1      -6.690  -1.627  -2.082  0.00  0.00    +0.205 A 
ATOM      6  N   UNL     1      -6.255  -1.196  -0.851  0.00  0.00    -0.288 N 
ATOM      7  C   UNL     1      -6.741   0.080  -0.662  0.00  0.00    +0.076 A 
ATOM      8  C   UNL     1      -6.645   1.009   0.366  0.00  0.00    +0.077 A 
ATOM      9  C   UNL     1      -7.262   2.238   0.238  0.00  0.00    +0.164 A 
ATOM     10  C   UNL     1      -7.980   2.552  -0.912  0.00  0.00    +0.164 A 
ATOM     11  C   UNL     1      -8.089   1.638  -1.940  0.00  0.00    +0.079 A 
ATOM     12  C   UNL     1      -7.469   0.391  -1.824  0.00  0.00    +0.095 A 
ATOM     13  N   UNL     1      -7.398  -0.696  -2.649  0.00  0.00    -0.214 NA
ATOM     14  O   UNL     1      -8.579   3.775  -1.020  0.00  0.00    -0.488 OA
ATOM     15  C   UNL     1      -9.681   4.012  -0.142  0.00  0.00    +0.232 C 
ATOM     16  C   UNL     1      -9.195   4.495   1.215  0.00  0.00    +0.082 C 
ATOM     17  C   UNL     1      -8.380   3.441   1.947  0.00  0.00    +0.232 C 
ATOM     18  O   UNL     1      -7.168   3.157   1.244  0.00  0.00    -0.488 OA
ATOM     19  N   UNL     1      -4.559  -4.389  -2.390  0.00  0.00    -0.375 N 
ATOM     20  H   UNL     1      -5.471  -4.144   0.162  0.00  0.00    +0.151 HD
ATOM     21  H   UNL     1      -3.909  -4.862  -1.848  0.00  0.00    +0.158 HD
ATOM     22  H   UNL     1      -6.784  -3.263  -3.368  0.00  0.00    +0.158 HD
ATOM     23  H   UNL     1      -4.568  -4.510  -3.352  0.00  0.00    +0.158 HD
ENDROOT
BRANCH   1  27
ATOM     24  C   UNL     1      -1.412  -0.526   0.013  0.00  0.00    -0.045 A 
ATOM     25  C   UNL     1      -2.259  -0.204   1.056  0.00  0.00    +0.004 A 
ATOM     26  C   UNL     1      -3.556  -0.683   1.066  0.00  0.00    +0.007 A 
ATOM     27  C   UNL     1      -4.006  -1.482   0.032  0.00  0.00    -0.007 A 
ATOM     28  C   UNL     1      -3.159  -1.803  -1.012  0.00  0.00    +0.007 A 
ATOM     29  C   UNL     1      -1.863  -1.321  -1.024  0.00  0.00    +0.004 A 
BRANCH  24  31
ATOM     30  C   UNL     1      -0.019   1.526   0.010  0.00  0.00    +0.012 C 
ATOM     31  C   UNL     1       0.002  -0.004   0.002  0.00  0.00    +0.013 C 
ATOM     32  C   UNL     1       0.742  -0.511   1.242  0.00  0.00    +0.012 C 
ENDBRANCH  24  31
ENDBRANCH   1  27
TORSDOF 2
