REMARK  Name = ZINC08384573
REMARK  6 active torsions:
REMARK  status: ('A' for Active; 'I' for Inactive)
REMARK    1  A    between atoms: C_1  and  C_2
REMARK    2  A    between atoms: C_5  and  C_8
REMARK    3  A    between atoms: C_8  and  C_10
REMARK    4  A    between atoms: C_12  and  C_24
REMARK    5  A    between atoms: C_18  and  C_19
REMARK    6  A    between atoms: C_18  and  O_23
REMARK                            x       y       z     vdW  Elec       q    Type
REMARK                         _______ _______ _______ _____ _____    ______ ____
ROOT
ATOM      1  C   UNL     1      -4.556   3.585   4.530  0.00  0.00    +0.144 C 
ATOM      2  C   UNL     1      -4.665   4.597   5.676  0.00  0.00    +0.120 C 
ATOM      3  N   UNL     1      -3.966   4.071   6.849  0.00  0.00    -0.292 N 
ATOM      4  C   UNL     1      -3.860   2.751   7.065  0.00  0.00    +0.302 C 
ATOM      5  O   UNL     1      -3.277   2.367   8.060  0.00  0.00    -0.253 OA
ATOM      6  N   UNL     1      -4.372   1.838   6.226  0.00  0.00    -0.264 N 
ATOM      7  C   UNL     1      -5.095   2.236   5.017  0.00  0.00    +0.243 C 
ATOM      8  H   UNL     1      -3.570   4.689   7.483  0.00  0.00    +0.151 HD
ATOM      9  H   UNL     1      -4.260   0.895   6.424  0.00  0.00    +0.153 HD
ENDROOT
BRANCH   2  10
ATOM     10  C   UNL     1      -4.037   5.901   5.258  0.00  0.00    -0.025 A 
ATOM     11  C   UNL     1      -2.674   6.086   5.393  0.00  0.00    +0.007 A 
ATOM     12  C   UNL     1      -2.096   7.280   5.005  0.00  0.00    +0.022 A 
ATOM     13  C   UNL     1      -2.883   8.295   4.492  0.00  0.00    +0.059 A 
ATOM     14  C   UNL     1      -4.249   8.112   4.362  0.00  0.00    +0.060 A 
ATOM     15  C   UNL     1      -4.825   6.915   4.746  0.00  0.00    +0.027 A 
ATOM     16 CL   UNL     1      -5.239   9.385   3.718  0.00  0.00    -0.082 Cl
ATOM     17 CL   UNL     1      -2.159   9.798   4.012  0.00  0.00    -0.082 Cl
ENDBRANCH   2  10
BRANCH   7  18
ATOM     18  C   UNL     1      -4.891   1.181   3.929  0.00  0.00    +0.436 C 
ATOM     19  F   UNL     1      -3.522   0.966   3.738  0.00  0.00    -0.166 F 
ATOM     20  F   UNL     1      -5.500  -0.016   4.319  0.00  0.00    -0.166 F 
ATOM     21  F   UNL     1      -5.464   1.627   2.733  0.00  0.00    -0.166 F 
ENDBRANCH   7  18
BRANCH   1  22
ATOM     22  C   UNL     1      -3.113   3.436   4.122  0.00  0.00    +0.173 C 
ATOM     23  O   UNL     1      -2.308   2.972   4.901  0.00  0.00    -0.292 OA
BRANCH  22  28
ATOM     24  C   UNL     1      -1.425   5.066  -1.126  0.00  0.00    +0.044 C 
ATOM     25  C   UNL     1      -1.868   4.639   0.250  0.00  0.00    -0.050 A 
ATOM     26  C   UNL     1      -3.210   4.679   0.585  0.00  0.00    +0.004 A 
ATOM     27  C   UNL     1      -3.623   4.285   1.840  0.00  0.00    +0.011 A 
ATOM     28  C   UNL     1      -2.681   3.854   2.779  0.00  0.00    +0.018 A 
ATOM     29  C   UNL     1      -1.326   3.822   2.435  0.00  0.00    +0.011 A 
ATOM     30  C   UNL     1      -0.929   4.214   1.174  0.00  0.00    +0.004 A 
ENDBRANCH  22  28
ENDBRANCH   1  22
BRANCH   7  31
ATOM     31  O   UNL     1      -6.488   2.357   5.312  0.00  0.00    -0.364 OA
ATOM     32  H   UNL     1      -6.896   1.538   5.626  0.00  0.00    +0.212 HD
ENDBRANCH   7  31
TORSDOF 5
