REMARK  Name = ZINC08299045
REMARK  5 active torsions:
REMARK  status: ('A' for Active; 'I' for Inactive)
REMARK    1  A    between atoms: C_1  and  C_2
REMARK    2  A    between atoms: C_2  and  C_28
REMARK    3  A    between atoms: C_7  and  C_10
REMARK    4  A    between atoms: C_15  and  O_16
REMARK    5  A    between atoms: N_19  and  C_22
REMARK                            x       y       z     vdW  Elec       q    Type
REMARK                         _______ _______ _______ _____ _____    ______ ____
ROOT
ATOM      1  C   UNL     1       0.013   1.567   0.024  0.00  0.00    +0.002 C 
ATOM      2  C   UNL     1      -0.012   0.038   0.064  0.00  0.00    +0.045 C 
ATOM      3  C   UNL     1       0.719  -0.544  -1.164  0.00  0.00    +0.086 C 
ATOM      4  C   UNL     1       2.167  -0.812  -0.675  0.00  0.00    +0.077 C 
ATOM      5  C   UNL     1       2.179  -0.352   0.798  0.00  0.00    -0.023 C 
ATOM      6  N   UNL     1       0.756  -0.462   1.232  0.00  0.00    +0.395 N 
ATOM      7  C   UNL     1       2.285  -2.318  -0.742  0.00  0.00    +0.225 C 
ATOM      8  O   UNL     1       3.270  -2.958  -0.442  0.00  0.00    -0.275 OA
ATOM      9  N   UNL     1       1.132  -2.835  -1.183  0.00  0.00    -0.239 N 
ATOM     10  C   UNL     1       0.172  -1.922  -1.461  0.00  0.00    +0.225 C 
ATOM     11  O   UNL     1      -0.941  -2.160  -1.876  0.00  0.00    -0.275 OA
ATOM     12  H   UNL     1       0.592   0.122   2.038  0.00  0.00    -0.083 HD
ATOM     13  H   UNL     1       0.511  -1.420   1.432  0.00  0.00    -0.083 HD
ENDROOT
BRANCH   5  14
ATOM     14  C   UNL     1       3.040  -1.270   1.627  0.00  0.00    -0.019 A 
ATOM     15  C   UNL     1       2.462  -2.299   2.345  0.00  0.00    +0.005 A 
ATOM     16  C   UNL     1       3.251  -3.140   3.107  0.00  0.00    +0.000 A 
ATOM     17  C   UNL     1       4.620  -2.956   3.152  0.00  0.00    +0.004 A 
ATOM     18  C   UNL     1       5.204  -1.929   2.435  0.00  0.00    +0.045 A 
ATOM     19  C   UNL     1       4.414  -1.086   1.666  0.00  0.00    +0.118 A 
BRANCH  19  20
ATOM     20  O   UNL     1       4.986  -0.078   0.955  0.00  0.00    -0.507 OA
ATOM     21  H   UNL     1       5.060   0.754   1.442  0.00  0.00    +0.292 HD
ENDBRANCH  19  20
ENDBRANCH   5  14
BRANCH   9  22
ATOM     22  C   UNL     1       0.925  -4.274  -1.360  0.00  0.00    +0.084 C 
ATOM     23  C   UNL     1       1.113  -4.985  -0.018  0.00  0.00    +0.023 C 
ATOM     24  C   UNL     1       0.897  -6.488  -0.203  0.00  0.00    +0.002 C 
ATOM     25  C   UNL     1       1.911  -7.029  -1.213  0.00  0.00    +0.000 C 
ATOM     26  C   UNL     1       1.723  -6.318  -2.555  0.00  0.00    +0.002 C 
ATOM     27  C   UNL     1       1.939  -4.815  -2.370  0.00  0.00    +0.023 C 
ENDBRANCH   9  22
BRANCH   2  28
ATOM     28  C   UNL     1      -1.433  -0.461   0.117  0.00  0.00    +0.346 C 
ATOM     29  O   UNL     1      -2.206  -0.200  -0.789  0.00  0.00    -0.248 OA
ATOM     30  O   UNL     1      -1.810  -1.127   1.067  0.00  0.00    -0.248 OA
ENDBRANCH   2  28
TORSDOF 4
