REMARK  Name = ZINC64167259
REMARK  7 active torsions:
REMARK  status: ('A' for Active; 'I' for Inactive)
REMARK    1  A    between atoms: C_1  and  C_2
REMARK    2  A    between atoms: C_2  and  C_3
REMARK    3  A    between atoms: C_2  and  C_4
REMARK    4  A    between atoms: C_19  and  C_21
REMARK    5  A    between atoms: C_21  and  S_22
REMARK    6  A    between atoms: S_22  and  C_23
REMARK    7  A    between atoms: C_29  and  C_33
REMARK                            x       y       z     vdW  Elec       q    Type
REMARK                         _______ _______ _______ _____ _____    ______ ____
ROOT
ATOM      1  C   UNL     1      -1.359  -0.196  -0.207  0.00  0.00    +0.105 C 
ATOM      2  C   UNL     1      -1.559  -1.703  -0.408  0.00  0.00    +0.127 C 
ATOM      3  C   UNL     1      -3.061  -1.950  -0.375  0.00  0.00    -0.035 C 
ATOM      4  C   UNL     1      -3.365  -2.563  -1.513  0.00  0.00    -0.001 A 
ATOM      5  C   UNL     1      -4.633  -3.111  -2.022  0.00  0.00    +0.010 A 
ATOM      6  C   UNL     1      -4.589  -3.673  -3.259  0.00  0.00    +0.001 A 
ATOM      7  C   UNL     1      -3.426  -3.742  -4.032  0.00  0.00    +0.002 A 
ATOM      8  C   UNL     1      -2.216  -3.268  -3.641  0.00  0.00    +0.026 A 
ATOM      9  C   UNL     1      -2.134  -2.658  -2.355  0.00  0.00    +0.043 A 
ATOM     10  N   UNL     1      -1.094  -2.143  -1.724  0.00  0.00    -0.376 N 
ATOM     11  C   UNL     1      -3.938  -1.470   0.756  0.00  0.00    +0.052 C 
ATOM     12  C   UNL     1      -3.619   0.023   0.959  0.00  0.00    +0.112 C 
ATOM     13  N   UNL     1      -2.165   0.216   0.952  0.00  0.00    -0.295 N 
ATOM     14  C   UNL     1      -1.561   0.776   2.019  0.00  0.00    +0.226 C 
ATOM     15  O   UNL     1      -0.352   0.850   2.062  0.00  0.00    -0.275 OA
ATOM     16  H   UNL     1      -0.189  -2.061  -2.063  0.00  0.00    +0.160 HD
ENDROOT
BRANCH   1  18
ATOM     17  C   UNL     1       0.655  -0.879   1.103  0.00  0.00    +0.009 C 
ATOM     18  C   UNL     1       0.118   0.100   0.057  0.00  0.00    +0.006 C 
ATOM     19  C   UNL     1       0.910  -0.058  -1.242  0.00  0.00    +0.009 C 
ENDBRANCH   1  18
BRANCH  14  20
ATOM     20  C   UNL     1      -2.390   1.310   3.160  0.00  0.00    +0.171 C 
BRANCH  20  21
ATOM     21  S   UNL     1      -1.294   1.994   4.434  0.00  0.00    -0.100 S 
BRANCH  21  22
ATOM     22  C   UNL     1      -2.399   2.569   5.681  0.00  0.00    +0.078 C 
ATOM     23  C   UNL     1      -1.901   3.164   6.816  0.00  0.00    +0.035 C 
ATOM     24  C   UNL     1      -2.763   3.627   7.818  0.00  0.00    +0.047 C 
ATOM     25  C   UNL     1      -4.130   3.488   7.673  0.00  0.00    +0.134 C 
ATOM     26  N   UNL     1      -5.151   3.834   8.459  0.00  0.00    -0.265 N 
ATOM     27  N   UNL     1      -6.298   3.532   7.968  0.00  0.00    -0.181 NA
ATOM     28  C   UNL     1      -6.089   2.886   6.662  0.00  0.00    +0.263 C 
ATOM     29  N   UNL     1      -4.629   2.877   6.506  0.00  0.00    -0.206 N 
ATOM     30  N   UNL     1      -3.760   2.426   5.514  0.00  0.00    -0.254 N 
ATOM     31  H   UNL     1      -4.111   2.010   4.711  0.00  0.00    +0.171 HD
ATOM     32  H   UNL     1      -5.038   4.271   9.318  0.00  0.00    +0.190 HD
BRANCH  28  33
ATOM     33  C   UNL     1      -6.631   1.480   6.675  0.00  0.00    +0.016 A 
ATOM     34  C   UNL     1      -7.734   1.159   7.452  0.00  0.00    +0.010 A 
ATOM     35  C   UNL     1      -8.198  -0.147   7.433  0.00  0.00    +0.020 A 
ATOM     36  C   UNL     1      -7.551  -1.080   6.644  0.00  0.00    +0.111 A 
ATOM     37  N   UNL     1      -6.504  -0.740   5.918  0.00  0.00    -0.263 NA
ATOM     38  C   UNL     1      -6.039   0.495   5.907  0.00  0.00    +0.118 A 
ENDBRANCH  28  33
ENDBRANCH  21  22
ENDBRANCH  20  21
ENDBRANCH  14  20
TORSDOF 5
