REMARK  Name = ZINC20411573
REMARK  7 active torsions:
REMARK  status: ('A' for Active; 'I' for Inactive)
REMARK    1  A    between atoms: C_7  and  C_11
REMARK    2  A    between atoms: C_11  and  C_12
REMARK    3  A    between atoms: C_12  and  C_14
REMARK    4  A    between atoms: C_12  and  N_35
REMARK    5  A    between atoms: C_14  and  O_16
REMARK    6  A    between atoms: O_16  and  C_17
REMARK    7  A    between atoms: C_25  and  C_28
REMARK                            x       y       z     vdW  Elec       q    Type
REMARK                         _______ _______ _______ _____ _____    ______ ____
ROOT
ATOM      1  O   UNL     1       5.819   2.607  -0.040  0.00  0.00    -0.425 OA
ENDROOT
BRANCH   1   2
ATOM      2  C   UNL     1       4.722   1.807  -0.017  0.00  0.00    +0.135 A 
ATOM      3  C   UNL     1       4.380   1.138   1.156  0.00  0.00    +0.047 A 
ATOM      4  C   UNL     1       3.280   0.329   1.193  0.00  0.00    +0.019 A 
ATOM      5  C   UNL     1       2.496   0.174   0.049  0.00  0.00    +0.065 A 
ATOM      6  C   UNL     1       2.832   0.844  -1.140  0.00  0.00    +0.142 A 
ATOM      7  C   UNL     1       3.954   1.663  -1.160  0.00  0.00    +0.093 A 
ATOM      8  O   UNL     1       2.074   0.692  -2.244  0.00  0.00    -0.462 OA
ATOM      9  C   UNL     1       0.986  -0.080  -2.285  0.00  0.00    +0.208 A 
ATOM     10  C   UNL     1       0.547  -0.784  -1.209  0.00  0.00    +0.067 A 
ATOM     11  C   UNL     1       1.302  -0.691   0.052  0.00  0.00    +0.200 A 
ATOM     12  O   UNL     1       0.956  -1.300   1.050  0.00  0.00    -0.286 OA
BRANCH  10  13
ATOM     13  C   UNL     1      -0.668  -1.629  -1.303  0.00  0.00    +0.024 A 
ATOM     14  C   UNL     1      -0.682  -2.743  -2.140  0.00  0.00    +0.011 A 
ATOM     15  C   UNL     1      -1.815  -3.527  -2.223  0.00  0.00    +0.001 A 
ATOM     16  C   UNL     1      -2.937  -3.209  -1.478  0.00  0.00    +0.003 A 
ATOM     17  C   UNL     1      -2.930  -2.105  -0.645  0.00  0.00    +0.039 A 
ATOM     18  C   UNL     1      -1.799  -1.316  -0.549  0.00  0.00    +0.131 A 
ATOM     19  F   UNL     1      -1.792  -0.241   0.270  0.00  0.00    -0.205 F 
ENDBRANCH  10  13
ENDBRANCH   1   2
BRANCH   1  20
ATOM     20  C   UNL     1       7.015   2.005   0.048  0.00  0.00    +0.330 C 
ATOM     21  O   UNL     1       7.087   0.799   0.038  0.00  0.00    -0.249 OA
BRANCH  20  22
ATOM     22  C   UNL     1       8.269   2.833   0.161  0.00  0.00    +0.166 C 
BRANCH  22  23
ATOM     23  N   UNL     1       9.353   2.009   0.713  0.00  0.00    -0.318 NA
ATOM     24  H   UNL     1       9.064   1.643   1.709  0.00  0.00    +0.119 HD
ATOM     25  H   UNL     1       9.537   1.152   0.047  0.00  0.00    +0.119 HD
ENDBRANCH  22  23
BRANCH  22  26
ATOM     26  C   UNL     1       8.671   3.341  -1.225  0.00  0.00    +0.067 C 
BRANCH  26  33
ATOM     27  C   UNL     1      13.299   2.629  -1.016  0.00  0.00    +0.001 A 
ATOM     28  C   UNL     1      14.023   3.807  -0.897  0.00  0.00    +0.002 A 
ATOM     29  C   UNL     1      13.380   5.025  -0.852  0.00  0.00    +0.026 A 
ATOM     30  C   UNL     1      11.992   5.077  -0.925  0.00  0.00    +0.047 A 
ATOM     31  C   UNL     1      11.263   3.880  -1.045  0.00  0.00    +0.003 A 
ATOM     32  C   UNL     1      11.935   2.656  -1.089  0.00  0.00    +0.010 A 
ATOM     33  C   UNL     1       9.852   4.269  -1.098  0.00  0.00    -0.020 A 
ATOM     34  C   UNL     1       9.811   5.608  -1.016  0.00  0.00    +0.087 A 
ATOM     35  N   UNL     1      11.080   6.108  -0.907  0.00  0.00    -0.360 N 
ATOM     36  H   UNL     1      11.426   7.148  -0.815  0.00  0.00    +0.165 HD
ENDBRANCH  26  33
ENDBRANCH  22  26
ENDBRANCH  20  22
ENDBRANCH   1  20
TORSDOF 7
