REMARK  Name = ZINC02353874
REMARK  14 active torsions:
REMARK  status: ('A' for Active; 'I' for Inactive)
REMARK    1  A    between atoms: C_1  and  C_2
REMARK    2  A    between atoms: C_2  and  O_3
REMARK    3  A    between atoms: O_3  and  C_4
REMARK    4  A    between atoms: C_7  and  C_12
REMARK    5  A    between atoms: C_9  and  O_10
REMARK    6  A    between atoms: O_10  and  C_11
REMARK    7  A    between atoms: C_17  and  C_31
REMARK    8  A    between atoms: N_18  and  C_21
REMARK    9  A    between atoms: C_21  and  C_22
REMARK   10  A    between atoms: C_22  and  C_23
REMARK   11  A    between atoms: C_26  and  O_30
REMARK   12  A    between atoms: C_27  and  O_29
REMARK   13  A    between atoms: C_33  and  N_37
REMARK   14  A    between atoms: C_34  and  C_35
REMARK                            x       y       z     vdW  Elec       q    Type
REMARK                         _______ _______ _______ _____ _____    ______ ____
ROOT
ATOM      1  C   UNL     1       3.587   8.402   1.457  0.00  0.00    +0.103 C 
ATOM      2  C   UNL     1       2.288   7.643   1.464  0.00  0.00    +0.072 A 
ATOM      3  C   UNL     1       1.082   8.311   1.479  0.00  0.00    +0.141 A 
ATOM      4  C   UNL     1      -0.113   7.563   1.486  0.00  0.00    +0.068 A 
ATOM      5  C   UNL     1      -0.059   6.214   1.479  0.00  0.00    +0.022 A 
ATOM      6  N   UNL     1       1.133   5.563   1.464  0.00  0.00    -0.312 N 
ATOM      7  C   UNL     1       2.295   6.242   1.462  0.00  0.00    +0.259 A 
ATOM      8  O   UNL     1       3.356   5.637   1.454  0.00  0.00    -0.267 OA
ATOM      9  C   UNL     1      -1.340   5.419   1.487  0.00  0.00    +0.064 C 
ATOM     10  O   UNL     1       1.032   9.660   1.488  0.00  0.00    -0.441 OA
ATOM     11  C   UNL     1       2.113  10.369   1.857  0.00  0.00    +0.199 C 
ATOM     12  C   UNL     1       3.355   9.830   1.865  0.00  0.00    +0.098 C 
ENDROOT
BRANCH   1  16
ATOM     13  C   UNL     1       5.257   8.309  -2.479  0.00  0.00    +0.162 A 
ATOM     14  C   UNL     1       4.014   8.883  -2.264  0.00  0.00    +0.050 A 
ATOM     15  C   UNL     1       3.475   8.907  -0.991  0.00  0.00    +0.008 A 
ATOM     16  C   UNL     1       4.177   8.368   0.071  0.00  0.00    -0.031 A 
ATOM     17  C   UNL     1       5.417   7.793  -0.137  0.00  0.00    +0.054 A 
ATOM     18  C   UNL     1       5.962   7.762  -1.411  0.00  0.00    +0.162 A 
BRANCH  18  19
ATOM     19  O   UNL     1       7.181   7.196  -1.617  0.00  0.00    -0.491 OA
ATOM     20  C   UNL     1       7.846   6.654  -0.475  0.00  0.00    +0.277 C 
ENDBRANCH  18  19
BRANCH  13  21
ATOM     21  O   UNL     1       5.787   8.280  -3.731  0.00  0.00    -0.489 OA
BRANCH  21  23
ATOM     22  C   UNL     1       5.761   8.734  -6.105  0.00  0.00    +0.048 C 
ATOM     23  C   UNL     1       5.007   8.860  -4.779  0.00  0.00    +0.226 C 
ENDBRANCH  21  23
ENDBRANCH  13  21
ENDBRANCH   1  16
BRANCH  11  24
ATOM     24  N   UNL     1       1.953  11.678   2.238  0.00  0.00    -0.328 N 
ATOM     25  H   UNL     1       2.826  12.273   2.543  0.00  0.00    +0.145 HD
ATOM     26  H   UNL     1       0.951  12.133   2.237  0.00  0.00    +0.145 HD
ENDBRANCH  11  24
BRANCH  12  27
ATOM     27  C   UNL     1       4.468  10.635   2.269  0.00  0.00    +0.101 C 
ATOM     28  N   UNL     1       5.351  11.274   2.590  0.00  0.00    -0.191 NA
ENDBRANCH  12  27
BRANCH   6  29
ATOM     29  C   UNL     1       1.155   4.098   1.456  0.00  0.00    +0.130 C 
BRANCH  29  30
ATOM     30  C   UNL     1       1.149   3.596   0.010  0.00  0.00    +0.057 C 
BRANCH  30  31
ATOM     31  C   UNL     1       1.171   2.089   0.002  0.00  0.00    -0.042 A 
ATOM     32  C   UNL     1       2.379   1.417  -0.013  0.00  0.00    +0.007 A 
ATOM     33  C   UNL     1       2.405   0.035  -0.021  0.00  0.00    +0.049 A 
ATOM     34  C   UNL     1       1.218  -0.680  -0.013  0.00  0.00    +0.158 A 
ATOM     35  C   UNL     1       0.002  -0.004   0.002  0.00  0.00    +0.158 A 
ATOM     36  C   UNL     1      -0.017   1.381   0.010  0.00  0.00    +0.052 A 
BRANCH  35  37
ATOM     37  O   UNL     1      -1.165  -0.702   0.010  0.00  0.00    -0.503 OA
ATOM     38  H   UNL     1      -2.126  -0.166   0.022  0.00  0.00    +0.292 HD
ENDBRANCH  35  37
BRANCH  34  39
ATOM     39  O   UNL     1       1.242  -2.040  -0.021  0.00  0.00    -0.503 OA
ATOM     40  H   UNL     1       0.299  -2.607  -0.015  0.00  0.00    +0.292 HD
ENDBRANCH  34  39
ENDBRANCH  30  31
ENDBRANCH  29  30
ENDBRANCH   6  29
TORSDOF 11
