REMARK  Name = ZINC16689139
REMARK  13 active torsions:
REMARK  status: ('A' for Active; 'I' for Inactive)
REMARK    1  A    between atoms: C_1  and  C_2
REMARK    2  A    between atoms: C_2  and  O_3
REMARK    3  A    between atoms: O_3  and  C_4
REMARK    4  A    between atoms: C_6  and  C_20
REMARK    5  A    between atoms: C_9  and  O_10
REMARK    6  A    between atoms: O_10  and  C_11
REMARK    7  A    between atoms: C_11  and  C_12
REMARK    8  A    between atoms: C_20  and  N_57
REMARK    9  A    between atoms: C_21  and  C_22
REMARK   10  A    between atoms: C_21  and  N_57
REMARK   11  A    between atoms: C_22  and  N_23
REMARK   12  A    between atoms: N_23  and  C_24
REMARK   13  A    between atoms: C_27  and  N_30
REMARK                            x       y       z     vdW  Elec       q    Type
REMARK                         _______ _______ _______ _____ _____    ______ ____
ROOT
ATOM      1  C   UNL     1      -3.100  -2.643  -0.005  0.00  0.00    +0.162 A 
ATOM      2  C   UNL     1      -4.191  -3.498   0.001  0.00  0.00    +0.051 A 
ATOM      3  C   UNL     1      -5.473  -2.982   0.009  0.00  0.00    -0.061 A 
ATOM      4  C   UNL     1      -5.672  -1.614   0.018  0.00  0.00    +0.005 A 
ATOM      5  C   UNL     1      -4.588  -0.756   0.018  0.00  0.00    +0.049 A 
ATOM      6  C   UNL     1      -3.300  -1.266   0.009  0.00  0.00    +0.162 A 
ENDROOT
BRANCH   1   7
ATOM      7  O   UNL     1      -1.838  -3.148  -0.019  0.00  0.00    -0.489 OA
BRANCH   7   9
ATOM      8  C   UNL     1      -0.226  -4.949  -0.049  0.00  0.00    +0.048 C 
ATOM      9  C   UNL     1      -1.709  -4.571  -0.034  0.00  0.00    +0.226 C 
ENDBRANCH   7   9
ENDBRANCH   1   7
BRANCH   6  10
ATOM     10  O   UNL     1      -2.233  -0.422   0.009  0.00  0.00    -0.484 OA
BRANCH  10  11
ATOM     11  C   UNL     1      -2.514   0.979   0.019  0.00  0.00    +0.266 C 
BRANCH  11  12
ATOM     12  C   UNL     1      -1.219   1.750   0.017  0.00  0.00    +0.008 A 
ATOM     13  C   UNL     1      -0.013   1.076   0.008  0.00  0.00    +0.010 A 
ATOM     14  C   UNL     1       1.175   1.783   0.000  0.00  0.00    +0.020 A 
ATOM     15  C   UNL     1       1.157   3.166   0.008  0.00  0.00    +0.042 A 
ATOM     16  C   UNL     1      -0.050   3.842   0.023  0.00  0.00    +0.040 A 
ATOM     17  C   UNL     1      -1.238   3.134   0.031  0.00  0.00    +0.049 A 
ATOM     18 CL   UNL     1      -2.754   3.981   0.049  0.00  0.00    -0.083 Cl
ATOM     19 CL   UNL     1       2.648   4.054  -0.001  0.00  0.00    -0.083 Cl
ENDBRANCH  11  12
ENDBRANCH  10  11
ENDBRANCH   6  10
BRANCH   3  20
ATOM     20  C   UNL     1      -6.658  -3.914   0.010  0.00  0.00    -0.047 C 
BRANCH  20  21
ATOM     21  N   UNL     1      -7.045  -4.205  -1.383  0.00  0.00    +0.383 N 
ATOM     22  H   UNL     1      -6.255  -4.646  -1.869  0.00  0.00    -0.085 HD
ATOM     23  H   UNL     1      -7.291  -3.328  -1.857  0.00  0.00    -0.085 HD
BRANCH  21  24
ATOM     24  C   UNL     1      -8.204  -5.116  -1.413  0.00  0.00    -0.063 C 
BRANCH  24  25
ATOM     25  C   UNL     1      -8.582  -5.399  -2.869  0.00  0.00    +0.082 C 
BRANCH  25  26
ATOM     26  N   UNL     1      -9.733  -6.304  -2.907  0.00  0.00    -0.346 N 
ATOM     27  H   UNL     1     -10.128  -6.623  -2.080  0.00  0.00    +0.146 HD
BRANCH  26  28
ATOM     28  C   UNL     1     -10.263  -6.709  -4.135  0.00  0.00    +0.027 A 
ATOM     29  C   UNL     1      -9.702  -6.250  -5.320  0.00  0.00    +0.025 A 
ATOM     30  C   UNL     1     -10.225  -6.656  -6.532  0.00  0.00    +0.034 A 
ATOM     31  C   UNL     1     -11.312  -7.511  -6.566  0.00  0.00    +0.126 A 
ATOM     32  C   UNL     1     -11.875  -7.965  -5.388  0.00  0.00    +0.034 A 
ATOM     33  C   UNL     1     -11.354  -7.567  -4.173  0.00  0.00    +0.025 A 
BRANCH  31  34
ATOM     34  N   UNL     1     -11.872  -7.940  -7.867  0.00  0.00    +0.056 N 
ATOM     35  O   UNL     1     -12.829  -8.693  -7.899  0.00  0.00    -0.126 OA
ATOM     36  O   UNL     1     -11.377  -7.540  -8.906  0.00  0.00    -0.126 OA
ENDBRANCH  31  34
ENDBRANCH  26  28
ENDBRANCH  25  26
ENDBRANCH  24  25
ENDBRANCH  21  24
ENDBRANCH  20  21
ENDBRANCH   3  20
TORSDOF 12
