REMARK  Name = ZINC48342377
REMARK  6 active torsions:
REMARK  status: ('A' for Active; 'I' for Inactive)
REMARK    1  A    between atoms: C_5  and  S_7
REMARK    2  A    between atoms: S_7  and  N_10
REMARK    3  A    between atoms: N_10  and  C_11
REMARK    4  A    between atoms: C_11  and  C_12
REMARK    5  A    between atoms: C_12  and  C_14
REMARK    6  A    between atoms: C_12  and  N_22
REMARK                            x       y       z     vdW  Elec       q    Type
REMARK                         _______ _______ _______ _____ _____    ______ ____
ROOT
ATOM      1  C   UNL     1       4.080  -3.256  -3.089  0.00  0.00    -0.018 C 
ENDROOT
BRANCH   1   2
ATOM      2  C   UNL     1       5.529  -2.851  -3.171  0.00  0.00    -0.006 A 
ATOM      3  C   UNL     1       6.441  -3.352  -2.257  0.00  0.00    +0.126 A 
ATOM      4  C   UNL     1       7.772  -2.979  -2.334  0.00  0.00    +0.038 A 
ATOM      5  C   UNL     1       8.190  -2.108  -3.322  0.00  0.00    +0.004 A 
ATOM      6  C   UNL     1       7.280  -1.608  -4.234  0.00  0.00    +0.020 A 
ATOM      7  C   UNL     1       5.950  -1.984  -4.162  0.00  0.00    +0.045 A 
ATOM      8 CL   UNL     1       4.809  -1.361  -5.313  0.00  0.00    -0.083 Cl
ATOM      9  F   UNL     1       6.032  -4.204  -1.292  0.00  0.00    -0.205 F 
ENDBRANCH   1   2
BRANCH   1  10
ATOM     10  N   UNL     1       3.988  -4.706  -2.872  0.00  0.00    +0.385 N 
ATOM     11  C   UNL     1       2.578  -5.155  -3.002  0.00  0.00    -0.078 C 
ATOM     12  C   UNL     1       2.715  -6.667  -3.313  0.00  0.00    -0.020 C 
ATOM     13  C   UNL     1       3.960  -6.720  -4.228  0.00  0.00    -0.020 C 
ATOM     14  C   UNL     1       4.739  -5.428  -3.922  0.00  0.00    -0.078 C 
ATOM     15  H   UNL     1       4.348  -4.946  -1.960  0.00  0.00    -0.081 HD
ENDBRANCH   1  10
BRANCH   1  16
ATOM     16  C   UNL     1       3.411  -2.523  -1.925  0.00  0.00    +0.095 C 
BRANCH  16  17
ATOM     17  N   UNL     1       3.384  -1.085  -2.204  0.00  0.00    -0.191 NA
ATOM     18  H   UNL     1       3.953  -0.715  -2.897  0.00  0.00    +0.148 HD
BRANCH  17  19
ATOM     19  S   UNL     1       2.381  -0.092  -1.338  0.00  0.00    +0.059 S 
ATOM     20  O   UNL     1       1.090  -0.684  -1.377  0.00  0.00    -0.153 OA
ATOM     21  O   UNL     1       2.627   1.231  -1.794  0.00  0.00    -0.153 OA
BRANCH  19  26
ATOM     22  C   UNL     1       2.492  -0.718   2.630  0.00  0.00    +0.002 A 
ATOM     23  C   UNL     1       3.744  -0.246   2.977  0.00  0.00    +0.001 A 
ATOM     24  C   UNL     1       4.581   0.273   2.007  0.00  0.00    +0.017 A 
ATOM     25  C   UNL     1       4.165   0.320   0.688  0.00  0.00    +0.044 A 
ATOM     26  C   UNL     1       2.912  -0.152   0.341  0.00  0.00    +0.119 A 
ATOM     27  C   UNL     1       2.076  -0.671   1.312  0.00  0.00    +0.029 A 
ATOM     28 BR   UNL     1       5.308   1.031  -0.640  0.00  0.00    -0.048 Br
ENDBRANCH  19  26
ENDBRANCH  17  19
ENDBRANCH  16  17
ENDBRANCH   1  16
TORSDOF 6
