REMARK  Name = ZINC46423657
REMARK  9 active torsions:
REMARK  status: ('A' for Active; 'I' for Inactive)
REMARK    1  A    between atoms: C_1  and  C_2
REMARK    2  A    between atoms: C_5  and  C_28
REMARK    3  A    between atoms: N_8  and  C_10
REMARK    4  A    between atoms: C_10  and  C_11
REMARK    5  A    between atoms: C_11  and  N_12
REMARK    6  A    between atoms: N_15  and  N_16
REMARK    7  A    between atoms: C_17  and  C_19
REMARK    8  A    between atoms: C_19  and  O_20
REMARK    9  A    between atoms: O_20  and  C_21
REMARK                            x       y       z     vdW  Elec       q    Type
REMARK                         _______ _______ _______ _____ _____    ______ ____
ROOT
ATOM      1  N   UNL     1       3.766  -2.508   3.387  0.00  0.00    -0.300 N 
ATOM      2  C   UNL     1       5.085  -2.243   3.470  0.00  0.00    +0.316 C 
ATOM      3  O   UNL     1       5.633  -1.606   2.592  0.00  0.00    -0.251 OA
ATOM      4  N   UNL     1       5.796  -2.685   4.526  0.00  0.00    -0.218 N 
ATOM      5  H   UNL     1       3.329  -3.017   4.088  0.00  0.00    +0.150 HD
ATOM      6  H   UNL     1       6.745  -2.494   4.586  0.00  0.00    +0.174 HD
ENDROOT
BRANCH   4   7
ATOM      7  N   UNL     1       5.164  -3.419   5.538  0.00  0.00    -0.230 N 
ATOM      8  C   UNL     1       5.875  -3.861   6.595  0.00  0.00    +0.267 C 
ATOM      9  O   UNL     1       7.062  -3.623   6.669  0.00  0.00    -0.271 OA
ATOM     10  H   UNL     1       4.215  -3.610   5.479  0.00  0.00    +0.173 HD
BRANCH   8  11
ATOM     11  C   UNL     1       5.196  -4.651   7.683  0.00  0.00    +0.326 C 
BRANCH  11  12
ATOM     12  O   UNL     1       6.153  -5.003   8.685  0.00  0.00    -0.483 OA
BRANCH  12  13
ATOM     13  C   UNL     1       5.700  -5.723   9.745  0.00  0.00    +0.121 A 
ATOM     14  C   UNL     1       4.363  -6.088   9.817  0.00  0.00    +0.048 A 
ATOM     15  C   UNL     1       3.905  -6.819  10.895  0.00  0.00    +0.042 A 
ATOM     16  C   UNL     1       4.778  -7.188  11.904  0.00  0.00    +0.124 A 
ATOM     17  C   UNL     1       6.112  -6.824  11.834  0.00  0.00    +0.042 A 
ATOM     18  C   UNL     1       6.575  -6.098  10.754  0.00  0.00    +0.048 A 
ATOM     19  F   UNL     1       4.328  -7.904  12.958  0.00  0.00    -0.205 F 
ENDBRANCH  12  13
ENDBRANCH  11  12
ENDBRANCH   8  11
ENDBRANCH   4   7
BRANCH   1  20
ATOM     20  C   UNL     1       2.993  -2.028   2.239  0.00  0.00    +0.087 C 
BRANCH  20  21
ATOM     21  C   UNL     1       1.534  -2.461   2.390  0.00  0.00    -0.060 C 
BRANCH  21  27
ATOM     22  C   UNL     1      -0.019   1.526   0.010  0.00  0.00    +0.005 C 
ATOM     23  C   UNL     1       0.002  -0.004   0.002  0.00  0.00    -0.031 C 
ATOM     24  C   UNL     1      -1.434  -0.535   0.015  0.00  0.00    +0.003 C 
ATOM     25  C   UNL     1      -1.402  -2.064   0.086  0.00  0.00    -0.031 C 
ATOM     26  C   UNL     1      -0.613  -2.496   1.324  0.00  0.00    -0.076 C 
ATOM     27  N   UNL     1       0.758  -1.980   1.239  0.00  0.00    +0.381 N 
ATOM     28  C   UNL     1       0.740  -0.512   1.242  0.00  0.00    -0.076 C 
ATOM     29  C   UNL     1      -2.832  -2.602   0.177  0.00  0.00    +0.005 C 
ATOM     30  H   UNL     1       1.188  -2.307   0.386  0.00  0.00    -0.082 HD
ENDBRANCH  21  27
ENDBRANCH  20  21
ENDBRANCH   1  20
TORSDOF 7
