REMARK  Name = ZINC59264023
REMARK  5 active torsions:
REMARK  status: ('A' for Active; 'I' for Inactive)
REMARK    1  A    between atoms: C_1  and  C_2
REMARK    2  A    between atoms: C_2  and  C_4
REMARK    3  A    between atoms: C_2  and  N_11
REMARK    4  A    between atoms: N_14  and  C_15
REMARK    5  A    between atoms: C_15  and  C_16
REMARK                            x       y       z     vdW  Elec       q    Type
REMARK                         _______ _______ _______ _____ _____    ______ ____
ROOT
ATOM      1  C   UNL     1       0.669  -2.011   5.632  0.00  0.00    -0.014 A 
ATOM      2  C   UNL     1       0.871  -3.378   5.763  0.00  0.00    +0.010 A 
ATOM      3  C   UNL     1       1.728  -3.827   6.752  0.00  0.00    +0.042 A 
ATOM      4  C   UNL     1       2.355  -2.898   7.577  0.00  0.00    +0.099 A 
ATOM      5  N   UNL     1       2.136  -1.602   7.420  0.00  0.00    -0.349 N 
ATOM      6  C   UNL     1       1.329  -1.145   6.481  0.00  0.00    +0.089 A 
ATOM      7  N   UNL     1       3.219  -3.336   8.575  0.00  0.00    -0.312 N 
ATOM      8  C   UNL     1       3.587  -4.755   8.700  0.00  0.00    +0.111 C 
ATOM      9  C   UNL     1       5.088  -4.876   8.441  0.00  0.00    +0.054 C 
ATOM     10  C   UNL     1       5.852  -3.841   9.225  0.00  0.00    -0.041 A 
ATOM     11  C   UNL     1       7.205  -4.069   9.445  0.00  0.00    +0.004 A 
ATOM     12  C   UNL     1       7.965  -3.157  10.146  0.00  0.00    +0.000 A 
ATOM     13  C   UNL     1       7.379  -2.004  10.634  0.00  0.00    +0.000 A 
ATOM     14  C   UNL     1       6.035  -1.777  10.420  0.00  0.00    +0.005 A 
ATOM     15  C   UNL     1       5.268  -2.697   9.720  0.00  0.00    -0.027 A 
ATOM     16  C   UNL     1       3.804  -2.400   9.540  0.00  0.00    +0.141 C 
ATOM     17  H   UNL     1       2.584  -0.973   8.006  0.00  0.00    +0.167 HD
ENDROOT
BRANCH   1  18
ATOM     18  C   UNL     1      -0.256  -1.477   4.569  0.00  0.00    +0.142 C 
BRANCH  18  22
ATOM     19  N   UNL     1       0.573  -0.538   1.112  0.00  0.00    -0.293 N 
ATOM     20  C   UNL     1      -0.124  -0.757   2.245  0.00  0.00    +0.300 C 
ATOM     21  O   UNL     1      -1.316  -0.521   2.281  0.00  0.00    -0.253 OA
ATOM     22  N   UNL     1       0.501  -1.238   3.338  0.00  0.00    -0.295 N 
ATOM     23  H   UNL     1       1.524  -0.726   1.083  0.00  0.00    +0.151 HD
ATOM     24  H   UNL     1       1.452  -1.427   3.309  0.00  0.00    +0.151 HD
BRANCH  19  26
ATOM     25  C   UNL     1      -0.076   1.515  -0.049  0.00  0.00    +0.033 C 
ATOM     26  C   UNL     1      -0.107  -0.015  -0.076  0.00  0.00    +0.103 C 
BRANCH  26  27
ATOM     27  C   UNL     1       0.595  -0.509  -1.314  0.00  0.00    -0.009 A 
ATOM     28  C   UNL     1       1.940  -0.823  -1.268  0.00  0.00    +0.007 A 
ATOM     29  C   UNL     1       2.584  -1.277  -2.404  0.00  0.00    +0.000 A 
ATOM     30  C   UNL     1       1.882  -1.417  -3.587  0.00  0.00    +0.001 A 
ATOM     31  C   UNL     1       0.537  -1.104  -3.635  0.00  0.00    +0.020 A 
ATOM     32  C   UNL     1      -0.109  -0.655  -2.496  0.00  0.00    +0.046 A 
ATOM     33 CL   UNL     1      -1.800  -0.268  -2.554  0.00  0.00    -0.083 Cl
ENDBRANCH  26  27
ENDBRANCH  19  26
ENDBRANCH  18  22
ENDBRANCH   1  18
TORSDOF 4
