REMARK  Name = ZINC41671491
REMARK  7 active torsions:
REMARK  status: ('A' for Active; 'I' for Inactive)
REMARK    1  A    between atoms: C_1  and  C_2
REMARK    2  A    between atoms: C_5  and  N_9
REMARK    3  A    between atoms: C_6  and  C_8
REMARK    4  A    between atoms: C_10  and  C_12
REMARK    5  A    between atoms: C_12  and  O_13
REMARK    6  A    between atoms: O_13  and  C_14
REMARK    7  A    between atoms: N_24  and  N_25
REMARK                            x       y       z     vdW  Elec       q    Type
REMARK                         _______ _______ _______ _____ _____    ______ ____
ROOT
ATOM      1  C   UNL     1      -0.322  -8.158  -2.711  0.00  0.00    +0.147 A 
ATOM      2  C   UNL     1      -0.327  -9.002  -1.624  0.00  0.00    +0.048 A 
ATOM      3  C   UNL     1      -0.421 -10.380  -1.792  0.00  0.00    +0.004 A 
ATOM      4  C   UNL     1      -0.511 -10.929  -3.035  0.00  0.00    +0.010 A 
ATOM      5  C   UNL     1      -0.509 -10.100  -4.168  0.00  0.00    +0.004 A 
ATOM      6  C   UNL     1      -0.419  -8.697  -4.010  0.00  0.00    +0.115 A 
ATOM      7  N   UNL     1      -0.421  -7.902  -5.086  0.00  0.00    -0.227 NA
ATOM      8  C   UNL     1      -0.511  -8.398  -6.302  0.00  0.00    +0.133 A 
ATOM      9  C   UNL     1      -0.609  -9.780  -6.525  0.00  0.00    +0.045 A 
ATOM     10  C   UNL     1      -0.600 -10.639  -5.468  0.00  0.00    +0.013 A 
ATOM     11  N   UNL     1      -0.510  -7.535  -7.389  0.00  0.00    -0.268 N 
ATOM     12  H   UNL     1      -0.576  -7.889  -8.290  0.00  0.00    +0.167 HD
ENDROOT
BRANCH  11  13
ATOM     13  N   UNL     1      -0.416  -6.187  -7.190  0.00  0.00    -0.255 NA
ATOM     14  H   UNL     1      -0.428  -5.690  -8.068  0.00  0.00    +0.140 HD
ATOM     15  H   UNL     1      -1.150  -5.860  -6.580  0.00  0.00    +0.140 HD
ENDBRANCH  11  13
BRANCH   1  16
ATOM     16  O   UNL     1      -0.230  -6.814  -2.533  0.00  0.00    -0.481 OA
BRANCH  16  17
ATOM     17  C   UNL     1      -0.134  -6.343  -1.187  0.00  0.00    +0.325 C 
BRANCH  17  19
ATOM     18  N   UNL     1       0.059  -4.170  -0.021  0.00  0.00    -0.282 N 
ATOM     19  C   UNL     1      -0.040  -4.839  -1.187  0.00  0.00    +0.255 C 
ATOM     20  O   UNL     1      -0.054  -4.230  -2.236  0.00  0.00    -0.272 OA
ATOM     21  H   UNL     1       0.135  -4.658   0.814  0.00  0.00    +0.155 HD
BRANCH  18  26
ATOM     22  C   UNL     1       0.025   1.503   0.005  0.00  0.00    +0.044 C 
ATOM     23  C   UNL     1       0.034  -0.004  -0.002  0.00  0.00    -0.050 A 
ATOM     24  C   UNL     1       0.632  -0.685  -1.046  0.00  0.00    +0.005 A 
ATOM     25  C   UNL     1       0.641  -2.066  -1.055  0.00  0.00    +0.024 A 
ATOM     26  C   UNL     1       0.051  -2.771  -0.014  0.00  0.00    +0.036 A 
ATOM     27  C   UNL     1      -0.548  -2.083   1.033  0.00  0.00    -0.029 A 
ATOM     28  C   UNL     1      -0.550  -0.702   1.039  0.00  0.00    +0.008 A 
ATOM     29  C   UNL     1      -1.190  -2.843   2.165  0.00  0.00    +0.045 C 
ENDBRANCH  18  26
ENDBRANCH  17  19
ENDBRANCH  16  17
ENDBRANCH   1  16
TORSDOF 5
