REMARK  Name = ZINC39695823
REMARK  11 active torsions:
REMARK  status: ('A' for Active; 'I' for Inactive)
REMARK    1  A    between atoms: C_1  and  C_2
REMARK    2  A    between atoms: C_2  and  C_3
REMARK    3  A    between atoms: C_3  and  C_4
REMARK    4  A    between atoms: C_4  and  C_5
REMARK    5  A    between atoms: C_5  and  C_7
REMARK    6  A    between atoms: C_5  and  C_8
REMARK    7  A    between atoms: C_12  and  C_21
REMARK    8  A    between atoms: N_23  and  C_24
REMARK    9  A    between atoms: C_24  and  C_26
REMARK   10  A    between atoms: C_24  and  C_27
REMARK   11  A    between atoms: C_33  and  C_37
REMARK                            x       y       z     vdW  Elec       q    Type
REMARK                         _______ _______ _______ _____ _____    ______ ____
ROOT
ATOM      1  C   UNL     1       1.419  -4.210   2.487  0.00  0.00    +0.218 C 
ATOM      2  O   UNL     1       0.786  -4.838   1.665  0.00  0.00    -0.275 OA
ATOM      3  N   UNL     1       1.985  -4.846   3.531  0.00  0.00    -0.300 N 
ATOM      4  C   UNL     1       2.782  -4.255   4.631  0.00  0.00    +0.121 C 
ATOM      5  C   UNL     1       2.333  -5.022   5.896  0.00  0.00    +0.100 C 
ATOM      6  C   UNL     1       1.789  -6.361   5.370  0.00  0.00    -0.004 C 
ATOM      7  C   UNL     1       1.944  -6.295   3.843  0.00  0.00    +0.115 C 
ATOM      8  C   UNL     1       0.317  -6.514   5.738  0.00  0.00    -0.010 C 
ATOM      9  C   UNL     1      -0.186  -7.878   5.255  0.00  0.00    -0.082 C 
ATOM     10  N   UNL     1       0.609  -8.943   5.877  0.00  0.00    +0.379 N 
ATOM     11  C   UNL     1       2.008  -8.843   5.444  0.00  0.00    -0.082 C 
ATOM     12  C   UNL     1       2.603  -7.521   5.935  0.00  0.00    -0.010 C 
ATOM     13  H   UNL     1       0.562  -8.853   6.881  0.00  0.00    -0.086 HD
ATOM     14  H   UNL     1       0.237  -9.841   5.605  0.00  0.00    -0.086 HD
ENDROOT
BRANCH   5  15
ATOM     15  C   UNL     1       3.506  -5.253   6.814  0.00  0.00    +0.219 C 
ATOM     16  O   UNL     1       4.620  -5.383   6.353  0.00  0.00    -0.275 OA
ATOM     17  N   UNL     1       3.316  -5.315   8.146  0.00  0.00    -0.305 N 
ATOM     18  H   UNL     1       2.425  -5.211   8.515  0.00  0.00    +0.149 HD
BRANCH  17  19
ATOM     19  C   UNL     1       4.456  -5.540   9.039  0.00  0.00    +0.136 C 
ATOM     20  C   UNL     1       5.135  -4.204   9.345  0.00  0.00    +0.036 C 
BRANCH  19  21
ATOM     21  C   UNL     1       3.973  -6.164  10.323  0.00  0.00    +0.128 A 
ATOM     22  H   UNL     1       5.661  -7.178  11.014  0.00  0.00    +0.167 HD
ATOM     23  N   UNL     1       2.769  -6.047  10.802  0.00  0.00    -0.231 NA
ATOM     24  C   UNL     1       2.674  -6.733  11.970  0.00  0.00    +0.089 A 
ATOM     25  C   UNL     1       1.637  -6.941  12.883  0.00  0.00    +0.030 A 
ATOM     26  C   UNL     1       1.855  -7.701  13.998  0.00  0.00    +0.005 A 
ATOM     27  C   UNL     1       3.097  -8.271  14.235  0.00  0.00    -0.048 A 
ATOM     28  C   UNL     1       4.135  -8.078  13.347  0.00  0.00    +0.031 A 
ATOM     29  C   UNL     1       3.933  -7.310  12.209  0.00  0.00    +0.067 A 
ATOM     30  N   UNL     1       4.731  -6.937  11.147  0.00  0.00    -0.340 N 
ATOM     31  C   UNL     1       3.314  -9.105  15.471  0.00  0.00    +0.044 C 
ENDBRANCH  19  21
ENDBRANCH  17  19
ENDBRANCH   5  15
BRANCH   1  32
ATOM     32  C   UNL     1       1.573  -2.718   2.340  0.00  0.00    +0.072 C 
ATOM     33  C   UNL     1       3.058  -2.368   2.226  0.00  0.00    +0.017 C 
BRANCH  32  34
ATOM     34  C   UNL     1       0.841  -2.252   1.080  0.00  0.00    +0.012 C 
BRANCH  34  35
ATOM     35  C   UNL     1       0.891  -0.725   0.997  0.00  0.00    +0.000 C 
BRANCH  35  37
ATOM     36  C   UNL     1       0.209   1.269  -0.345  0.00  0.00    +0.004 C 
ATOM     37  C   UNL     1       0.159  -0.258  -0.263  0.00  0.00    -0.003 C 
ENDBRANCH  35  37
ENDBRANCH  34  35
ENDBRANCH  32  34
ENDBRANCH   1  32
TORSDOF 7
