REMARK  Name = ZINC13353678
REMARK  11 active torsions:
REMARK  status: ('A' for Active; 'I' for Inactive)
REMARK    1  A    between atoms: C_1  and  C_2
REMARK    2  A    between atoms: C_2  and  C_3
REMARK    3  A    between atoms: C_3  and  C_5
REMARK    4  A    between atoms: C_3  and  N_17
REMARK    5  A    between atoms: N_7  and  C_8
REMARK    6  A    between atoms: C_13  and  O_14
REMARK    7  A    between atoms: O_14  and  C_15
REMARK    8  A    between atoms: C_15  and  C_16
REMARK    9  A    between atoms: C_20  and  C_23
REMARK   10  A    between atoms: C_27  and  C_34
REMARK   11  A    between atoms: C_30  and  C_33
REMARK                            x       y       z     vdW  Elec       q    Type
REMARK                         _______ _______ _______ _____ _____    ______ ____
ROOT
ATOM      1  N   UNL     1      -0.626   0.101   1.151  0.00  0.00    +0.387 N 
ATOM      2  C   UNL     1      -1.858   0.078   1.947  0.00  0.00    -0.077 C 
ATOM      3  C   UNL     1      -1.607   0.745   3.301  0.00  0.00    -0.006 C 
ATOM      4  C   UNL     1      -1.170   2.196   3.076  0.00  0.00    +0.072 C 
ATOM      5  C   UNL     1       0.073   2.211   2.183  0.00  0.00    -0.006 C 
ATOM      6  C   UNL     1      -0.240   1.489   0.870  0.00  0.00    -0.077 C 
ATOM      7  H   UNL     1       0.113  -0.355   1.664  0.00  0.00    -0.081 HD
ENDROOT
BRANCH   4   8
ATOM      8  C   UNL     1      -0.846   2.836   4.402  0.00  0.00    +0.219 C 
ATOM      9  O   UNL     1       0.283   2.783   4.841  0.00  0.00    -0.275 OA
ATOM     10  N   UNL     1      -1.811   3.467   5.099  0.00  0.00    -0.301 N 
ATOM     11  C   UNL     1      -3.204   3.454   4.630  0.00  0.00    +0.111 C 
ATOM     12  C   UNL     1      -4.101   2.947   5.763  0.00  0.00    +0.004 C 
ATOM     13  C   UNL     1      -3.867   3.797   7.014  0.00  0.00    +0.009 C 
ATOM     14  C   UNL     1      -2.408   3.664   7.457  0.00  0.00    +0.004 C 
ATOM     15  C   UNL     1      -1.492   4.175   6.347  0.00  0.00    +0.111 C 
ATOM     16  C   UNL     1      -2.183   4.488   8.727  0.00  0.00    +0.009 C 
ATOM     17  C   UNL     1      -5.567   3.054   5.340  0.00  0.00    +0.009 C 
ENDBRANCH   4   8
BRANCH   1  18
ATOM     18  C   UNL     1      -0.850  -0.609  -0.116  0.00  0.00    +0.019 C 
BRANCH  18  19
ATOM     19  C   UNL     1      -1.858   0.146  -0.943  0.00  0.00    +0.204 C 
ATOM     20  O   UNL     1      -2.537   1.012  -0.431  0.00  0.00    -0.277 OA
ATOM     21  N   UNL     1      -2.007  -0.141  -2.251  0.00  0.00    -0.284 N 
ATOM     22  H   UNL     1      -1.519  -0.882  -2.644  0.00  0.00    +0.155 HD
BRANCH  21  23
ATOM     23  C   UNL     1      -2.868   0.629  -3.045  0.00  0.00    +0.076 A 
ATOM     24  C   UNL     1      -3.250   1.896  -2.627  0.00  0.00    +0.027 A 
ATOM     25  C   UNL     1      -4.098   2.655  -3.412  0.00  0.00    +0.002 A 
ATOM     26  C   UNL     1      -4.568   2.154  -4.612  0.00  0.00    +0.004 A 
ATOM     27  C   UNL     1      -4.191   0.893  -5.034  0.00  0.00    +0.047 A 
ATOM     28  C   UNL     1      -3.337   0.128  -4.256  0.00  0.00    +0.142 A 
BRANCH  28  29
ATOM     29  O   UNL     1      -2.961  -1.110  -4.673  0.00  0.00    -0.490 OA
BRANCH  29  30
ATOM     30  C   UNL     1      -3.481  -1.559  -5.926  0.00  0.00    +0.226 C 
ATOM     31  C   UNL     1      -2.952  -2.963  -6.225  0.00  0.00    +0.048 C 
ENDBRANCH  29  30
ENDBRANCH  28  29
ENDBRANCH  21  23
ENDBRANCH  18  19
BRANCH  18  33
ATOM     32  C   UNL     1      -0.300  -2.825   0.898  0.00  0.00    +0.002 C 
ATOM     33  C   UNL     1      -1.377  -2.015   0.174  0.00  0.00    -0.010 C 
ENDBRANCH  18  33
ENDBRANCH   1  18
TORSDOF 7
