REMARK  Name = ZINC62384432
REMARK  10 active torsions:
REMARK  status: ('A' for Active; 'I' for Inactive)
REMARK    1  A    between atoms: C_1  and  C_2
REMARK    2  A    between atoms: C_2  and  C_3
REMARK    3  A    between atoms: C_2  and  C_4
REMARK    4  A    between atoms: C_2  and  N_5
REMARK    5  A    between atoms: C_6  and  C_8
REMARK    6  A    between atoms: C_11  and  N_14
REMARK    7  A    between atoms: N_17  and  C_18
REMARK    8  A    between atoms: N_17  and  C_21
REMARK    9  A    between atoms: C_18  and  C_19
REMARK   10  A    between atoms: C_21  and  C_22
REMARK                            x       y       z     vdW  Elec       q    Type
REMARK                         _______ _______ _______ _____ _____    ______ ____
ROOT
ATOM      1  N   UNL     1       4.612  -1.950  -6.069  0.00  0.00    -0.269 N 
ATOM      2  C   UNL     1       4.334  -3.171  -6.568  0.00  0.00    +0.307 C 
ATOM      3  O   UNL     1       3.450  -3.844  -6.072  0.00  0.00    -0.252 OA
ATOM      4  N   UNL     1       5.035  -3.646  -7.616  0.00  0.00    -0.270 N 
ATOM      5  H   UNL     1       5.270  -1.387  -6.505  0.00  0.00    +0.156 HD
ENDROOT
BRANCH   1   9
ATOM      6  C   UNL     1       2.642  -0.597  -2.657  0.00  0.00    +0.037 A 
ATOM      7  C   UNL     1       1.968  -1.397  -3.584  0.00  0.00    +0.015 A 
ATOM      8  C   UNL     1       2.622  -1.843  -4.711  0.00  0.00    +0.024 A 
ATOM      9  C   UNL     1       3.952  -1.497  -4.927  0.00  0.00    +0.035 A 
ATOM     10  C   UNL     1       4.626  -0.702  -4.006  0.00  0.00    +0.024 A 
ATOM     11  C   UNL     1       3.977  -0.248  -2.880  0.00  0.00    +0.015 A 
BRANCH   6  13
ATOM     12  N   UNL     1       0.657  -0.455  -1.235  0.00  0.00    -0.307 N 
ATOM     13  C   UNL     1       1.944  -0.117  -1.449  0.00  0.00    +0.244 C 
ATOM     14  O   UNL     1       2.530   0.583  -0.646  0.00  0.00    -0.270 OA
ATOM     15  H   UNL     1       0.189  -1.013  -1.876  0.00  0.00    +0.150 HD
BRANCH  12  17
ATOM     16  C   UNL     1      -0.049   1.552  -0.028  0.00  0.00    +0.031 C 
ATOM     17  C   UNL     1      -0.036   0.021  -0.035  0.00  0.00    +0.026 C 
ATOM     18  C   UNL     1       0.692  -0.489   1.210  0.00  0.00    +0.031 C 
ATOM     19  C   UNL     1      -1.474  -0.501  -0.036  0.00  0.00    +0.031 C 
ENDBRANCH  12  17
ENDBRANCH   6  13
ENDBRANCH   1   9
BRANCH   4  20
ATOM     20  C   UNL     1       6.099  -2.836  -8.213  0.00  0.00    +0.198 C 
BRANCH  20  21
ATOM     21  C   UNL     1       7.376  -3.130  -7.542  0.00  0.00    -0.086 C 
ATOM     22  C   UNL     1       8.393  -3.365  -7.006  0.00  0.00    +0.005 C 
ENDBRANCH  20  21
ENDBRANCH   4  20
BRANCH   4  23
ATOM     23  C   UNL     1       4.733  -4.973  -8.158  0.00  0.00    +0.145 C 
BRANCH  23  24
ATOM     24  C   UNL     1       3.688  -4.849  -9.237  0.00  0.00    -0.030 A 
ATOM     25  C   UNL     1       2.346  -4.926  -8.911  0.00  0.00    +0.008 A 
ATOM     26  C   UNL     1       1.387  -4.812  -9.899  0.00  0.00    +0.038 A 
ATOM     27  C   UNL     1       1.770  -4.621 -11.216  0.00  0.00    +0.123 A 
ATOM     28  C   UNL     1       3.113  -4.545 -11.541  0.00  0.00    +0.038 A 
ATOM     29  C   UNL     1       4.071  -4.654 -10.551  0.00  0.00    +0.008 A 
ATOM     30  F   UNL     1       0.833  -4.510 -12.182  0.00  0.00    -0.205 F 
ENDBRANCH  23  24
ENDBRANCH   4  23
TORSDOF 7
