REMARK  Name = ZINC14478689
REMARK  7 active torsions:
REMARK  status: ('A' for Active; 'I' for Inactive)
REMARK    1  A    between atoms: C_1  and  C_2
REMARK    2  A    between atoms: C_7  and  C_8
REMARK    3  A    between atoms: C_19  and  S_24
REMARK    4  A    between atoms: S_24  and  N_27
REMARK    5  A    between atoms: N_27  and  C_28
REMARK    6  A    between atoms: C_30  and  C_35
REMARK    7  A    between atoms: C_32  and  C_34
REMARK                            x       y       z     vdW  Elec       q    Type
REMARK                         _______ _______ _______ _____ _____    ______ ____
ROOT
ATOM      1  C   UNL     1      -1.881   2.472   0.490  0.00  0.00    +0.105 C 
ATOM      2  C   UNL     1      -1.866   1.128   1.196  0.00  0.00    +0.029 C 
ATOM      3  C   UNL     1      -3.175   0.326   1.202  0.00  0.00    +0.033 C 
ATOM      4  C   UNL     1      -2.655  -1.111   1.262  0.00  0.00    -0.030 C 
ATOM      5  C   UNL     1      -1.437  -1.166   0.764  0.00  0.00    -0.023 C 
ATOM      6  C   UNL     1      -1.050   0.179   0.268  0.00  0.00    +0.049 C 
ATOM      7  C   UNL     1       0.355   0.640   0.269  0.00  0.00    -0.018 A 
ATOM      8  C   UNL     1       1.420  -0.231   0.183  0.00  0.00    +0.034 A 
ATOM      9  C   UNL     1       2.715   0.252   0.154  0.00  0.00    +0.109 A 
ATOM     10  C   UNL     1       2.947   1.614   0.213  0.00  0.00    +0.030 A 
ATOM     11  C   UNL     1       1.888   2.493   0.308  0.00  0.00    +0.025 A 
ATOM     12  C   UNL     1       0.582   2.019   0.343  0.00  0.00    +0.031 A 
ATOM     13  N   UNL     1      -0.474   2.929   0.472  0.00  0.00    -0.336 N 
ATOM     14  H   UNL     1      -0.280   3.876   0.551  0.00  0.00    +0.147 HD
ENDROOT
BRANCH   1  21
ATOM     15  C   UNL     1      -4.724   2.504  -0.021  0.00  0.00    +0.044 C 
ATOM     16  C   UNL     1      -3.755   2.330  -1.162  0.00  0.00    -0.045 A 
ATOM     17  C   UNL     1      -4.227   2.186  -2.453  0.00  0.00    +0.004 A 
ATOM     18  C   UNL     1      -3.339   2.026  -3.500  0.00  0.00    +0.000 A 
ATOM     19  C   UNL     1      -1.978   2.011  -3.256  0.00  0.00    +0.000 A 
ATOM     20  C   UNL     1      -1.506   2.160  -1.965  0.00  0.00    +0.006 A 
ATOM     21  C   UNL     1      -2.395   2.314  -0.917  0.00  0.00    -0.024 A 
ENDBRANCH   1  21
BRANCH   9  22
ATOM     22  S   UNL     1       4.071  -0.869   0.042  0.00  0.00    +0.072 S 
ATOM     23  O   UNL     1       5.224  -0.155   0.465  0.00  0.00    -0.150 OA
ATOM     24  O   UNL     1       3.652  -2.076   0.663  0.00  0.00    -0.150 OA
BRANCH  22  25
ATOM     25  N   UNL     1       4.289  -1.214  -1.563  0.00  0.00    -0.216 N 
ATOM     26  H   UNL     1       4.166  -2.120  -1.885  0.00  0.00    +0.174 HD
BRANCH  25  27
ATOM     27  C   UNL     1       4.650  -0.199  -2.452  0.00  0.00    +0.049 A 
ATOM     28  C   UNL     1       3.716   0.309  -3.346  0.00  0.00    +0.028 A 
ATOM     29  C   UNL     1       4.075   1.315  -4.221  0.00  0.00    -0.048 A 
ATOM     30  C   UNL     1       5.366   1.810  -4.215  0.00  0.00    +0.006 A 
ATOM     31  C   UNL     1       6.300   1.304  -3.330  0.00  0.00    -0.048 A 
ATOM     32  C   UNL     1       5.946   0.301  -2.449  0.00  0.00    +0.028 A 
ATOM     33  C   UNL     1       7.706   1.846  -3.328  0.00  0.00    +0.044 C 
ATOM     34  C   UNL     1       3.060   1.871  -5.187  0.00  0.00    +0.044 C 
ENDBRANCH  25  27
ENDBRANCH  22  25
ENDBRANCH   9  22
TORSDOF 4
