REMARK  Name = ZINC25078117
REMARK  5 active torsions:
REMARK  status: ('A' for Active; 'I' for Inactive)
REMARK    1  A    between atoms: C_1  and  C_2
REMARK    2  A    between atoms: C_2  and  C_22
REMARK    3  A    between atoms: N_5  and  C_9
REMARK    4  A    between atoms: C_9  and  C_10
REMARK    5  A    between atoms: C_13  and  C_15
REMARK                            x       y       z     vdW  Elec       q    Type
REMARK                         _______ _______ _______ _____ _____    ______ ____
ROOT
ATOM      1  C   UNL     1       2.071   7.137   2.354  0.00  0.00    +0.047 C 
ATOM      2  C   UNL     1       0.717   6.721   2.933  0.00  0.00    +0.135 C 
ATOM      3  C   UNL     1       0.741   6.786   4.447  0.00  0.00    +0.251 C 
ATOM      4  O   UNL     1       1.454   6.153   5.196  0.00  0.00    -0.272 OA
ATOM      5  N   UNL     1      -0.200   7.695   4.784  0.00  0.00    -0.218 N 
ATOM      6  C   UNL     1      -0.803   8.207   3.705  0.00  0.00    +0.310 C 
ATOM      7  O   UNL     1      -1.682   9.044   3.756  0.00  0.00    -0.252 OA
ATOM      8  N   UNL     1      -0.327   7.690   2.558  0.00  0.00    -0.281 N 
ATOM      9  H   UNL     1      -0.567   7.858   1.497  0.00  0.00    +0.152 HD
ENDROOT
BRANCH   2  10
ATOM     10  C   UNL     1       0.346   5.336   2.467  0.00  0.00    -0.012 A 
ATOM     11  C   UNL     1       0.716   4.235   3.217  0.00  0.00    +0.010 A 
ATOM     12  C   UNL     1       0.380   2.961   2.796  0.00  0.00    +0.050 A 
ATOM     13  C   UNL     1      -0.330   2.792   1.619  0.00  0.00    +0.162 A 
ATOM     14  C   UNL     1      -0.702   3.897   0.867  0.00  0.00    +0.162 A 
ATOM     15  C   UNL     1      -0.364   5.171   1.292  0.00  0.00    +0.055 A 
ATOM     16  O   UNL     1      -1.402   3.720  -0.291  0.00  0.00    -0.488 OA
ATOM     17  C   UNL     1      -0.690   3.098  -1.362  0.00  0.00    +0.232 C 
ATOM     18  C   UNL     1      -0.736   1.583  -1.234  0.00  0.00    +0.082 C 
ATOM     19  C   UNL     1      -0.013   1.086   0.008  0.00  0.00    +0.232 C 
ATOM     20  O   UNL     1      -0.670   1.541   1.193  0.00  0.00    -0.488 OA
ENDBRANCH   2  10
BRANCH   5  21
ATOM     21  C   UNL     1      -0.519   8.075   6.163  0.00  0.00    +0.174 C 
BRANCH  21  22
ATOM     22  C   UNL     1      -1.605   7.175   6.693  0.00  0.00    +0.067 A 
ATOM     23  C   UNL     1      -1.282   6.070   7.416  0.00  0.00    +0.072 A 
ATOM     24  S   UNL     1      -2.910   5.417   7.765  0.00  0.00    -0.075 S 
ATOM     25  C   UNL     1      -3.841   6.683   6.913  0.00  0.00    +0.109 A 
ATOM     26  N   UNL     1      -2.866   7.460   6.462  0.00  0.00    -0.242 NA
BRANCH  25  27
ATOM     27  C   UNL     1      -5.304   6.827   6.756  0.00  0.00    +0.007 A 
ATOM     28  C   UNL     1      -5.829   7.908   6.046  0.00  0.00    +0.013 A 
ATOM     29  C   UNL     1      -7.194   8.035   5.898  0.00  0.00    +0.039 A 
ATOM     30  C   UNL     1      -8.045   7.098   6.464  0.00  0.00    +0.123 A 
ATOM     31  C   UNL     1      -7.529   6.026   7.174  0.00  0.00    +0.039 A 
ATOM     32  C   UNL     1      -6.165   5.886   7.323  0.00  0.00    +0.013 A 
ATOM     33  F   UNL     1      -9.382   7.229   6.321  0.00  0.00    -0.205 F 
ENDBRANCH  25  27
ENDBRANCH  21  22
ENDBRANCH   5  21
TORSDOF 4
