REMARK  Name = ZINC04010291
REMARK  7 active torsions:
REMARK  status: ('A' for Active; 'I' for Inactive)
REMARK    1  A    between atoms: C_1  and  C_2
REMARK    2  A    between atoms: C_2  and  C_3
REMARK    3  A    between atoms: C_3  and  C_4
REMARK    4  A    between atoms: C_11  and  N_23
REMARK    5  A    between atoms: C_12  and  C_21
REMARK    6  A    between atoms: C_17  and  C_19
REMARK    7  A    between atoms: C_20  and  N_45
REMARK                            x       y       z     vdW  Elec       q    Type
REMARK                         _______ _______ _______ _____ _____    ______ ____
ROOT
ATOM      1  C   UNL     1       0.068   1.184   2.481  0.00  0.00    +0.071 A 
ATOM      2  C   UNL     1       1.049   1.931   3.121  0.00  0.00    +0.048 A 
ATOM      3  C   UNL     1       1.484   1.210   4.193  0.00  0.00    +0.222 A 
ATOM      4  N   UNL     1       0.813   0.040   4.214  0.00  0.00    -0.246 N 
ATOM      5  H   UNL     1       0.929  -0.697   4.879  0.00  0.00    +0.192 HD
ATOM      6  N   UNL     1      -0.082   0.049   3.125  0.00  0.00    -0.176 NA
ATOM      7  O   UNL     1       2.429   1.653   5.062  0.00  0.00    -0.423 OA
ATOM      8  C   UNL     1       3.073   2.783   4.736  0.00  0.00    +0.200 C 
ATOM      9  C   UNL     1       2.750   3.591   3.704  0.00  0.00    +0.097 C 
ATOM     10  C   UNL     1       1.582   3.320   2.775  0.00  0.00    +0.041 C 
ATOM     11  C   UNL     1       2.107   3.265   1.355  0.00  0.00    -0.001 C 
ATOM     12  C   UNL     1       1.650   4.354   0.405  0.00  0.00    -0.078 C 
ATOM     13  C   UNL     1       0.005   5.164   1.929  0.00  0.00    -0.075 C 
ATOM     14  C   UNL     1       0.423   4.253   3.068  0.00  0.00    -0.015 C 
ATOM     15  C   UNL     1       0.651   5.065   4.343  0.00  0.00    +0.007 C 
ATOM     16  C   UNL     1       0.806   6.604   0.170  0.00  0.00    -0.096 C 
ATOM     17  N   UNL     1       1.171   5.535   1.135  0.00  0.00    +0.378 N 
ATOM     18  H   UNL     1       1.912   5.878   1.757  0.00  0.00    -0.082 HD
ENDROOT
BRANCH   8  19
ATOM     19  N   UNL     1       4.147   3.149   5.522  0.00  0.00    -0.328 N 
ATOM     20  H   UNL     1       4.640   3.961   5.323  0.00  0.00    +0.145 HD
ATOM     21  H   UNL     1       4.410   2.594   6.273  0.00  0.00    +0.145 HD
ENDBRANCH   8  19
BRANCH   9  22
ATOM     22  C   UNL     1       3.617   4.704   3.446  0.00  0.00    +0.101 C 
ATOM     23  N   UNL     1       4.304   5.586   3.242  0.00  0.00    -0.191 NA
ENDBRANCH   9  22
BRANCH   1  24
ATOM     24  C   UNL     1      -0.729   1.579   1.267  0.00  0.00    +0.057 C 
BRANCH  24  26
ATOM     25  C   UNL     1      -2.883   2.564   0.473  0.00  0.00    +0.004 C 
ATOM     26  C   UNL     1      -2.070   2.170   1.707  0.00  0.00    +0.003 C 
ENDBRANCH  24  26
ENDBRANCH   1  24
TORSDOF 4
