REMARK  Name = ZINC43665327
REMARK  2 active torsions:
REMARK  status: ('A' for Active; 'I' for Inactive)
REMARK    1  A    between atoms: C_7  and  N_12
REMARK    2  A    between atoms: C_13  and  N_18
REMARK                            x       y       z     vdW  Elec       q    Type
REMARK                         _______ _______ _______ _____ _____    ______ ____
ROOT
ATOM      1  C   UNL     1      -0.017   1.374   0.010  0.00  0.00    +0.000 A 
ATOM      2  C   UNL     1       1.171   2.083   0.002  0.00  0.00    +0.001 A 
ATOM      3  C   UNL     1       2.369   1.401  -0.004  0.00  0.00    +0.015 A 
ATOM      4  C   UNL     1       2.390   0.006  -0.010  0.00  0.00    +0.013 A 
ATOM      5  C   UNL     1       1.206  -0.705  -0.017  0.00  0.00    -0.010 A 
ATOM      6  C   UNL     1       0.002  -0.004   0.002  0.00  0.00    +0.007 A 
ATOM      7  C   UNL     1       1.110  -2.202  -0.068  0.00  0.00    +0.141 C 
ATOM      8  C   UNL     1       2.343  -2.911   0.464  0.00  0.00    +0.043 C 
ATOM      9  C   UNL     1       3.555  -2.522  -0.395  0.00  0.00    +0.077 C 
ATOM     10  S   UNL     1       3.963  -0.796   0.002  0.00  0.00    -0.125 S 
ENDROOT
BRANCH   7  11
ATOM     11  N   UNL     1      -0.048  -2.624   0.725  0.00  0.00    -0.242 N 
ATOM     12  C   UNL     1      -1.119  -3.322   0.267  0.00  0.00    +0.134 A 
ATOM     13  C   UNL     1      -1.964  -3.510   1.318  0.00  0.00    +0.100 A 
ATOM     14  C   UNL     1      -1.390  -2.909   2.442  0.00  0.00    +0.156 A 
ATOM     15  N   UNL     1      -0.244  -2.385   2.091  0.00  0.00    -0.176 NA
ATOM     16 CL   UNL     1      -3.485  -4.345   1.270  0.00  0.00    -0.078 Cl
BRANCH  12  17
ATOM     17  N   UNL     1      -1.317  -3.766  -1.039  0.00  0.00    -0.342 N 
ATOM     18  H   UNL     1      -0.651  -3.580  -1.720  0.00  0.00    +0.144 HD
ATOM     19  H   UNL     1      -2.120  -4.260  -1.267  0.00  0.00    +0.144 HD
ENDBRANCH  12  17
ENDBRANCH   7  11
TORSDOF 2
