REMARK  Name = ZINC59399009
REMARK  9 active torsions:
REMARK  status: ('A' for Active; 'I' for Inactive)
REMARK    1  A    between atoms: C_1  and  C_2
REMARK    2  A    between atoms: C_3  and  C_14
REMARK    3  A    between atoms: C_4  and  O_13
REMARK    4  A    between atoms: N_5  and  C_7
REMARK    5  A    between atoms: C_14  and  C_15
REMARK    6  A    between atoms: C_14  and  C_23
REMARK    7  A    between atoms: C_16  and  C_17
REMARK    8  A    between atoms: C_24  and  C_35
REMARK    9  A    between atoms: N_26  and  C_29
REMARK                            x       y       z     vdW  Elec       q    Type
REMARK                         _______ _______ _______ _____ _____    ______ ____
ROOT
ATOM      1  C   UNL     1      -0.117  -0.399  -2.617  0.00  0.00    +0.086 C 
ENDROOT
BRANCH   1   2
ATOM      2  C   UNL     1       1.165  -0.773  -3.314  0.00  0.00    +0.050 A 
ATOM      3  C   UNL     1       2.066   0.088  -3.830  0.00  0.00    +0.039 A 
ATOM      4  N   UNL     1       3.090  -0.634  -4.376  0.00  0.00    -0.294 N 
ATOM      5  N   UNL     1       2.812  -1.995  -4.191  0.00  0.00    -0.219 N 
ATOM      6  C   UNL     1       1.637  -2.088  -3.536  0.00  0.00    +0.276 A 
ATOM      7  O   UNL     1       1.081  -3.118  -3.199  0.00  0.00    -0.266 OA
ATOM      8  C   UNL     1       1.961   1.591  -3.808  0.00  0.00    +0.065 C 
ATOM      9  H   UNL     1       3.873  -0.267  -4.816  0.00  0.00    +0.187 HD
BRANCH   5  10
ATOM     10  C   UNL     1       3.612  -3.064  -4.606  0.00  0.00    +0.067 A 
ATOM     11  C   UNL     1       3.210  -4.370  -4.362  0.00  0.00    +0.028 A 
ATOM     12  C   UNL     1       4.003  -5.424  -4.773  0.00  0.00    +0.002 A 
ATOM     13  C   UNL     1       5.196  -5.179  -5.428  0.00  0.00    +0.000 A 
ATOM     14  C   UNL     1       5.599  -3.879  -5.673  0.00  0.00    +0.002 A 
ATOM     15  C   UNL     1       4.808  -2.821  -5.270  0.00  0.00    +0.028 A 
ENDBRANCH   5  10
ENDBRANCH   1   2
BRANCH   1  18
ATOM     16  C   UNL     1       0.825   0.675   0.209  0.00  0.00    +0.068 C 
ATOM     17  C   UNL     1       0.201  -0.670  -0.061  0.00  0.00    +0.068 A 
ATOM     18  C   UNL     1      -0.214  -1.143  -1.310  0.00  0.00    +0.048 A 
ATOM     19  C   UNL     1      -0.721  -2.392  -1.136  0.00  0.00    +0.220 A 
ATOM     20  N   UNL     1      -0.625  -2.691   0.187  0.00  0.00    -0.200 N 
ATOM     21  N   UNL     1      -0.039  -1.595   0.833  0.00  0.00    -0.168 NA
BRANCH  20  22
ATOM     22  C   UNL     1      -1.036  -3.886   0.796  0.00  0.00    +0.069 A 
ATOM     23  C   UNL     1      -2.157  -4.556   0.327  0.00  0.00    +0.028 A 
ATOM     24  C   UNL     1      -2.559  -5.732   0.928  0.00  0.00    +0.002 A 
ATOM     25  C   UNL     1      -1.845  -6.243   1.996  0.00  0.00    +0.000 A 
ATOM     26  C   UNL     1      -0.727  -5.578   2.466  0.00  0.00    +0.002 A 
ATOM     27  C   UNL     1      -0.317  -4.404   1.865  0.00  0.00    +0.028 A 
ENDBRANCH  20  22
BRANCH  19  28
ATOM     28  O   UNL     1      -1.231  -3.194  -2.105  0.00  0.00    -0.492 OA
ATOM     29  H   UNL     1      -0.600  -3.839  -2.454  0.00  0.00    +0.294 HD
ENDBRANCH  19  28
ENDBRANCH   1  18
BRANCH   1  30
ATOM     30  C   UNL     1      -1.289  -0.765  -3.491  0.00  0.00    -0.013 C 
ATOM     31  C   UNL     1      -2.132   0.174  -3.898  0.00  0.00    +0.004 C 
BRANCH  31  32
ATOM     32  C   UNL     1      -3.281  -0.184  -4.755  0.00  0.00    -0.025 A 
ATOM     33  C   UNL     1      -3.485  -1.512  -5.133  0.00  0.00    +0.008 A 
ATOM     34  C   UNL     1      -4.560  -1.840  -5.934  0.00  0.00    +0.001 A 
ATOM     35  C   UNL     1      -5.434  -0.857  -6.362  0.00  0.00    +0.000 A 
ATOM     36  C   UNL     1      -5.237   0.462  -5.990  0.00  0.00    +0.001 A 
ATOM     37  C   UNL     1      -4.170   0.802  -5.185  0.00  0.00    +0.008 A 
ENDBRANCH  31  32
ENDBRANCH   1  30
TORSDOF 7
