REMARK  Name = ZINC46180729
REMARK  6 active torsions:
REMARK  status: ('A' for Active; 'I' for Inactive)
REMARK    1  A    between atoms: C_1  and  C_2
REMARK    2  A    between atoms: C_13  and  C_15
REMARK    3  A    between atoms: C_15  and  S_16
REMARK    4  A    between atoms: S_16  and  C_19
REMARK    5  A    between atoms: C_19  and  C_20
REMARK    6  A    between atoms: C_24  and  C_26
REMARK                            x       y       z     vdW  Elec       q    Type
REMARK                         _______ _______ _______ _____ _____    ______ ____
ROOT
ATOM      1  S   UNL     1       1.530   1.065   4.749  0.00  0.00    -0.019 S 
ATOM      2  O   UNL     1       2.116   2.273   4.283  0.00  0.00    -0.174 OA
ATOM      3  O   UNL     1       0.198   1.089   5.242  0.00  0.00    -0.174 OA
ENDROOT
BRANCH   1   4
ATOM      4  C   UNL     1       1.630  -0.169   3.423  0.00  0.00    +0.262 C 
BRANCH   4  16
ATOM      5  C   UNL     1       1.843  -2.218   2.350  0.00  0.00    +0.028 C 
ATOM      6  C   UNL     1       1.617  -1.622   0.960  0.00  0.00    +0.079 C 
ATOM      7  C   UNL     1       0.776  -2.584   0.111  0.00  0.00    +0.027 C 
ATOM      8  C   UNL     1       0.623  -2.000  -1.293  0.00  0.00    +0.039 C 
ATOM      9  C   UNL     1       0.133  -0.578  -1.223  0.00  0.00    -0.026 A 
ATOM     10  C   UNL     1      -0.472  -0.022  -2.337  0.00  0.00    +0.005 A 
ATOM     11  C   UNL     1      -0.930   1.280  -2.305  0.00  0.00    +0.000 A 
ATOM     12  C   UNL     1      -0.786   2.039  -1.158  0.00  0.00    +0.002 A 
ATOM     13  C   UNL     1      -0.184   1.492  -0.042  0.00  0.00    +0.024 A 
ATOM     14  C   UNL     1       0.275   0.181  -0.072  0.00  0.00    +0.040 A 
ATOM     15  N   UNL     1       0.877  -0.358   1.074  0.00  0.00    -0.267 N 
ATOM     16  C   UNL     1       0.777   0.272   2.261  0.00  0.00    +0.241 C 
ATOM     17  O   UNL     1      -0.000   1.194   2.395  0.00  0.00    -0.273 OA
ENDBRANCH   4  16
ENDBRANCH   1   4
BRANCH   1  18
ATOM     18  C   UNL     1       2.604   0.363   6.031  0.00  0.00    +0.201 C 
BRANCH  18  19
ATOM     19  C   UNL     1       2.632   1.285   7.223  0.00  0.00    -0.026 A 
ATOM     20  C   UNL     1       3.579   2.290   7.297  0.00  0.00    +0.005 A 
ATOM     21  C   UNL     1       3.611   3.140   8.388  0.00  0.00    +0.001 A 
ATOM     22  C   UNL     1       2.696   2.990   9.411  0.00  0.00    +0.013 A 
ATOM     23  C   UNL     1       1.738   1.978   9.342  0.00  0.00    +0.037 A 
ATOM     24  C   UNL     1       1.708   1.127   8.236  0.00  0.00    +0.018 A 
BRANCH  23  25
ATOM     25  C   UNL     1       0.755   1.811  10.434  0.00  0.00    +0.242 C 
ATOM     26  O   UNL     1      -0.079   0.928  10.371  0.00  0.00    -0.270 OA
ATOM     27  N   UNL     1       0.783   2.637  11.498  0.00  0.00    -0.325 N 
ATOM     28  H   UNL     1       1.449   3.341  11.548  0.00  0.00    +0.145 HD
ATOM     29  H   UNL     1       0.139   2.527  12.215  0.00  0.00    +0.145 HD
ENDBRANCH  23  25
ENDBRANCH  18  19
ENDBRANCH   1  18
TORSDOF 5
