REMARK  Name = ZINC58254227
REMARK  7 active torsions:
REMARK  status: ('A' for Active; 'I' for Inactive)
REMARK    1  A    between atoms: C_1  and  N_2
REMARK    2  A    between atoms: N_2  and  C_3
REMARK    3  A    between atoms: C_3  and  C_4
REMARK    4  A    between atoms: C_7  and  C_9
REMARK    5  A    between atoms: C_9  and  C_10
REMARK    6  A    between atoms: C_10  and  N_11
REMARK    7  A    between atoms: N_14  and  C_15
REMARK                            x       y       z     vdW  Elec       q    Type
REMARK                         _______ _______ _______ _____ _____    ______ ____
ROOT
ATOM      1  N   UNL     1      -0.042  -0.160  -4.903  0.00  0.00    -0.299 N 
ATOM      2  C   UNL     1      -0.044  -0.827  -6.074  0.00  0.00    +0.300 C 
ATOM      3  O   UNL     1      -0.028  -2.043  -6.080  0.00  0.00    -0.253 OA
ATOM      4  N   UNL     1      -0.065  -0.147  -7.237  0.00  0.00    -0.294 N 
ATOM      5  H   UNL     1      -0.055   0.810  -4.897  0.00  0.00    +0.150 HD
ATOM      6  H   UNL     1      -0.078   0.823  -7.232  0.00  0.00    +0.151 HD
ENDROOT
BRANCH   4   7
ATOM      7  C   UNL     1      -0.067  -0.873  -8.510  0.00  0.00    +0.037 C 
ATOM      8  C   UNL     1       1.194  -1.735  -8.607  0.00  0.00    +0.029 C 
ATOM      9  C   UNL     1       1.191  -2.493  -9.936  0.00  0.00    -0.008 C 
ATOM     10  C   UNL     1       1.167  -1.492 -11.094  0.00  0.00    +0.007 C 
ATOM     11  C   UNL     1      -0.094  -0.630 -10.996  0.00  0.00    -0.008 C 
ATOM     12  C   UNL     1      -0.091   0.128  -9.667  0.00  0.00    +0.029 C 
ATOM     13  C   UNL     1      -1.331  -1.526 -11.070  0.00  0.00    +0.007 C 
ATOM     14  C   UNL     1      -1.307  -2.527  -9.913  0.00  0.00    -0.008 C 
ATOM     15  C   UNL     1      -0.047  -3.389 -10.011  0.00  0.00    +0.007 C 
ATOM     16  C   UNL     1      -1.305  -1.769  -8.584  0.00  0.00    +0.029 C 
ENDBRANCH   4   7
BRANCH   1  17
ATOM     17  C   UNL     1      -0.020  -0.899  -3.638  0.00  0.00    +0.115 C 
BRANCH  17  18
ATOM     18  C   UNL     1      -0.023   0.089  -2.470  0.00  0.00    +0.114 C 
BRANCH  18  21
ATOM     19  C   UNL     1      -0.018   1.461   0.010  0.00  0.00    +0.132 C 
ATOM     20  N   UNL     1       0.002  -0.004   0.002  0.00  0.00    -0.296 N 
ATOM     21  C   UNL     1       0.000  -0.672  -1.169  0.00  0.00    +0.217 C 
ATOM     22  O   UNL     1       0.017  -1.884  -1.175  0.00  0.00    -0.276 OA
BRANCH  20  23
ATOM     23  C   UNL     1       0.024  -0.743   1.267  0.00  0.00    +0.202 C 
BRANCH  23  24
ATOM     24  C   UNL     1      -1.389  -1.016   1.714  0.00  0.00    +0.228 C 
ATOM     25  O   UNL     1      -2.322  -0.631   1.042  0.00  0.00    -0.274 OA
ATOM     26  N   UNL     1      -1.615  -1.688   2.860  0.00  0.00    -0.328 N 
ATOM     27  H   UNL     1      -0.869  -1.996   3.397  0.00  0.00    +0.145 HD
ATOM     28  H   UNL     1      -2.525  -1.864   3.148  0.00  0.00    +0.145 HD
ENDBRANCH  23  24
ENDBRANCH  20  23
ENDBRANCH  18  21
ENDBRANCH  17  18
ENDBRANCH   1  17
TORSDOF 6
