REMARK  Name = ZINC12887294
REMARK  10 active torsions:
REMARK  status: ('A' for Active; 'I' for Inactive)
REMARK    1  A    between atoms: C_1  and  C_2
REMARK    2  A    between atoms: C_2  and  C_3
REMARK    3  A    between atoms: C_3  and  N_4
REMARK    4  A    between atoms: C_5  and  C_7
REMARK    5  A    between atoms: C_7  and  C_9
REMARK    6  A    between atoms: C_7  and  N_14
REMARK    7  A    between atoms: C_9  and  C_11
REMARK    8  A    between atoms: C_9  and  C_12
REMARK    9  A    between atoms: C_12  and  C_13
REMARK   10  A    between atoms: C_15  and  C_17
REMARK                            x       y       z     vdW  Elec       q    Type
REMARK                         _______ _______ _______ _____ _____    ______ ____
ROOT
ATOM      1  C   UNL     1       2.876   2.120   0.816  0.00  0.00    +0.167 C 
ATOM      2  C   UNL     1       2.602   0.642   0.504  0.00  0.00    +0.069 C 
ATOM      3  C   UNL     1       1.177   0.460   0.047  0.00  0.00    -0.015 A 
ATOM      4  C   UNL     1       0.441  -0.788  -0.058  0.00  0.00    +0.003 A 
ATOM      5  C   UNL     1       0.783  -2.112   0.232  0.00  0.00    +0.010 A 
ATOM      6  C   UNL     1      -0.181  -3.064   0.009  0.00  0.00    +0.001 A 
ATOM      7  C   UNL     1      -1.436  -2.740  -0.480  0.00  0.00    +0.002 A 
ATOM      8  C   UNL     1      -1.800  -1.438  -0.775  0.00  0.00    +0.026 A 
ATOM      9  C   UNL     1      -0.842  -0.450  -0.558  0.00  0.00    +0.047 A 
ATOM     10  N   UNL     1      -0.865   0.903  -0.736  0.00  0.00    -0.356 N 
ATOM     11  H   UNL     1      -1.620   1.409  -1.074  0.00  0.00    +0.166 HD
ATOM     12  C   UNL     1       0.340   1.438  -0.366  0.00  0.00    +0.046 A 
ATOM     13  C   UNL     1       0.729   2.896  -0.392  0.00  0.00    +0.155 C 
ATOM     14  N   UNL     1       2.197   2.926  -0.206  0.00  0.00    -0.273 N 
ATOM     15  C   UNL     1       2.733   3.719  -1.144  0.00  0.00    +0.248 C 
ATOM     16  O   UNL     1       3.884   4.109  -1.158  0.00  0.00    -0.270 OA
ATOM     17  C   UNL     1       1.718   4.043  -2.152  0.00  0.00    +0.042 A 
ATOM     18  C   UNL     1       0.478   3.533  -1.716  0.00  0.00    -0.009 A 
ATOM     19  C   UNL     1      -0.664   3.672  -2.472  0.00  0.00    +0.006 A 
ATOM     20  C   UNL     1      -0.545   4.352  -3.680  0.00  0.00    +0.000 A 
ATOM     21  C   UNL     1       0.661   4.870  -4.108  0.00  0.00    +0.001 A 
ATOM     22  C   UNL     1       1.822   4.734  -3.361  0.00  0.00    +0.013 A 
ENDROOT
BRANCH   1  24
ATOM     23  N   UNL     1       5.029   2.282  -0.391  0.00  0.00    -0.302 N 
ATOM     24  C   UNL     1       4.359   2.384   0.774  0.00  0.00    +0.235 C 
ATOM     25  O   UNL     1       4.949   2.689   1.789  0.00  0.00    -0.274 OA
ATOM     26  H   UNL     1       4.546   2.119  -1.216  0.00  0.00    +0.150 HD
BRANCH  23  27
ATOM     27  C   UNL     1       6.488   2.417  -0.410  0.00  0.00    +0.162 C 
BRANCH  27  29
ATOM     28  N   UNL     1       8.206   3.396  -1.897  0.00  0.00    -0.314 N 
ATOM     29  C   UNL     1       6.916   3.055  -1.707  0.00  0.00    +0.234 C 
ATOM     30  O   UNL     1       6.099   3.262  -2.579  0.00  0.00    -0.274 OA
ATOM     31  H   UNL     1       8.872   3.162  -1.232  0.00  0.00    +0.149 HD
BRANCH  28  32
ATOM     32  C   UNL     1       8.602   4.120  -3.108  0.00  0.00    +0.104 C 
BRANCH  32  34
ATOM     33  C   UNL     1      10.522   5.137  -4.340  0.00  0.00    +0.005 C 
ATOM     34  C   UNL     1      10.109   4.381  -3.076  0.00  0.00    +0.015 C 
ENDBRANCH  32  34
ENDBRANCH  28  32
ENDBRANCH  27  29
BRANCH  27  35
ATOM     35  C   UNL     1       7.130   1.034  -0.287  0.00  0.00    +0.015 C 
ATOM     36  C   UNL     1       6.843   0.461   1.103  0.00  0.00    +0.010 C 
BRANCH  35  37
ATOM     37  C   UNL     1       6.547   0.104  -1.352  0.00  0.00    +0.002 C 
ATOM     38  C   UNL     1       7.088   0.500  -2.727  0.00  0.00    +0.004 C 
ENDBRANCH  35  37
ENDBRANCH  27  35
ENDBRANCH  23  27
ENDBRANCH   1  24
TORSDOF 7
