REMARK  Name = ZINC14969764
REMARK  11 active torsions:
REMARK  status: ('A' for Active; 'I' for Inactive)
REMARK    1  A    between atoms: C_1  and  C_2
REMARK    2  A    between atoms: C_2  and  O_3
REMARK    3  A    between atoms: O_3  and  C_4
REMARK    4  A    between atoms: N_9  and  C_12
REMARK    5  A    between atoms: C_12  and  C_13
REMARK    6  A    between atoms: C_16  and  O_19
REMARK    7  A    between atoms: O_19  and  C_20
REMARK    8  A    between atoms: C_20  and  C_21
REMARK    9  A    between atoms: C_28  and  C_30
REMARK   10  A    between atoms: C_38  and  C_41
REMARK   11  A    between atoms: C_39  and  C_40
REMARK                            x       y       z     vdW  Elec       q    Type
REMARK                         _______ _______ _______ _____ _____    ______ ____
ROOT
ATOM      1  C   UNL     1      -6.252  -3.257  -1.240  0.00  0.00    +0.234 C 
ENDROOT
BRANCH   1   2
ATOM      2  C   UNL     1      -5.643  -1.854  -1.290  0.00  0.00    +0.044 C 
ATOM      3  C   UNL     1      -6.763  -0.811  -1.298  0.00  0.00    +0.010 C 
ATOM      4  C   UNL     1      -6.156   0.591  -1.382  0.00  0.00    +0.019 C 
ATOM      5  C   UNL     1      -5.276   0.836  -0.147  0.00  0.00    +0.108 C 
ATOM      6  N   UNL     1      -4.286  -0.245  -0.057  0.00  0.00    -0.297 N 
ATOM      7  C   UNL     1      -4.757  -1.637  -0.060  0.00  0.00    +0.115 C 
ATOM      8  C   UNL     1      -2.970   0.034   0.033  0.00  0.00    +0.249 C 
ATOM      9  O   UNL     1      -2.598   1.189   0.111  0.00  0.00    -0.270 OA
BRANCH   8  10
ATOM     10  C   UNL     1      -1.982  -1.061   0.037  0.00  0.00    +0.061 A 
ATOM     11  C   UNL     1      -2.091  -2.100   0.960  0.00  0.00    +0.015 A 
ATOM     12  C   UNL     1      -1.169  -3.131   0.968  0.00  0.00    +0.001 A 
ATOM     13  C   UNL     1      -0.127  -3.148   0.065  0.00  0.00    +0.010 A 
ATOM     14  C   UNL     1       0.004  -2.119  -0.869  0.00  0.00    +0.004 A 
ATOM     15  C   UNL     1      -0.923  -1.061  -0.885  0.00  0.00    +0.059 A 
ATOM     16  N   UNL     1      -0.553  -0.211  -1.896  0.00  0.00    -0.357 N 
ATOM     17  H   UNL     1      -1.145   0.693  -2.099  0.00  0.00    +0.166 HD
ATOM     18  C   UNL     1       0.575  -0.683  -2.513  0.00  0.00    +0.017 A 
ATOM     19  C   UNL     1       0.963  -1.833  -1.940  0.00  0.00    -0.022 A 
ATOM     20  C   UNL     1       2.155  -2.670  -2.324  0.00  0.00    +0.046 C 
ATOM     21  C   UNL     1       1.276  -0.011  -3.666  0.00  0.00    +0.063 C 
ENDBRANCH   8  10
ENDBRANCH   1   2
BRANCH   1  22
ATOM     22  O   UNL     1      -5.213  -4.232  -1.346  0.00  0.00    -0.492 OA
BRANCH  22  26
ATOM     23  C   UNL     1      -6.347  -8.197  -1.259  0.00  0.00    -0.033 A 
ATOM     24  C   UNL     1      -5.011  -7.864  -1.386  0.00  0.00    +0.008 A 
ATOM     25  C   UNL     1      -4.629  -6.537  -1.415  0.00  0.00    +0.046 A 
ATOM     26  C   UNL     1      -5.586  -5.538  -1.317  0.00  0.00    +0.121 A 
ATOM     27  C   UNL     1      -6.926  -5.875  -1.184  0.00  0.00    +0.046 A 
ATOM     28  C   UNL     1      -7.303  -7.203  -1.161  0.00  0.00    +0.008 A 
BRANCH  23  29
ATOM     29  C   UNL     1      -6.761  -9.646  -1.227  0.00  0.00    +0.119 C 
BRANCH  29  35
ATOM     30  C   UNL     1      -5.707 -12.729   3.111  0.00  0.00    +0.403 C 
ATOM     31  O   UNL     1      -6.337 -13.759   3.241  0.00  0.00    -0.226 OA
ATOM     32  N   UNL     1      -6.215 -11.715   2.383  0.00  0.00    -0.265 N 
ATOM     33  C   UNL     1      -7.531 -11.835   1.737  0.00  0.00    +0.126 C 
ATOM     34  C   UNL     1      -7.385 -11.451   0.261  0.00  0.00    +0.104 C 
ATOM     35  N   UNL     1      -6.763 -10.124   0.162  0.00  0.00    -0.295 NA
ATOM     36  C   UNL     1      -5.403 -10.130   0.718  0.00  0.00    +0.104 C 
ATOM     37  C   UNL     1      -5.468 -10.459   2.213  0.00  0.00    +0.126 C 
BRANCH  30  38
ATOM     38  O   UNL     1      -4.500 -12.600   3.695  0.00  0.00    -0.451 OA
BRANCH  38  40
ATOM     39  C   UNL     1      -2.640 -13.402   5.047  0.00  0.00    +0.048 C 
ATOM     40  C   UNL     1      -4.016 -13.732   4.464  0.00  0.00    +0.230 C 
ENDBRANCH  38  40
ENDBRANCH  30  38
ENDBRANCH  29  35
ENDBRANCH  23  29
ENDBRANCH  22  26
ENDBRANCH   1  22
TORSDOF 8
