REMARK  Name = ZINC38740593
REMARK  5 active torsions:
REMARK  status: ('A' for Active; 'I' for Inactive)
REMARK    1  A    between atoms: C_4  and  C_7
REMARK    2  A    between atoms: C_7  and  C_9
REMARK    3  A    between atoms: C_7  and  N_16
REMARK    4  A    between atoms: C_17  and  C_19
REMARK    5  A    between atoms: C_25  and  C_27
REMARK                            x       y       z     vdW  Elec       q    Type
REMARK                         _______ _______ _______ _____ _____    ______ ____
ROOT
ATOM      1  C   UNL     1       3.747  -2.921  -3.176  0.00  0.00    +0.091 C 
ATOM      2  C   UNL     1       2.340  -3.521  -3.114  0.00  0.00    +0.040 C 
ATOM      3  C   UNL     1       2.160  -4.531  -4.209  0.00  0.00    -0.030 C 
ATOM      4  C   UNL     1       2.926  -4.617  -5.249  0.00  0.00    -0.030 C 
ATOM      5  C   UNL     1       4.106  -3.725  -5.500  0.00  0.00    +0.040 C 
ATOM      6  C   UNL     1       4.027  -2.479  -4.617  0.00  0.00    +0.091 C 
ENDROOT
BRANCH   6   7
ATOM      7  C   UNL     1       5.335  -1.731  -4.672  0.00  0.00    +0.220 C 
ATOM      8  O   UNL     1       6.183  -1.930  -3.829  0.00  0.00    -0.275 OA
ATOM      9  N   UNL     1       5.560  -0.840  -5.658  0.00  0.00    -0.298 N 
ATOM     10  C   UNL     1       4.503  -0.509  -6.624  0.00  0.00    +0.126 C 
ATOM     11  C   UNL     1       4.290   1.010  -6.616  0.00  0.00    +0.125 C 
ATOM     12  N   UNL     1       5.597   1.668  -6.744  0.00  0.00    -0.314 N 
ATOM     13  C   UNL     1       6.654   1.337  -5.779  0.00  0.00    +0.125 C 
ATOM     14  C   UNL     1       6.866  -0.177  -5.783  0.00  0.00    +0.126 C 
ATOM     15  C   UNL     1       5.830   2.587  -7.761  0.00  0.00    +0.099 A 
ATOM     16  C   UNL     1       4.780   2.987  -8.582  0.00  0.00    +0.042 A 
ATOM     17  C   UNL     1       5.026   3.902  -9.590  0.00  0.00    +0.005 A 
ATOM     18  C   UNL     1       6.318   4.388  -9.744  0.00  0.00    +0.018 A 
ATOM     19  C   UNL     1       7.312   3.947  -8.893  0.00  0.00    +0.084 A 
ATOM     20  N   UNL     1       7.047   3.077  -7.936  0.00  0.00    -0.350 N 
ATOM     21  H   UNL     1       7.763   2.787  -7.350  0.00  0.00    +0.166 HD
ENDBRANCH   6   7
BRANCH   1  23
ATOM     22  N   UNL     1       3.610  -1.883  -0.934  0.00  0.00    -0.304 N 
ATOM     23  C   UNL     1       3.831  -1.731  -2.255  0.00  0.00    +0.218 C 
ATOM     24  O   UNL     1       4.097  -0.636  -2.703  0.00  0.00    -0.275 OA
ATOM     25  H   UNL     1       3.397  -2.760  -0.576  0.00  0.00    +0.150 HD
BRANCH  22  26
ATOM     26  C   UNL     1       3.692  -0.727  -0.040  0.00  0.00    +0.134 C 
BRANCH  26  27
ATOM     27  C   UNL     1       4.019  -1.193   1.356  0.00  0.00    -0.023 A 
ATOM     28  C   UNL     1       3.438  -2.344   1.853  0.00  0.00    +0.007 A 
ATOM     29  C   UNL     1       3.738  -2.772   3.133  0.00  0.00    +0.020 A 
ATOM     30  C   UNL     1       4.620  -2.048   3.916  0.00  0.00    +0.041 A 
ATOM     31  C   UNL     1       5.200  -0.895   3.417  0.00  0.00    +0.020 A 
ATOM     32  C   UNL     1       4.904  -0.471   2.135  0.00  0.00    +0.007 A 
ATOM     33 CL   UNL     1       4.996  -2.584   5.523  0.00  0.00    -0.084 Cl
ENDBRANCH  26  27
BRANCH  26  37
ATOM     34  C   UNL     1      -0.057   1.321  -0.016  0.00  0.00    +0.000 A 
ATOM     35  C   UNL     1       1.123   2.041  -0.014  0.00  0.00    +0.000 A 
ATOM     36  C   UNL     1       2.337   1.378  -0.022  0.00  0.00    +0.006 A 
ATOM     37  C   UNL     1       2.369  -0.004  -0.030  0.00  0.00    -0.023 A 
ATOM     38  C   UNL     1       1.189  -0.723  -0.031  0.00  0.00    +0.006 A 
ATOM     39  C   UNL     1      -0.024  -0.060  -0.025  0.00  0.00    +0.000 A 
ENDBRANCH  26  37
ENDBRANCH  22  26
ENDBRANCH   1  23
TORSDOF 5
