REMARK  Name = ZINC12553767
REMARK  7 active torsions:
REMARK  status: ('A' for Active; 'I' for Inactive)
REMARK    1  A    between atoms: C_1  and  C_2
REMARK    2  A    between atoms: C_2  and  C_3
REMARK    3  A    between atoms: C_9  and  C_10
REMARK    4  A    between atoms: C_9  and  N_58
REMARK    5  A    between atoms: N_15  and  S_18
REMARK    6  A    between atoms: S_18  and  C_21
REMARK    7  A    between atoms: C_24  and  C_27
REMARK                            x       y       z     vdW  Elec       q    Type
REMARK                         _______ _______ _______ _____ _____    ______ ____
ROOT
ATOM      1  C   UNL     1       2.054   2.953  -0.841  0.00  0.00    +0.199 C 
ATOM      2  O   UNL     1       1.174   3.412  -1.539  0.00  0.00    -0.278 OA
ATOM      3  N   UNL     1       1.753   2.059   0.122  0.00  0.00    -0.300 N 
ATOM      4  C   UNL     1       0.364   1.632   0.338  0.00  0.00    +0.125 C 
ATOM      5  C   UNL     1       0.302   0.102   0.246  0.00  0.00    +0.128 C 
ATOM      6  N   UNL     1       1.358  -0.463   1.098  0.00  0.00    -0.174 NA
ATOM      7  C   UNL     1       2.747  -0.035   0.882  0.00  0.00    +0.128 C 
ATOM      8  C   UNL     1       2.809   1.494   0.974  0.00  0.00    +0.125 C 
ENDROOT
BRANCH   6   9
ATOM      9  S   UNL     1       0.989  -1.562   2.281  0.00  0.00    +0.061 S 
ATOM     10  O   UNL     1       2.031  -1.488   3.244  0.00  0.00    -0.153 OA
ATOM     11  O   UNL     1      -0.376  -1.353   2.618  0.00  0.00    -0.153 OA
BRANCH   9  12
ATOM     12  C   UNL     1       1.088  -3.163   1.553  0.00  0.00    +0.105 A 
ATOM     13  C   UNL     1      -0.031  -3.729   0.972  0.00  0.00    +0.029 A 
ATOM     14  C   UNL     1       0.048  -4.984   0.397  0.00  0.00    +0.005 A 
ATOM     15  C   UNL     1       1.244  -5.677   0.412  0.00  0.00    -0.050 A 
ATOM     16  C   UNL     1       2.362  -5.113   0.998  0.00  0.00    +0.005 A 
ATOM     17  C   UNL     1       2.284  -3.857   1.569  0.00  0.00    +0.029 A 
ATOM     18  C   UNL     1       1.329  -7.046  -0.212  0.00  0.00    +0.044 C 
ENDBRANCH   9  12
ENDBRANCH   6   9
BRANCH   1  19
ATOM     19  C   UNL     1       3.483   3.382  -1.052  0.00  0.00    +0.019 C 
BRANCH  19  25
ATOM     20  C   UNL     1       2.815   5.503  -2.007  0.00  0.00    -0.068 C 
ATOM     21  C   UNL     1       3.039   6.451  -3.188  0.00  0.00    -0.015 C 
ATOM     22  C   UNL     1       2.569   5.772  -4.477  0.00  0.00    -0.003 C 
ATOM     23  C   UNL     1       3.329   4.455  -4.658  0.00  0.00    -0.019 C 
ATOM     24  C   UNL     1       3.096   3.566  -3.434  0.00  0.00    -0.078 C 
ATOM     25  N   UNL     1       3.592   4.266  -2.231  0.00  0.00    +0.387 N 
ATOM     26  H   UNL     1       4.579   4.513  -2.372  0.00  0.00    -0.081 HD
BRANCH  20  28
ATOM     27  C   UNL     1       2.471   7.426  -0.449  0.00  0.00    +0.002 C 
ATOM     28  C   UNL     1       3.302   6.170  -0.719  0.00  0.00    -0.019 C 
ENDBRANCH  20  28
ENDBRANCH  19  25
ENDBRANCH   1  19
TORSDOF 5
