REMARK  Name = ZINC40319521
REMARK  11 active torsions:
REMARK  status: ('A' for Active; 'I' for Inactive)
REMARK    1  A    between atoms: C_1  and  C_2
REMARK    2  A    between atoms: C_2  and  C_4
REMARK    3  A    between atoms: C_8  and  O_10
REMARK    4  A    between atoms: O_10  and  C_11
REMARK    5  A    between atoms: C_11  and  C_12
REMARK    6  A    between atoms: C_12  and  C_14
REMARK    7  A    between atoms: C_12  and  O_33
REMARK    8  A    between atoms: C_14  and  N_15
REMARK    9  A    between atoms: N_15  and  C_16
REMARK   10  A    between atoms: N_15  and  C_25
REMARK   11  A    between atoms: C_16  and  C_17
REMARK                            x       y       z     vdW  Elec       q    Type
REMARK                         _______ _______ _______ _____ _____    ______ ____
ROOT
ATOM      1  N   UNL     1      -4.839  -8.455   0.387  0.00  0.00    +0.387 N 
ATOM      2  H   UNL     1      -4.728  -8.865   1.302  0.00  0.00    -0.081 HD
ENDROOT
BRANCH   1   3
ATOM      3  C   UNL     1      -3.605  -8.643  -0.388  0.00  0.00    -0.045 C 
ATOM      4  C   UNL     1      -3.181 -10.120  -0.339  0.00  0.00    +0.009 C 
ATOM      5  C   UNL     1      -1.735 -10.272  -0.870  0.00  0.00    +0.164 C 
ATOM      6  S   UNL     1      -0.987  -8.638  -0.476  0.00  0.00    -0.033 S 
ATOM      7  O   UNL     1      -0.620  -7.994  -1.688  0.00  0.00    -0.174 OA
ATOM      8  O   UNL     1      -0.016  -8.809   0.547  0.00  0.00    -0.174 OA
ATOM      9  C   UNL     1      -2.462  -7.790   0.232  0.00  0.00    +0.151 C 
ENDBRANCH   1   3
BRANCH   1  10
ATOM     10  C   UNL     1      -5.118  -7.020   0.523  0.00  0.00    -0.043 C 
BRANCH  10  11
ATOM     11  C   UNL     1      -4.734  -6.557   1.930  0.00  0.00    +0.135 C 
BRANCH  11  12
ATOM     12  O   UNL     1      -5.554  -7.224   2.892  0.00  0.00    -0.390 OA
ATOM     13  H   UNL     1      -6.500  -7.057   2.785  0.00  0.00    +0.210 HD
ENDBRANCH  11  12
BRANCH  11  14
ATOM     14  C   UNL     1      -4.941  -5.045   2.044  0.00  0.00    +0.258 C 
BRANCH  14  15
ATOM     15  O   UNL     1      -4.473  -4.595   3.317  0.00  0.00    -0.489 OA
BRANCH  15  20
ATOM     16  C   UNL     1      -4.270  -1.397   5.063  0.00  0.00    +0.021 A 
ATOM     17  C   UNL     1      -4.825  -0.548   4.100  0.00  0.00    +0.011 A 
ATOM     18  C   UNL     1      -5.253  -1.062   2.894  0.00  0.00    +0.004 A 
ATOM     19  C   UNL     1      -5.135  -2.415   2.632  0.00  0.00    +0.046 A 
ATOM     20  C   UNL     1      -4.585  -3.267   3.581  0.00  0.00    +0.121 A 
ATOM     21  C   UNL     1      -4.147  -2.763   4.794  0.00  0.00    +0.057 A 
BRANCH  16  23
ATOM     22  C   UNL     1      -3.946   0.620   6.639  0.00  0.00    +0.091 C 
ATOM     23  C   UNL     1      -3.812  -0.854   6.352  0.00  0.00    +0.160 C 
ATOM     24  O   UNL     1      -3.326  -1.592   7.183  0.00  0.00    -0.292 OA
ENDBRANCH  16  23
ENDBRANCH  15  20
ENDBRANCH  14  15
ENDBRANCH  11  14
ENDBRANCH  10  11
ENDBRANCH   1  10
BRANCH   1  25
ATOM     25  C   UNL     1      -5.957  -9.107  -0.308  0.00  0.00    -0.041 C 
BRANCH  25  26
ATOM     26  C   UNL     1      -5.791 -10.603  -0.234  0.00  0.00    -0.046 A 
ATOM     27  C   UNL     1      -5.713 -11.348  -1.396  0.00  0.00    +0.004 A 
ATOM     28  C   UNL     1      -5.560 -12.720  -1.329  0.00  0.00    +0.020 A 
ATOM     29  C   UNL     1      -5.484 -13.349  -0.099  0.00  0.00    +0.042 A 
ATOM     30  C   UNL     1      -5.562 -12.604   1.064  0.00  0.00    +0.040 A 
ATOM     31  C   UNL     1      -5.710 -11.230   0.996  0.00  0.00    +0.044 A 
ATOM     32 CL   UNL     1      -5.801 -10.294   2.455  0.00  0.00    -0.083 Cl
ATOM     33 CL   UNL     1      -5.293 -15.072  -0.015  0.00  0.00    -0.083 Cl
ENDBRANCH  25  26
ENDBRANCH   1  25
TORSDOF 10
