REMARK  Name = ZINC67303155
REMARK  7 active torsions:
REMARK  status: ('A' for Active; 'I' for Inactive)
REMARK    1  A    between atoms: C_1  and  C_2
REMARK    2  A    between atoms: C_2  and  O_3
REMARK    3  A    between atoms: O_3  and  C_4
REMARK    4  A    between atoms: C_7  and  C_9
REMARK    5  A    between atoms: N_19  and  C_20
REMARK    6  A    between atoms: C_20  and  C_21
REMARK    7  A    between atoms: C_20  and  C_22
REMARK                            x       y       z     vdW  Elec       q    Type
REMARK                         _______ _______ _______ _____ _____    ______ ____
ROOT
ATOM      1  C   UNL     1      -3.650  -1.631   1.319  0.00  0.00    +0.221 C 
ATOM      2  O   UNL     1      -3.482  -0.431   1.267  0.00  0.00    -0.275 OA
ATOM      3  N   UNL     1      -4.738  -2.134   1.936  0.00  0.00    -0.298 N 
ATOM      4  C   UNL     1      -4.951  -3.586   2.011  0.00  0.00    +0.127 C 
ATOM      5  C   UNL     1      -5.127  -3.979   3.483  0.00  0.00    +0.128 C 
ATOM      6  N   UNL     1      -6.121  -3.085   4.093  0.00  0.00    -0.283 N 
ATOM      7  C   UNL     1      -5.907  -1.633   4.018  0.00  0.00    +0.128 C 
ATOM      8  C   UNL     1      -5.729  -1.240   2.551  0.00  0.00    +0.127 C 
ATOM      9  C   UNL     1      -7.208  -3.587   4.710  0.00  0.00    +0.302 C 
ATOM     10  O   UNL     1      -7.424  -4.784   4.684  0.00  0.00    -0.253 OA
ATOM     11  N   UNL     1      -8.057  -2.764   5.356  0.00  0.00    -0.297 N 
ATOM     12  H   UNL     1      -7.926  -1.804   5.316  0.00  0.00    +0.150 HD
ENDROOT
BRANCH   1  15
ATOM     13  C   UNL     1      -1.429  -1.929   0.007  0.00  0.00    +0.131 C 
ATOM     14  C   UNL     1      -2.538  -2.565  -0.834  0.00  0.00    +0.047 C 
ATOM     15  C   UNL     1      -2.643  -2.561   0.693  0.00  0.00    +0.106 C 
BRANCH  13  16
ATOM     16  O   UNL     1      -1.339  -0.503   0.009  0.00  0.00    -0.376 OA
BRANCH  16  18
ATOM     17  C   UNL     1      -0.022   1.524   0.003  0.00  0.00    +0.034 C 
ATOM     18  C   UNL     1       0.001  -0.006  -0.001  0.00  0.00    +0.157 C 
ENDBRANCH  16  18
ENDBRANCH  13  16
ENDBRANCH   1  15
BRANCH  11  19
ATOM     19  C   UNL     1      -9.179  -3.319   6.119  0.00  0.00    +0.068 C 
ATOM     20  C   UNL     1      -9.591  -2.331   7.212  0.00  0.00    +0.027 C 
ATOM     21  C   UNL     1     -10.362  -3.563   5.180  0.00  0.00    +0.027 C 
ENDBRANCH  11  19
TORSDOF 4
