REMARK  Name = ZINC64645526
REMARK  7 active torsions:
REMARK  status: ('A' for Active; 'I' for Inactive)
REMARK    1  A    between atoms: C_1  and  C_2
REMARK    2  A    between atoms: C_2  and  C_3
REMARK    3  A    between atoms: C_2  and  N_15
REMARK    4  A    between atoms: C_5  and  C_8
REMARK    5  A    between atoms: N_18  and  C_19
REMARK    6  A    between atoms: C_19  and  C_20
REMARK    7  A    between atoms: C_20  and  C_21
REMARK                            x       y       z     vdW  Elec       q    Type
REMARK                         _______ _______ _______ _____ _____    ______ ____
ROOT
ATOM      1  N   UNL     1       0.688  -0.476  -1.203  0.00  0.00    -0.288 N 
ATOM      2  C   UNL     1       0.006  -0.608  -2.358  0.00  0.00    +0.300 C 
ATOM      3  O   UNL     1      -1.178  -0.335  -2.400  0.00  0.00    -0.253 OA
ATOM      4  N   UNL     1       0.637  -1.043  -3.467  0.00  0.00    -0.299 N 
ATOM      5  H   UNL     1       1.632  -0.695  -1.170  0.00  0.00    +0.151 HD
ATOM      6  H   UNL     1       1.582  -1.261  -3.434  0.00  0.00    +0.150 HD
ENDROOT
BRANCH   1   8
ATOM      7  C   UNL     1      -0.019   1.526   0.010  0.00  0.00    +0.038 C 
ATOM      8  C   UNL     1       0.002  -0.004   0.002  0.00  0.00    +0.160 C 
BRANCH   8   9
ATOM      9  C   UNL     1       0.731  -0.503   1.223  0.00  0.00    +0.248 A 
ATOM     10  N   UNL     1       0.177  -1.033   2.276  0.00  0.00    -0.190 NA
ATOM     11  C   UNL     1       1.122  -1.366   3.175  0.00  0.00    +0.202 A 
ATOM     12  N   UNL     1       2.295  -1.044   2.688  0.00  0.00    -0.056 NA
ATOM     13  O   UNL     1       2.058  -0.482   1.405  0.00  0.00    -0.336 OA
BRANCH  11  14
ATOM     14  C   UNL     1       0.876  -1.993   4.497  0.00  0.00    +0.023 A 
ATOM     15  C   UNL     1      -0.425  -2.292   4.897  0.00  0.00    +0.014 A 
ATOM     16  C   UNL     1      -0.649  -2.876   6.127  0.00  0.00    +0.039 A 
ATOM     17  C   UNL     1       0.417  -3.165   6.963  0.00  0.00    +0.123 A 
ATOM     18  C   UNL     1       1.712  -2.869   6.569  0.00  0.00    +0.039 A 
ATOM     19  C   UNL     1       1.945  -2.290   5.339  0.00  0.00    +0.014 A 
ATOM     20  F   UNL     1       0.193  -3.736   8.167  0.00  0.00    -0.205 F 
ENDBRANCH  11  14
ENDBRANCH   8   9
ENDBRANCH   1   8
BRANCH   4  21
ATOM     21  C   UNL     1      -0.104  -1.186  -4.723  0.00  0.00    +0.110 C 
BRANCH  21  22
ATOM     22  C   UNL     1       0.839  -1.692  -5.817  0.00  0.00    +0.054 C 
BRANCH  22  23
ATOM     23  C   UNL     1       0.077  -1.839  -7.109  0.00  0.00    -0.046 A 
ATOM     24  C   UNL     1      -0.548  -3.034  -7.410  0.00  0.00    +0.005 A 
ATOM     25  C   UNL     1      -1.248  -3.170  -8.594  0.00  0.00    +0.020 A 
ATOM     26  C   UNL     1      -1.321  -2.109  -9.479  0.00  0.00    +0.041 A 
ATOM     27  C   UNL     1      -0.696  -0.912  -9.177  0.00  0.00    +0.020 A 
ATOM     28  C   UNL     1      -0.001  -0.776  -7.989  0.00  0.00    +0.005 A 
ATOM     29 CL   UNL     1      -2.199  -2.279 -10.967  0.00  0.00    -0.084 Cl
ENDBRANCH  22  23
ENDBRANCH  21  22
ENDBRANCH   4  21
TORSDOF 6
