REMARK  Name = ZINC34766257
REMARK  6 active torsions:
REMARK  status: ('A' for Active; 'I' for Inactive)
REMARK    1  A    between atoms: C_1  and  C_2
REMARK    2  A    between atoms: C_2  and  O_3
REMARK    3  A    between atoms: O_3  and  C_4
REMARK    4  A    between atoms: C_12  and  C_14
REMARK    5  A    between atoms: C_22  and  C_25
REMARK    6  A    between atoms: C_25  and  C_26
REMARK                            x       y       z     vdW  Elec       q    Type
REMARK                         _______ _______ _______ _____ _____    ______ ____
ROOT
ATOM      1  C   UNL     1       4.295  -5.199  -5.086  0.00  0.00    +0.161 C 
ATOM      2  C   UNL     1       2.971  -5.760  -5.645  0.00  0.00    +0.033 C 
ATOM      3  C   UNL     1       3.248  -5.852  -7.169  0.00  0.00    +0.021 C 
ATOM      4  C   UNL     1       4.746  -6.247  -7.189  0.00  0.00    +0.108 C 
ATOM      5  N   UNL     1       5.350  -5.505  -6.064  0.00  0.00    -0.297 N 
ATOM      6  C   UNL     1       6.683  -5.153  -5.948  0.00  0.00    +0.181 A 
ATOM      7  N   UNL     1       7.678  -5.390  -6.787  0.00  0.00    -0.208 NA
ATOM      8  C   UNL     1       8.873  -4.952  -6.457  0.00  0.00    +0.145 A 
ATOM      9  N   UNL     1       9.006  -4.311  -5.322  0.00  0.00    -0.192 NA
ATOM     10  S   UNL     1       7.446  -4.311  -4.710  0.00  0.00    +0.049 S 
ENDROOT
BRANCH   1  19
ATOM     11  C   UNL     1       0.776  -1.798  -1.335  0.00  0.00    +0.403 C 
ATOM     12  O   UNL     1       0.312  -2.549  -0.500  0.00  0.00    -0.226 OA
ATOM     13  N   UNL     1       1.395  -2.298  -2.422  0.00  0.00    -0.264 N 
ATOM     14  C   UNL     1       1.966  -1.402  -3.437  0.00  0.00    +0.130 C 
ATOM     15  C   UNL     1       3.447  -1.754  -3.624  0.00  0.00    +0.127 C 
ATOM     16  N   UNL     1       3.564  -3.206  -3.816  0.00  0.00    -0.297 N 
ATOM     17  C   UNL     1       2.993  -4.103  -2.801  0.00  0.00    +0.127 C 
ATOM     18  C   UNL     1       1.517  -3.751  -2.611  0.00  0.00    +0.130 C 
ATOM     19  C   UNL     1       4.183  -3.707  -4.903  0.00  0.00    +0.236 C 
ATOM     20  O   UNL     1       4.650  -2.957  -5.734  0.00  0.00    -0.274 OA
BRANCH  11  21
ATOM     21  O   UNL     1       0.671  -0.465  -1.174  0.00  0.00    -0.451 OA
BRANCH  21  23
ATOM     22  C   UNL     1      -0.019   1.526   0.010  0.00  0.00    +0.048 C 
ATOM     23  C   UNL     1       0.002  -0.004   0.002  0.00  0.00    +0.230 C 
ENDBRANCH  21  23
ENDBRANCH  11  21
ENDBRANCH   1  19
BRANCH   8  24
ATOM     24  C   UNL     1      10.058  -5.182  -7.359  0.00  0.00    +0.112 C 
BRANCH  24  25
ATOM     25  C   UNL     1      10.186  -4.031  -8.323  0.00  0.00    -0.040 A 
ATOM     26  C   UNL     1       9.536  -4.075  -9.542  0.00  0.00    +0.007 A 
ATOM     27  C   UNL     1       9.652  -3.020 -10.426  0.00  0.00    +0.038 A 
ATOM     28  C   UNL     1      10.421  -1.918 -10.091  0.00  0.00    +0.123 A 
ATOM     29  C   UNL     1      11.073  -1.875  -8.870  0.00  0.00    +0.038 A 
ATOM     30  C   UNL     1      10.950  -2.929  -7.985  0.00  0.00    +0.007 A 
ATOM     31  F   UNL     1      10.537  -0.886 -10.956  0.00  0.00    -0.205 F 
ENDBRANCH  24  25
ENDBRANCH   8  24
TORSDOF 5
