REMARK  Name = ZINC04770216
REMARK  3 active torsions:
REMARK  status: ('A' for Active; 'I' for Inactive)
REMARK    1  A    between atoms: C_3  and  C_8
REMARK    2  A    between atoms: C_21  and  N_25
REMARK    3  A    between atoms: C_22  and  C_23
REMARK                            x       y       z     vdW  Elec       q    Type
REMARK                         _______ _______ _______ _____ _____    ______ ____
ROOT
ATOM      1  C   UNL     1      -0.013   1.086   0.008  0.00  0.00    +0.105 C 
ATOM      2  C   UNL     1       1.399   1.604  -0.003  0.00  0.00    +0.089 A 
ATOM      3  C   UNL     1       2.371   1.003   0.821  0.00  0.00    +0.262 A 
ATOM      4  O   UNL     1       2.071   0.067   1.541  0.00  0.00    -0.267 OA
ATOM      5  N   UNL     1       3.635   1.470   0.807  0.00  0.00    -0.275 N 
ATOM      6  H   UNL     1       4.328   1.046   1.390  0.00  0.00    +0.173 HD
ATOM      7  C   UNL     1       3.969   2.505   0.014  0.00  0.00    +0.329 A 
ATOM      8  O   UNL     1       5.114   2.913   0.014  0.00  0.00    -0.247 OA
ATOM      9  N   UNL     1       3.056   3.093  -0.780  0.00  0.00    -0.278 N 
ATOM     10  H   UNL     1       3.326   3.860  -1.362  0.00  0.00    +0.173 HD
ATOM     11  C   UNL     1       1.756   2.648  -0.797  0.00  0.00    +0.214 A 
ATOM     12  O   UNL     1       0.859   3.252  -1.599  0.00  0.00    -0.425 OA
ATOM     13  C   UNL     1      -0.282   2.623  -1.929  0.00  0.00    +0.200 C 
ATOM     14  C   UNL     1      -0.754   1.581  -1.203  0.00  0.00    +0.098 C 
ENDROOT
BRANCH   1  17
ATOM     15  C   UNL     1      -1.854   1.100   3.304  0.00  0.00    +0.001 A 
ATOM     16  C   UNL     1      -1.212   0.657   2.163  0.00  0.00    +0.004 A 
ATOM     17  C   UNL     1      -0.713   1.569   1.252  0.00  0.00    -0.033 A 
ATOM     18  C   UNL     1      -0.851   2.925   1.485  0.00  0.00    +0.019 A 
ATOM     19  C   UNL     1      -1.498   3.368   2.623  0.00  0.00    +0.014 A 
ATOM     20  C   UNL     1      -1.997   2.455   3.535  0.00  0.00    +0.014 A 
ATOM     21  I   UNL     1      -1.715   5.423   2.973  0.00  0.00    -0.044 I 
ENDBRANCH   1  17
BRANCH  13  22
ATOM     22  N   UNL     1      -0.987   3.046  -3.029  0.00  0.00    -0.328 N 
ATOM     23  H   UNL     1      -0.659   3.791  -3.557  0.00  0.00    +0.145 HD
ATOM     24  H   UNL     1      -1.812   2.600  -3.277  0.00  0.00    +0.145 HD
ENDBRANCH  13  22
BRANCH  14  25
ATOM     25  C   UNL     1      -1.975   0.943  -1.594  0.00  0.00    +0.101 C 
ATOM     26  N   UNL     1      -2.944   0.437  -1.904  0.00  0.00    -0.191 NA
ENDBRANCH  14  25
TORSDOF 3
