REMARK  Name = ZINC00858790
REMARK  11 active torsions:
REMARK  status: ('A' for Active; 'I' for Inactive)
REMARK    1  A    between atoms: C_1  and  C_2
REMARK    2  A    between atoms: C_2  and  N_53
REMARK    3  A    between atoms: C_3  and  C_4
REMARK    4  A    between atoms: C_3  and  N_53
REMARK    5  A    between atoms: C_5  and  C_6
REMARK    6  A    between atoms: C_5  and  N_53
REMARK    7  A    between atoms: C_6  and  N_7
REMARK    8  A    between atoms: N_14  and  C_16
REMARK    9  A    between atoms: C_16  and  C_17
REMARK   10  A    between atoms: C_17  and  C_19
REMARK   11  A    between atoms: C_17  and  O_27
REMARK                            x       y       z     vdW  Elec       q    Type
REMARK                         _______ _______ _______ _____ _____    ______ ____
ROOT
ATOM      1  N   UNL     1       0.758  -0.621  -1.091  0.00  0.00    -0.313 N 
ATOM      2  C   UNL     1      -0.065  -1.711  -1.372  0.00  0.00    +0.068 A 
ATOM      3  C   UNL     1       0.171  -3.076  -1.438  0.00  0.00    +0.028 A 
ATOM      4  C   UNL     1      -0.861  -3.939  -1.754  0.00  0.00    +0.002 A 
ATOM      5  C   UNL     1      -2.130  -3.446  -2.005  0.00  0.00    +0.002 A 
ATOM      6  C   UNL     1      -2.374  -2.088  -1.942  0.00  0.00    +0.028 A 
ATOM      7  C   UNL     1      -1.344  -1.214  -1.625  0.00  0.00    +0.068 A 
ATOM      8  N   UNL     1      -1.288   0.172  -1.490  0.00  0.00    -0.309 N 
ATOM      9  C   UNL     1      -0.002   0.519  -1.161  0.00  0.00    +0.183 A 
ATOM     10  H   UNL     1       1.341   1.989  -0.720  0.00  0.00    +0.159 HD
ATOM     11  N   UNL     1       0.373   1.777  -0.964  0.00  0.00    -0.371 N 
ATOM     12  H   UNL     1      -0.311   2.538  -1.056  0.00  0.00    +0.159 HD
ENDROOT
BRANCH   1  13
ATOM     13  C   UNL     1       2.187  -0.683  -0.773  0.00  0.00    +0.107 C 
BRANCH  13  14
ATOM     14  C   UNL     1       2.366  -0.831   0.740  0.00  0.00    -0.057 C 
BRANCH  14  15
ATOM     15  N   UNL     1       3.811  -0.870   1.047  0.00  0.00    +0.380 N 
ATOM     16  H   UNL     1       4.268  -0.065   0.604  0.00  0.00    -0.082 HD
BRANCH  15  18
ATOM     17  C   UNL     1       3.829   0.654   2.958  0.00  0.00    -0.017 C 
ATOM     18  C   UNL     1       4.019  -0.796   2.508  0.00  0.00    -0.082 C 
ENDBRANCH  15  18
BRANCH  15  19
ATOM     19  C   UNL     1       4.407  -2.114   0.514  0.00  0.00    -0.082 C 
ATOM     20  C   UNL     1       5.930  -1.966   0.508  0.00  0.00    -0.017 C 
ENDBRANCH  15  19
ENDBRANCH  14  15
ENDBRANCH  13  14
ENDBRANCH   1  13
BRANCH   8  21
ATOM     21  C   UNL     1      -2.409   1.099  -1.668  0.00  0.00    +0.161 C 
BRANCH  21  22
ATOM     22  C   UNL     1      -2.475   1.545  -3.130  0.00  0.00    +0.164 C 
BRANCH  22  23
ATOM     23  C   UNL     1      -3.698   2.400  -3.340  0.00  0.00    -0.016 A 
ATOM     24  C   UNL     1      -4.868   1.829  -3.806  0.00  0.00    +0.008 A 
ATOM     25  C   UNL     1      -5.990   2.612  -3.999  0.00  0.00    +0.022 A 
ATOM     26  C   UNL     1      -5.944   3.967  -3.726  0.00  0.00    +0.059 A 
ATOM     27  C   UNL     1      -4.772   4.539  -3.260  0.00  0.00    +0.060 A 
ATOM     28  C   UNL     1      -3.651   3.753  -3.062  0.00  0.00    +0.027 A 
ATOM     29 CL   UNL     1      -4.712   6.240  -2.917  0.00  0.00    -0.082 Cl
ATOM     30 CL   UNL     1      -7.353   4.952  -3.969  0.00  0.00    -0.082 Cl
ENDBRANCH  22  23
BRANCH  22  31
ATOM     31  O   UNL     1      -1.305   2.300  -3.451  0.00  0.00    -0.385 OA
ATOM     32  H   UNL     1      -1.192   3.097  -2.914  0.00  0.00    +0.210 HD
ENDBRANCH  22  31
ENDBRANCH  21  22
ENDBRANCH   8  21
TORSDOF 9
