REMARK  Name = ZINC06659406
REMARK  6 active torsions:
REMARK  status: ('A' for Active; 'I' for Inactive)
REMARK    1  A    between atoms: C_4  and  C_7
REMARK    2  A    between atoms: C_11  and  C_13
REMARK    3  A    between atoms: C_13  and  C_14
REMARK    4  A    between atoms: C_14  and  C_16
REMARK    5  A    between atoms: C_22  and  C_24
REMARK    6  A    between atoms: C_29  and  N_30
REMARK                            x       y       z     vdW  Elec       q    Type
REMARK                         _______ _______ _______ _____ _____    ______ ____
ROOT
ATOM      1  C   UNL     1      -0.450   2.603  -1.112  0.00  0.00    +0.072 C 
ATOM      2  N   UNL     1       0.284   3.024  -2.088  0.00  0.00    -0.181 NA
ATOM      3  N   UNL     1       0.766   2.012  -2.916  0.00  0.00    -0.188 N 
ATOM      4  C   UNL     1       0.282   0.716  -2.416  0.00  0.00    +0.145 C 
ATOM      5  C   UNL     1      -0.554   1.096  -1.177  0.00  0.00    +0.067 C 
ATOM      6  C   UNL     1       1.549   2.192  -3.998  0.00  0.00    +0.268 C 
ATOM      7  O   UNL     1       1.837   1.244  -4.705  0.00  0.00    -0.268 OA
ENDROOT
BRANCH   1  11
ATOM      8  C   UNL     1      -2.283   5.061   1.823  0.00  0.00    +0.000 A 
ATOM      9  C   UNL     1      -0.982   4.626   2.004  0.00  0.00    +0.001 A 
ATOM     10  C   UNL     1      -0.380   3.826   1.055  0.00  0.00    +0.010 A 
ATOM     11  C   UNL     1      -1.087   3.457  -0.092  0.00  0.00    -0.002 A 
ATOM     12  C   UNL     1      -2.398   3.904  -0.271  0.00  0.00    +0.010 A 
ATOM     13  C   UNL     1      -2.989   4.699   0.689  0.00  0.00    +0.001 A 
ENDBRANCH   1  11
BRANCH   6  14
ATOM     14  C   UNL     1       2.056   3.536  -4.326  0.00  0.00    +0.059 A 
ATOM     15  C   UNL     1       2.358   4.442  -3.306  0.00  0.00    +0.015 A 
ATOM     16  C   UNL     1       2.838   5.695  -3.619  0.00  0.00    +0.001 A 
ATOM     17  C   UNL     1       3.012   6.068  -4.942  0.00  0.00    +0.002 A 
ATOM     18  C   UNL     1       2.712   5.187  -5.962  0.00  0.00    +0.023 A 
ATOM     19  C   UNL     1       2.233   3.917  -5.666  0.00  0.00    +0.037 A 
BRANCH  19  20
ATOM     20  N   UNL     1       1.931   3.029  -6.690  0.00  0.00    -0.357 N 
ATOM     21  H   UNL     1       1.479   2.194  -6.490  0.00  0.00    +0.142 HD
ATOM     22  H   UNL     1       2.171   3.244  -7.605  0.00  0.00    +0.142 HD
ENDBRANCH  19  20
ENDBRANCH   6  14
BRANCH   5  23
ATOM     23  C   UNL     1       0.037   0.462   0.084  0.00  0.00    +0.091 C 
BRANCH  23  24
ATOM     24  C   UNL     1      -0.887   0.708   1.249  0.00  0.00    +0.164 C 
ATOM     25  O   UNL     1      -1.964   1.235   1.069  0.00  0.00    -0.292 OA
BRANCH  24  26
ATOM     26  C   UNL     1      -0.481   0.308   2.606  0.00  0.00    +0.017 A 
ATOM     27  C   UNL     1       0.757  -0.306   2.818  0.00  0.00    +0.011 A 
ATOM     28  C   UNL     1       1.133  -0.672   4.093  0.00  0.00    +0.001 A 
ATOM     29  C   UNL     1       0.282  -0.445   5.161  0.00  0.00    +0.000 A 
ATOM     30  C   UNL     1      -0.949   0.156   4.959  0.00  0.00    +0.001 A 
ATOM     31  C   UNL     1      -1.336   0.534   3.690  0.00  0.00    +0.011 A 
ENDBRANCH  24  26
ENDBRANCH  23  24
ENDBRANCH   5  23
TORSDOF 6
