REMARK  Name = ZINC08833753
REMARK  4 active torsions:
REMARK  status: ('A' for Active; 'I' for Inactive)
REMARK    1  A    between atoms: C_7  and  N_12
REMARK    2  A    between atoms: C_10  and  O_11
REMARK    3  A    between atoms: N_12  and  S_13
REMARK    4  A    between atoms: S_13  and  C_16
REMARK                            x       y       z     vdW  Elec       q    Type
REMARK                         _______ _______ _______ _____ _____    ______ ____
ROOT
ATOM      1  S   UNL     1      -2.540   9.976   0.045  0.00  0.00    +0.072 S 
ATOM      2  O   UNL     1      -1.312  10.480  -0.461  0.00  0.00    -0.150 OA
ATOM      3  O   UNL     1      -3.799  10.350  -0.498  0.00  0.00    -0.150 OA
ENDROOT
BRANCH   1   4
ATOM      4  C   UNL     1      -2.447   8.220  -0.064  0.00  0.00    +0.109 A 
ATOM      5  C   UNL     1      -3.609   7.473  -0.124  0.00  0.00    +0.029 A 
ATOM      6  C   UNL     1      -3.551   6.093  -0.211  0.00  0.00    +0.014 A 
ATOM      7  C   UNL     1      -2.316   5.450  -0.237  0.00  0.00    +0.033 A 
ATOM      8  C   UNL     1      -1.135   6.210  -0.175  0.00  0.00    +0.035 A 
ATOM      9  C   UNL     1      -1.211   7.597  -0.089  0.00  0.00    +0.041 A 
ATOM     10  C   UNL     1       0.181   5.536  -0.204  0.00  0.00    +0.195 C 
ATOM     11  O   UNL     1       1.202   6.193  -0.150  0.00  0.00    -0.287 OA
ATOM     12  C   UNL     1       0.252   4.063  -0.296  0.00  0.00    +0.033 A 
ATOM     13  C   UNL     1       1.486   3.420  -0.323  0.00  0.00    +0.012 A 
ATOM     14  C   UNL     1       1.544   2.040  -0.411  0.00  0.00    +0.001 A 
ATOM     15  C   UNL     1       0.381   1.293  -0.472  0.00  0.00    +0.001 A 
ATOM     16  C   UNL     1      -0.854   1.917  -0.451  0.00  0.00    +0.012 A 
ATOM     17  C   UNL     1      -0.930   3.303  -0.358  0.00  0.00    +0.033 A 
ATOM     18  C   UNL     1      -2.245   3.977  -0.330  0.00  0.00    +0.195 C 
ATOM     19  O   UNL     1      -3.266   3.321  -0.383  0.00  0.00    -0.287 OA
ENDBRANCH   1   4
BRANCH   1  20
ATOM     20  N   UNL     1      -2.584  10.365   1.654  0.00  0.00    -0.216 N 
ATOM     21  H   UNL     1      -3.347  10.843   2.017  0.00  0.00    +0.174 HD
BRANCH  20  28
ATOM     22  C   UNL     1      -3.273   9.215   5.638  0.00  0.00    +0.001 A 
ATOM     23  C   UNL     1      -2.201   8.860   6.456  0.00  0.00    +0.001 A 
ATOM     24  C   UNL     1      -0.925   8.879   5.984  0.00  0.00    +0.012 A 
ATOM     25  C   UNL     1      -0.680   9.261   4.655  0.00  0.00    +0.025 A 
ATOM     26  C   UNL     1      -1.769   9.628   3.826  0.00  0.00    +0.008 A 
ATOM     27  C   UNL     1      -3.073   9.591   4.345  0.00  0.00    +0.010 A 
ATOM     28  C   UNL     1      -1.524  10.005   2.489  0.00  0.00    +0.056 A 
ATOM     29  C   UNL     1      -0.230  10.023   2.015  0.00  0.00    +0.029 A 
ATOM     30  C   UNL     1       0.835   9.667   2.837  0.00  0.00    +0.048 A 
ATOM     31  C   UNL     1       0.629   9.291   4.133  0.00  0.00    +0.125 A 
BRANCH  31  32
ATOM     32  O   UNL     1       1.683   8.948   4.920  0.00  0.00    -0.506 OA
ATOM     33  H   UNL     1       2.071   9.690   5.404  0.00  0.00    +0.292 HD
ENDBRANCH  31  32
ENDBRANCH  20  28
ENDBRANCH   1  20
TORSDOF 4
