REMARK  Name = ZINC10025814
REMARK  8 active torsions:
REMARK  status: ('A' for Active; 'I' for Inactive)
REMARK    1  A    between atoms: C_1  and  C_2
REMARK    2  A    between atoms: C_2  and  C_3
REMARK    3  A    between atoms: C_2  and  C_4
REMARK    4  A    between atoms: C_4  and  C_5
REMARK    5  A    between atoms: C_4  and  C_6
REMARK    6  A    between atoms: C_4  and  N_8
REMARK    7  A    between atoms: C_9  and  C_11
REMARK    8  A    between atoms: C_11  and  N_12
REMARK                            x       y       z     vdW  Elec       q    Type
REMARK                         _______ _______ _______ _____ _____    ______ ____
ROOT
ATOM      1  N   UNL     1       0.393  -0.588   6.085  0.00  0.00    -0.215 N 
ATOM      2  C   UNL     1       0.199  -1.802   6.640  0.00  0.00    +0.251 C 
ATOM      3  O   UNL     1      -0.565  -2.666   6.266  0.00  0.00    -0.272 OA
ATOM      4  C   UNL     1       1.136  -1.859   7.827  0.00  0.00    +0.138 C 
ATOM      5  C   UNL     1       0.343  -2.026   9.117  0.00  0.00    +0.040 C 
ATOM      6  C   UNL     1       1.329  -2.272  10.265  0.00  0.00    +0.008 C 
ATOM      7  C   UNL     1       1.960  -3.650  10.074  0.00  0.00    +0.035 C 
ATOM      8  C   UNL     1       2.516  -3.792   8.682  0.00  0.00    -0.042 A 
ATOM      9  C   UNL     1       2.134  -2.968   7.646  0.00  0.00    -0.012 A 
ATOM     10  C   UNL     1       2.680  -3.154   6.383  0.00  0.00    +0.006 A 
ATOM     11  C   UNL     1       3.604  -4.154   6.158  0.00  0.00    +0.000 A 
ATOM     12  C   UNL     1       3.990  -4.978   7.199  0.00  0.00    +0.000 A 
ATOM     13  C   UNL     1       3.447  -4.796   8.454  0.00  0.00    +0.004 A 
ATOM     14  N   UNL     1       1.813  -0.555   7.806  0.00  0.00    -0.281 N 
ATOM     15  C   UNL     1       1.318   0.116   6.750  0.00  0.00    +0.310 C 
ATOM     16  O   UNL     1       1.668   1.237   6.436  0.00  0.00    -0.252 OA
ATOM     17  H   UNL     1       2.487  -0.242   8.429  0.00  0.00    +0.152 HD
ENDROOT
BRANCH   1  18
ATOM     18  C   UNL     1      -0.315  -0.103   4.898  0.00  0.00    +0.213 C 
BRANCH  18  20
ATOM     19  N   UNL     1      -0.008  -0.140   2.444  0.00  0.00    -0.296 N 
ATOM     20  C   UNL     1       0.457  -0.484   3.661  0.00  0.00    +0.232 C 
ATOM     21  O   UNL     1       1.496  -1.101   3.761  0.00  0.00    -0.274 OA
ATOM     22  H   UNL     1      -0.840   0.353   2.364  0.00  0.00    +0.150 HD
BRANCH  19  23
ATOM     23  C   UNL     1       0.742  -0.511   1.242  0.00  0.00    +0.121 C 
ATOM     24  C   UNL     1       0.872  -2.034   1.171  0.00  0.00    +0.048 C 
BRANCH  23  26
ATOM     25  C   UNL     1      -0.019   1.526   0.010  0.00  0.00    +0.010 C 
ATOM     26  C   UNL     1       0.002  -0.004   0.002  0.00  0.00    +0.020 C 
ATOM     27  C   UNL     1       0.718  -0.497  -1.257  0.00  0.00    +0.010 C 
ENDBRANCH  23  26
BRANCH  23  28
ATOM     28  C   UNL     1       2.083   0.094   1.294  0.00  0.00    +0.088 C 
ATOM     29  N   UNL     1       3.118   0.561   1.335  0.00  0.00    -0.194 NA
ENDBRANCH  23  28
ENDBRANCH  19  23
ENDBRANCH  18  20
ENDBRANCH   1  18
TORSDOF 5
