REMARK  Name = ZINC37140355
REMARK  7 active torsions:
REMARK  status: ('A' for Active; 'I' for Inactive)
REMARK    1  A    between atoms: C_1  and  C_2
REMARK    2  A    between atoms: C_2  and  C_4
REMARK    3  A    between atoms: C_2  and  N_12
REMARK    4  A    between atoms: N_9  and  C_11
REMARK    5  A    between atoms: N_12  and  C_13
REMARK    6  A    between atoms: N_16  and  C_19
REMARK    7  A    between atoms: C_19  and  C_20
REMARK                            x       y       z     vdW  Elec       q    Type
REMARK                         _______ _______ _______ _____ _____    ______ ____
ROOT
ATOM      1  N   UNL     1      -1.370  -0.513   0.133  0.00  0.00    +0.383 N 
ATOM      2  H   UNL     1      -1.403  -1.502   0.329  0.00  0.00    -0.085 HD
ATOM      3  H   UNL     1      -1.784  -0.005   0.900  0.00  0.00    -0.085 HD
ENDROOT
BRANCH   1   4
ATOM      4  C   UNL     1      -2.116  -0.233  -1.101  0.00  0.00    -0.069 C 
ATOM      5  C   UNL     1      -3.600  -0.541  -0.882  0.00  0.00    -0.000 C 
ATOM      6  C   UNL     1      -4.362  -0.305  -2.188  0.00  0.00    +0.083 C 
ATOM      7  N   UNL     1      -3.814  -1.172  -3.240  0.00  0.00    -0.294 NA
ATOM      8  C   UNL     1      -2.402  -0.862  -3.500  0.00  0.00    +0.083 C 
ATOM      9  C   UNL     1      -1.581  -1.114  -2.233  0.00  0.00    -0.000 C 
BRANCH   7  10
ATOM     10  C   UNL     1      -4.610  -1.074  -4.470  0.00  0.00    +0.180 C 
BRANCH  10  11
ATOM     11  C   UNL     1      -4.175  -2.146  -5.436  0.00  0.00    +0.225 C 
ATOM     12  O   UNL     1      -3.289  -2.915  -5.130  0.00  0.00    -0.275 OA
ATOM     13  N   UNL     1      -4.770  -2.249  -6.641  0.00  0.00    -0.328 N 
ATOM     14  H   UNL     1      -5.479  -1.634  -6.886  0.00  0.00    +0.145 HD
ATOM     15  H   UNL     1      -4.490  -2.939  -7.263  0.00  0.00    +0.145 HD
ENDBRANCH  10  11
ENDBRANCH   7  10
ENDBRANCH   1   4
BRANCH   1  17
ATOM     16  C   UNL     1       0.089   1.429  -0.182  0.00  0.00    -0.014 C 
ATOM     17  C   UNL     1       0.028  -0.093  -0.034  0.00  0.00    -0.073 C 
BRANCH  17  18
ATOM     18  C   UNL     1       0.838  -0.519   1.192  0.00  0.00    -0.042 C 
ATOM     19  C   UNL     1       0.256   0.142   2.445  0.00  0.00    -0.002 C 
ATOM     20  C   UNL     1       1.120  -0.228   3.654  0.00  0.00    -0.018 C 
ATOM     21  C   UNL     1       2.565   0.202   3.391  0.00  0.00    -0.079 C 
ATOM     22  N   UNL     1       3.073  -0.483   2.196  0.00  0.00    +0.378 N 
ATOM     23  C   UNL     1       2.294  -0.080   1.020  0.00  0.00    -0.077 C 
ATOM     24  C   UNL     1       4.484  -0.128   1.993  0.00  0.00    -0.096 C 
ATOM     25  H   UNL     1       2.995  -1.481   2.324  0.00  0.00    -0.082 HD
ENDBRANCH  17  18
ENDBRANCH   1  17
TORSDOF 5
