REMARK  Name = ZINC06788034
REMARK  9 active torsions:
REMARK  status: ('A' for Active; 'I' for Inactive)
REMARK    1  A    between atoms: C_1  and  C_2
REMARK    2  A    between atoms: C_2  and  C_3
REMARK    3  A    between atoms: C_2  and  C_4
REMARK    4  A    between atoms: C_2  and  C_5
REMARK    5  A    between atoms: C_5  and  C_7
REMARK    6  A    between atoms: C_14  and  C_15
REMARK    7  A    between atoms: C_18  and  O_23
REMARK    8  A    between atoms: C_19  and  O_21
REMARK    9  A    between atoms: O_21  and  C_22
REMARK                            x       y       z     vdW  Elec       q    Type
REMARK                         _______ _______ _______ _____ _____    ______ ____
ROOT
ATOM      1  C   UNL     1      -0.975  -0.727   1.370  0.00  0.00    +0.079 C 
ATOM      2  C   UNL     1       0.076   0.115   1.046  0.00  0.00    +0.084 A 
ATOM      3  N   UNL     1       1.418  -0.176   0.994  0.00  0.00    -0.316 N 
ATOM      4  H   UNL     1       1.723  -1.073   1.202  0.00  0.00    +0.169 HD
ATOM      5  C   UNL     1       2.298   0.753   0.663  0.00  0.00    +0.263 A 
ATOM      6  O   UNL     1       3.490   0.512   0.612  0.00  0.00    -0.267 OA
ATOM      7  C   UNL     1       1.770   2.096   0.359  0.00  0.00    +0.079 A 
ATOM      8  C   UNL     1       2.436   3.223  -0.004  0.00  0.00    +0.028 C 
ATOM      9  S   UNL     1       0.017   1.841   0.595  0.00  0.00    -0.066 S 
ENDROOT
BRANCH   8  10
ATOM     10  C   UNL     1       1.718   4.500  -0.102  0.00  0.00    -0.020 A 
ATOM     11  C   UNL     1       0.466   4.651   0.507  0.00  0.00    +0.012 A 
ATOM     12  C   UNL     1      -0.204   5.851   0.414  0.00  0.00    +0.050 A 
ATOM     13  C   UNL     1       0.358   6.912  -0.283  0.00  0.00    +0.158 A 
ATOM     14  C   UNL     1       1.604   6.771  -0.892  0.00  0.00    +0.162 A 
ATOM     15  C   UNL     1       2.287   5.574  -0.799  0.00  0.00    +0.057 A 
BRANCH  14  16
ATOM     16  O   UNL     1       2.150   7.813  -1.573  0.00  0.00    -0.491 OA
ATOM     17  C   UNL     1       3.429   7.598  -2.173  0.00  0.00    +0.277 C 
ENDBRANCH  14  16
BRANCH  13  18
ATOM     18  O   UNL     1      -0.309   8.093  -0.371  0.00  0.00    -0.503 OA
ATOM     19  H   UNL     1      -0.108   8.712   0.344  0.00  0.00    +0.292 HD
ENDBRANCH  13  18
ENDBRANCH   8  10
BRANCH   1  20
ATOM     20  C   UNL     1      -2.277  -0.244   1.368  0.00  0.00    +0.164 C 
ATOM     21  O   UNL     1      -2.495   0.919   1.082  0.00  0.00    -0.292 OA
BRANCH  20  23
ATOM     22  C   UNL     1      -4.738  -0.384   1.643  0.00  0.00    +0.019 C 
ATOM     23  C   UNL     1      -3.421  -1.159   1.720  0.00  0.00    +0.025 C 
ATOM     24  C   UNL     1      -3.459  -2.330   0.736  0.00  0.00    +0.019 C 
ATOM     25  C   UNL     1      -3.228  -1.694   3.141  0.00  0.00    +0.019 C 
ENDBRANCH  20  23
ENDBRANCH   1  20
TORSDOF 5
