REMARK  Name = ZINC18938252
REMARK  7 active torsions:
REMARK  status: ('A' for Active; 'I' for Inactive)
REMARK    1  A    between atoms: C_1  and  C_2
REMARK    2  A    between atoms: C_2  and  C_3
REMARK    3  A    between atoms: C_7  and  C_14
REMARK    4  A    between atoms: C_14  and  N_49
REMARK    5  A    between atoms: C_15  and  N_49
REMARK    6  A    between atoms: C_20  and  C_25
REMARK    7  A    between atoms: C_22  and  C_24
REMARK                            x       y       z     vdW  Elec       q    Type
REMARK                         _______ _______ _______ _____ _____    ______ ____
ROOT
ATOM      1  C   UNL     1      -0.811  -0.692   5.071  0.00  0.00    -0.044 A 
ATOM      2  C   UNL     1      -1.591  -0.228   4.022  0.00  0.00    +0.004 A 
ATOM      3  C   UNL     1      -1.081  -0.160   2.756  0.00  0.00    +0.012 A 
ATOM      4  C   UNL     1       0.237  -0.562   2.517  0.00  0.00    +0.019 A 
ATOM      5  C   UNL     1       0.814  -0.502   1.170  0.00  0.00    -0.047 A 
ATOM      6  C   UNL     1       2.096  -0.912   1.004  0.00  0.00    +0.094 A 
ATOM      7  C   UNL     1       2.836  -1.371   2.115  0.00  0.00    +0.337 A 
ATOM      8  O   UNL     1       3.988  -1.732   1.953  0.00  0.00    -0.245 OA
ATOM      9  O   UNL     1       2.302  -1.422   3.345  0.00  0.00    -0.422 OA
ATOM     10  C   UNL     1       1.030  -1.034   3.577  0.00  0.00    +0.140 A 
ATOM     11  C   UNL     1       0.491  -1.094   4.856  0.00  0.00    +0.050 A 
ENDROOT
BRANCH   1  13
ATOM     12  C   UNL     1      -1.132   0.563   7.185  0.00  0.00    +0.009 C 
ATOM     13  C   UNL     1      -1.393  -0.759   6.460  0.00  0.00    +0.032 C 
ENDBRANCH   1  13
BRANCH   5  14
ATOM     14  C   UNL     1       0.002  -0.004   0.002  0.00  0.00    -0.045 C 
BRANCH  14  15
ATOM     15  N   UNL     1      -0.013   1.471   0.017  0.00  0.00    +0.384 N 
ATOM     16  H   UNL     1       0.950   1.820  -0.053  0.00  0.00    -0.085 HD
ATOM     17  H   UNL     1      -0.432   1.796   0.897  0.00  0.00    -0.085 HD
BRANCH  15  18
ATOM     18  C   UNL     1      -0.802   1.987  -1.117  0.00  0.00    -0.068 C 
ATOM     19  C   UNL     1      -2.282   2.030  -0.733  0.00  0.00    -0.015 C 
ATOM     20  C   UNL     1      -3.098   2.574  -1.907  0.00  0.00    -0.001 C 
ATOM     21  C   UNL     1      -2.619   3.986  -2.251  0.00  0.00    +0.003 C 
ATOM     22  C   UNL     1      -1.139   3.942  -2.635  0.00  0.00    -0.013 C 
ATOM     23  C   UNL     1      -0.323   3.399  -1.461  0.00  0.00    -0.025 C 
ATOM     24  C   UNL     1       1.157   3.355  -1.846  0.00  0.00    +0.006 C 
ATOM     25  C   UNL     1      -0.954   3.031  -3.850  0.00  0.00    +0.008 C 
ENDBRANCH  15  18
ENDBRANCH  14  15
ENDBRANCH   5  14
TORSDOF 4
