REMARK  Name = ZINC38578577
REMARK  7 active torsions:
REMARK  status: ('A' for Active; 'I' for Inactive)
REMARK    1  A    between atoms: C_7  and  C_10
REMARK    2  A    between atoms: N_11  and  N_12
REMARK    3  A    between atoms: C_13  and  C_15
REMARK    4  A    between atoms: C_15  and  S_16
REMARK    5  A    between atoms: S_16  and  C_17
REMARK    6  A    between atoms: C_20  and  C_30
REMARK    7  A    between atoms: N_22  and  C_23
REMARK                            x       y       z     vdW  Elec       q    Type
REMARK                         _______ _______ _______ _____ _____    ______ ____
ROOT
ATOM      1  C   UNL     1      -0.637 -10.609   0.022  0.00  0.00    +0.180 C 
ATOM      2  N   UNL     1      -1.918 -10.457   0.010  0.00  0.00    -0.162 NA
ATOM      3  N   UNL     1      -2.580 -11.689  -0.061  0.00  0.00    -0.242 N 
ATOM      4  C   UNL     1      -1.527 -12.719  -0.095  0.00  0.00    +0.213 C 
ATOM      5  N   UNL     1      -0.274 -11.947  -0.043  0.00  0.00    -0.254 N 
ATOM      6  H   UNL     1      -3.538 -11.835  -0.083  0.00  0.00    +0.170 HD
ENDROOT
BRANCH   5   7
ATOM      7  C   UNL     1       1.026 -12.461  -0.055  0.00  0.00    +0.038 A 
ATOM      8  C   UNL     1       1.485 -13.166  -1.160  0.00  0.00    +0.025 A 
ATOM      9  C   UNL     1       2.770 -13.673  -1.169  0.00  0.00    +0.022 A 
ATOM     10  C   UNL     1       3.599 -13.479  -0.078  0.00  0.00    +0.041 A 
ATOM     11  C   UNL     1       3.144 -12.777   1.024  0.00  0.00    +0.022 A 
ATOM     12  C   UNL     1       1.862 -12.263   1.036  0.00  0.00    +0.025 A 
ATOM     13 CL   UNL     1       5.213 -14.118  -0.093  0.00  0.00    -0.084 Cl
ENDBRANCH   5   7
BRANCH   4  14
ATOM     14  C   UNL     1      -1.643 -13.634   1.097  0.00  0.00    -0.005 A 
ATOM     15  C   UNL     1      -0.546 -14.349   1.552  0.00  0.00    +0.027 A 
ATOM     16  C   UNL     1      -0.691 -15.178   2.648  0.00  0.00    +0.111 A 
ATOM     17  N   UNL     1      -1.854 -15.293   3.259  0.00  0.00    -0.263 NA
ATOM     18  C   UNL     1      -2.918 -14.629   2.853  0.00  0.00    +0.111 A 
ATOM     19  C   UNL     1      -2.848 -13.776   1.768  0.00  0.00    +0.027 A 
ENDBRANCH   4  14
BRANCH   1  20
ATOM     20  S   UNL     1       0.514  -9.278   0.105  0.00  0.00    -0.079 S 
BRANCH  20  21
ATOM     21  C   UNL     1      -0.532  -7.797   0.171  0.00  0.00    +0.174 C 
BRANCH  21  23
ATOM     22  N   UNL     1      -0.223  -5.346   0.302  0.00  0.00    -0.206 N 
ATOM     23  C   UNL     1       0.339  -6.569   0.245  0.00  0.00    +0.242 C 
ATOM     24  O   UNL     1       1.547  -6.682   0.253  0.00  0.00    -0.273 OA
ATOM     25  H   UNL     1      -1.189  -5.256   0.296  0.00  0.00    +0.177 HD
BRANCH  22  27
ATOM     26  C   UNL     1       0.040  -3.017   0.427  0.00  0.00    +0.136 C 
ATOM     27  N   UNL     1       0.586  -4.205   0.371  0.00  0.00    -0.188 NA
BRANCH  26  34
ATOM     28  C   UNL     1      -0.959   1.400   0.647  0.00  0.00    +0.001 A 
ATOM     29  C   UNL     1       0.167   2.226   0.703  0.00  0.00    +0.002 A 
ATOM     30  C   UNL     1       1.425   1.723   0.691  0.00  0.00    +0.026 A 
ATOM     31  C   UNL     1       1.622   0.319   0.620  0.00  0.00    +0.043 A 
ATOM     32  N   UNL     1       2.721  -0.406   0.595  0.00  0.00    -0.380 N 
ATOM     33  C   UNL     1       2.362  -1.826   0.516  0.00  0.00    +0.150 C 
ATOM     34  C   UNL     1       0.850  -1.875   0.496  0.00  0.00    +0.000 C 
ATOM     35  C   UNL     1       0.432  -0.548   0.561  0.00  0.00    +0.004 A 
ATOM     36  C   UNL     1      -0.848   0.050   0.577  0.00  0.00    +0.010 A 
ATOM     37  H   UNL     1       3.625  -0.057   0.623  0.00  0.00    +0.160 HD
ENDBRANCH  26  34
ENDBRANCH  22  27
ENDBRANCH  21  23
ENDBRANCH  20  21
ENDBRANCH   1  20
TORSDOF 7
