REMARK  Name = ZINC60341714
REMARK  9 active torsions:
REMARK  status: ('A' for Active; 'I' for Inactive)
REMARK    1  A    between atoms: C_1  and  N_2
REMARK    2  A    between atoms: N_2  and  C_3
REMARK    3  A    between atoms: C_6  and  S_25
REMARK    4  A    between atoms: C_8  and  N_9
REMARK    5  A    between atoms: N_9  and  S_10
REMARK    6  A    between atoms: S_10  and  C_13
REMARK    7  A    between atoms: C_16  and  C_19
REMARK    8  A    between atoms: S_25  and  N_28
REMARK    9  A    between atoms: N_28  and  C_29
REMARK                            x       y       z     vdW  Elec       q    Type
REMARK                         _______ _______ _______ _____ _____    ______ ____
ROOT
ATOM      1  N   UNL     1      -0.422  -3.268  -0.020  0.00  0.00    -0.214 N 
ATOM      2  H   UNL     1       0.222  -3.176   0.699  0.00  0.00    +0.174 HD
ENDROOT
BRANCH   1   8
ATOM      3  C   UNL     1      -1.111  -0.946   0.034  0.00  0.00    +0.050 A 
ATOM      4  C   UNL     1      -2.087   0.019  -0.160  0.00  0.00    +0.027 A 
ATOM      5  C   UNL     1      -3.349  -0.350  -0.588  0.00  0.00    +0.030 A 
ATOM      6  C   UNL     1      -3.642  -1.680  -0.824  0.00  0.00    +0.107 A 
ATOM      7  C   UNL     1      -2.675  -2.649  -0.633  0.00  0.00    +0.054 A 
ATOM      8  C   UNL     1      -1.405  -2.288  -0.209  0.00  0.00    +0.071 A 
BRANCH   3  10
ATOM      9  C   UNL     1       0.474   0.835   0.722  0.00  0.00    +0.125 C 
ATOM     10  N   UNL     1       0.168  -0.575   0.467  0.00  0.00    -0.345 N 
ATOM     11  H   UNL     1       0.851  -1.251   0.599  0.00  0.00    +0.146 HD
ENDBRANCH   3  10
BRANCH   6  12
ATOM     12  S   UNL     1      -5.253  -2.141  -1.369  0.00  0.00    +0.058 S 
ATOM     13  O   UNL     1      -5.376  -3.538  -1.136  0.00  0.00    -0.153 OA
ATOM     14  O   UNL     1      -6.155  -1.194  -0.816  0.00  0.00    -0.153 OA
BRANCH  12  15
ATOM     15  N   UNL     1      -5.293  -1.931  -3.011  0.00  0.00    -0.193 NA
ATOM     16  C   UNL     1      -4.419  -2.729  -3.874  0.00  0.00    +0.127 C 
ATOM     17  H   UNL     1      -5.895  -1.278  -3.402  0.00  0.00    +0.148 HD
ENDBRANCH  12  15
ENDBRANCH   6  12
ENDBRANCH   1   8
BRANCH   1  18
ATOM     18  S   UNL     1      -0.360  -4.582  -1.025  0.00  0.00    +0.072 S 
ATOM     19  O   UNL     1       0.797  -5.320  -0.657  0.00  0.00    -0.150 OA
ATOM     20  O   UNL     1      -1.661  -5.155  -1.025  0.00  0.00    -0.150 OA
BRANCH  18  21
ATOM     21  C   UNL     1      -0.076  -3.979  -2.656  0.00  0.00    +0.109 A 
ATOM     22  C   UNL     1      -1.141  -3.776  -3.513  0.00  0.00    +0.029 A 
ATOM     23  C   UNL     1      -0.918  -3.303  -4.793  0.00  0.00    +0.006 A 
ATOM     24  C   UNL     1       0.370  -3.032  -5.215  0.00  0.00    -0.044 A 
ATOM     25  C   UNL     1       1.435  -3.235  -4.357  0.00  0.00    +0.006 A 
ATOM     26  C   UNL     1       1.212  -3.704  -3.076  0.00  0.00    +0.029 A 
BRANCH  24  27
ATOM     27  C   UNL     1       0.614  -2.517  -6.610  0.00  0.00    +0.019 C 
ATOM     28  C   UNL     1       1.516  -3.496  -7.364  0.00  0.00    +0.008 C 
ATOM     29  C   UNL     1       1.763  -2.973  -8.781  0.00  0.00    +0.001 C 
ATOM     30  C   UNL     1       2.443  -1.604  -8.708  0.00  0.00    +0.000 C 
ATOM     31  C   UNL     1       1.541  -0.626  -7.953  0.00  0.00    +0.001 C 
ATOM     32  C   UNL     1       1.294  -1.149  -6.537  0.00  0.00    +0.008 C 
ENDBRANCH  24  27
ENDBRANCH  18  21
ENDBRANCH   1  18
TORSDOF 7
