REMARK  Name = ZINC11784120
REMARK  12 active torsions:
REMARK  status: ('A' for Active; 'I' for Inactive)
REMARK    1  A    between atoms: C_1  and  C_2
REMARK    2  A    between atoms: C_5  and  C_7
REMARK    3  A    between atoms: C_7  and  N_63
REMARK    4  A    between atoms: C_11  and  C_29
REMARK    5  A    between atoms: C_12  and  O_19
REMARK    6  A    between atoms: O_19  and  C_20
REMARK    7  A    between atoms: C_20  and  C_21
REMARK    8  A    between atoms: C_21  and  C_22
REMARK    9  A    between atoms: C_22  and  C_23
REMARK   10  A    between atoms: N_26  and  C_28
REMARK   11  A    between atoms: C_29  and  O_31
REMARK   12  A    between atoms: O_31  and  C_32
REMARK                            x       y       z     vdW  Elec       q    Type
REMARK                         _______ _______ _______ _____ _____    ______ ____
ROOT
ATOM      1  C   UNL     1       0.572   0.444  -2.247  0.00  0.00    -0.072 C 
ATOM      2  C   UNL     1       2.046   0.558  -1.866  0.00  0.00    +0.036 C 
ATOM      3  C   UNL     1       2.275   1.670  -0.872  0.00  0.00    +0.038 A 
ATOM      4  C   UNL     1       3.512   2.298  -0.911  0.00  0.00    +0.120 A 
ATOM      5  C   UNL     1       3.811   3.363   0.047  0.00  0.00    +0.141 A 
ATOM      6  C   UNL     1       2.839   3.688   0.972  0.00  0.00    +0.116 A 
ATOM      7  C   UNL     1       1.620   3.010   0.938  0.00  0.00    +0.255 A 
ATOM      8  O   UNL     1       0.768   3.287   1.767  0.00  0.00    -0.268 OA
ATOM      9  N   UNL     1       1.350   2.056   0.017  0.00  0.00    -0.313 N 
ATOM     10  C   UNL     1      -0.001   1.486   0.044  0.00  0.00    +0.106 C 
ATOM     11  C   UNL     1       0.043  -0.043   0.059  0.00  0.00    -0.056 C 
ATOM     12  N   UNL     1      -0.055  -0.530  -1.330  0.00  0.00    +0.384 N 
ATOM     13  H   UNL     1       0.440  -1.427  -1.405  0.00  0.00    -0.081 HD
ENDROOT
BRANCH   4  14
ATOM     14  C   UNL     1       4.516   1.895  -1.909  0.00  0.00    +0.344 C 
ATOM     15  O   UNL     1       4.686   2.568  -2.906  0.00  0.00    -0.245 OA
BRANCH  14  16
ATOM     16  O   UNL     1       5.247   0.779  -1.716  0.00  0.00    -0.464 OA
ATOM     17  C   UNL     1       6.219   0.443  -2.741  0.00  0.00    +0.280 C 
ENDBRANCH  14  16
ENDBRANCH   4  14
BRANCH  12  18
ATOM     18  C   UNL     1      -1.473  -0.731  -1.697  0.00  0.00    -0.036 C 
BRANCH  18  23
ATOM     19  C   UNL     1      -3.244  -5.601   0.593  0.00  0.00    +0.051 C 
ATOM     20  C   UNL     1      -2.871  -4.194   0.201  0.00  0.00    -0.013 A 
ATOM     21  C   UNL     1      -3.079  -3.037   0.875  0.00  0.00    +0.011 A 
ATOM     22  C   UNL     1      -2.642  -1.849   0.319  0.00  0.00    +0.009 A 
ATOM     23  C   UNL     1      -2.029  -1.876  -0.889  0.00  0.00    -0.026 A 
ATOM     24  S   UNL     1      -2.042  -3.620  -1.272  0.00  0.00    -0.100 S 
ENDBRANCH  18  23
ENDBRANCH  12  18
BRANCH   5  25
ATOM     25  O   UNL     1       5.001   4.007   0.027  0.00  0.00    -0.491 OA
BRANCH  25  26
ATOM     26  C   UNL     1       5.200   5.032   1.002  0.00  0.00    +0.229 C 
BRANCH  26  27
ATOM     27  C   UNL     1       6.592   5.642   0.825  0.00  0.00    +0.046 C 
BRANCH  27  28
ATOM     28  C   UNL     1       6.805   6.740   1.870  0.00  0.00    +0.041 C 
BRANCH  28  29
ATOM     29  C   UNL     1       8.176   7.340   1.695  0.00  0.00    -0.010 A 
ATOM     30  C   UNL     1       8.499   8.432   0.884  0.00  0.00    +0.138 A 
ATOM     31  N   UNL     1       9.783   8.658   0.994  0.00  0.00    -0.180 NA
ATOM     32  N   UNL     1      10.318   7.715   1.880  0.00  0.00    -0.274 N 
ATOM     33  C   UNL     1       9.311   6.921   2.301  0.00  0.00    +0.111 A 
ATOM     34  C   UNL     1      11.723   7.611   2.284  0.00  0.00    +0.172 C 
ENDBRANCH  28  29
ENDBRANCH  27  28
ENDBRANCH  26  27
ENDBRANCH  25  26
ENDBRANCH   5  25
TORSDOF 9
