REMARK  Name = ZINC06142205
REMARK  6 active torsions:
REMARK  status: ('A' for Active; 'I' for Inactive)
REMARK    1  A    between atoms: C_10  and  C_13
REMARK    2  A    between atoms: C_13  and  C_14
REMARK    3  A    between atoms: N_16  and  C_17
REMARK    4  A    between atoms: C_22  and  N_23
REMARK    5  A    between atoms: C_24  and  C_26
REMARK    6  A    between atoms: C_26  and  C_27
REMARK                            x       y       z     vdW  Elec       q    Type
REMARK                         _______ _______ _______ _____ _____    ______ ____
ROOT
ATOM      1  C   UNL     1       4.877   3.953   2.553  0.00  0.00    +0.055 A 
ATOM      2  C   UNL     1       5.557   4.059   1.349  0.00  0.00    +0.025 A 
ATOM      3  C   UNL     1       6.849   4.548   1.326  0.00  0.00    +0.002 A 
ATOM      4  C   UNL     1       7.468   4.933   2.501  0.00  0.00    +0.002 A 
ATOM      5  C   UNL     1       6.798   4.831   3.705  0.00  0.00    +0.025 A 
ATOM      6  C   UNL     1       5.499   4.346   3.737  0.00  0.00    +0.055 A 
ENDROOT
BRANCH   1   9
ATOM      7  C   UNL     1       2.790   3.550   1.481  0.00  0.00    +0.219 C 
ATOM      8  O   UNL     1       3.188   4.151   0.505  0.00  0.00    -0.275 OA
ATOM      9  N   UNL     1       3.567   3.457   2.578  0.00  0.00    -0.284 N 
ATOM     10  H   UNL     1       3.219   3.048   3.386  0.00  0.00    +0.155 HD
BRANCH   7  11
ATOM     11  C   UNL     1       1.426   2.908   1.466  0.00  0.00    +0.120 C 
BRANCH  11  21
ATOM     12  C   UNL     1      -3.170   5.553   2.605  0.00  0.00    +0.002 A 
ATOM     13  C   UNL     1      -2.278   6.590   2.404  0.00  0.00    +0.001 A 
ATOM     14  C   UNL     1      -1.179   6.405   1.586  0.00  0.00    +0.016 A 
ATOM     15  C   UNL     1      -0.975   5.180   0.971  0.00  0.00    +0.030 A 
ATOM     16  C   UNL     1      -1.867   4.127   1.173  0.00  0.00    +0.047 A 
ATOM     17  C   UNL     1      -2.970   4.329   1.996  0.00  0.00    +0.024 A 
ATOM     18  N   UNL     1      -1.677   2.882   0.583  0.00  0.00    -0.284 N 
ATOM     19  C   UNL     1      -0.552   2.419   0.049  0.00  0.00    +0.231 C 
ATOM     20  O   UNL     1      -0.581   1.349  -0.521  0.00  0.00    -0.274 OA
ATOM     21  C   UNL     1       0.758   3.161   0.114  0.00  0.00    +0.146 C 
ATOM     22  S   UNL     1       0.423   4.938  -0.081  0.00  0.00    -0.110 S 
ATOM     23  H   UNL     1      -2.445   2.289   0.561  0.00  0.00    +0.155 HD
ENDBRANCH  11  21
ENDBRANCH   7  11
ENDBRANCH   1   9
BRANCH   6  24
ATOM     24  N   UNL     1       4.816   4.246   4.956  0.00  0.00    -0.284 N 
ATOM     25  C   UNL     1       5.506   4.128   6.107  0.00  0.00    +0.219 C 
ATOM     26  O   UNL     1       6.712   4.006   6.082  0.00  0.00    -0.275 OA
ATOM     27  H   UNL     1       3.846   4.263   4.971  0.00  0.00    +0.155 HD
BRANCH  25  28
ATOM     28  C   UNL     1       4.779   4.146   7.427  0.00  0.00    +0.120 C 
BRANCH  28  29
ATOM     29  C   UNL     1       5.787   3.996   8.568  0.00  0.00    +0.146 C 
ATOM     30  C   UNL     1       5.076   4.111   9.891  0.00  0.00    +0.231 C 
ATOM     31  O   UNL     1       5.100   5.178  10.468  0.00  0.00    -0.274 OA
ATOM     32  N   UNL     1       4.425   3.101  10.457  0.00  0.00    -0.284 N 
ATOM     33  C   UNL     1       4.385   1.783  10.011  0.00  0.00    +0.047 A 
ATOM     34  C   UNL     1       3.394   0.933  10.492  0.00  0.00    +0.024 A 
ATOM     35  C   UNL     1       3.321  -0.372  10.049  0.00  0.00    +0.002 A 
ATOM     36  C   UNL     1       4.232  -0.851   9.125  0.00  0.00    +0.001 A 
ATOM     37  C   UNL     1       5.225  -0.019   8.641  0.00  0.00    +0.016 A 
ATOM     38  C   UNL     1       5.303   1.291   9.084  0.00  0.00    +0.030 A 
ATOM     39  S   UNL     1       6.573   2.358   8.477  0.00  0.00    -0.110 S 
ATOM     40  H   UNL     1       3.926   3.303  11.265  0.00  0.00    +0.155 HD
ENDBRANCH  28  29
ENDBRANCH  25  28
ENDBRANCH   6  24
TORSDOF 6
