REMARK  Name = ZINC20856154
REMARK  5 active torsions:
REMARK  status: ('A' for Active; 'I' for Inactive)
REMARK    1  A    between atoms: C_10  and  C_12
REMARK    2  A    between atoms: C_18  and  C_20
REMARK    3  A    between atoms: C_20  and  O_22
REMARK    4  A    between atoms: O_22  and  C_23
REMARK    5  A    between atoms: C_23  and  C_24
REMARK                            x       y       z     vdW  Elec       q    Type
REMARK                         _______ _______ _______ _____ _____    ______ ____
ROOT
ATOM      1  C   UNL     1      -3.980   2.153  -0.063  0.00  0.00    +0.089 C 
ATOM      2  C   UNL     1      -3.458   1.405   1.166  0.00  0.00    +0.013 C 
ATOM      3  C   UNL     1      -4.105   1.981   2.427  0.00  0.00    +0.001 C 
ATOM      4  C   UNL     1      -5.624   1.821   2.339  0.00  0.00    +0.001 C 
ATOM      5  C   UNL     1      -6.146   2.570   1.111  0.00  0.00    +0.015 C 
ATOM      6  C   UNL     1      -5.499   1.993  -0.150  0.00  0.00    +0.110 C 
ENDROOT
BRANCH   1  16
ATOM      7  C   UNL     1      -0.717   7.850  -0.218  0.00  0.00    +0.000 A 
ATOM      8  C   UNL     1      -2.082   7.757  -0.017  0.00  0.00    +0.002 A 
ATOM      9  C   UNL     1      -2.694   6.523   0.033  0.00  0.00    +0.024 A 
ATOM     10  C   UNL     1      -1.943   5.358  -0.131  0.00  0.00    +0.039 A 
ATOM     11  C   UNL     1      -0.576   5.461  -0.331  0.00  0.00    -0.024 A 
ATOM     12  C   UNL     1       0.034   6.700  -0.375  0.00  0.00    +0.005 A 
ATOM     13  C   UNL     1      -0.003   4.069  -0.471  0.00  0.00    +0.056 C 
ATOM     14  C   UNL     1      -1.216   3.135  -0.326  0.00  0.00    +0.118 C 
ATOM     15  N   UNL     1      -2.362   4.024  -0.119  0.00  0.00    -0.271 N 
ATOM     16  C   UNL     1      -3.635   3.615   0.056  0.00  0.00    +0.224 C 
ATOM     17  O   UNL     1      -4.502   4.425   0.308  0.00  0.00    -0.275 OA
ENDBRANCH   1  16
BRANCH   6  18
ATOM     18  C   UNL     1      -6.013   2.730  -1.360  0.00  0.00    +0.311 C 
ATOM     19  O   UNL     1      -5.243   3.323  -2.079  0.00  0.00    -0.251 OA
BRANCH  18  20
ATOM     20  O   UNL     1      -7.326   2.728  -1.639  0.00  0.00    -0.455 OA
BRANCH  20  21
ATOM     21  C   UNL     1      -7.749   3.459  -2.821  0.00  0.00    +0.327 C 
BRANCH  21  22
ATOM     22  C   UNL     1      -9.244   3.346  -2.972  0.00  0.00    +0.253 C 
ATOM     23  O   UNL     1      -9.889   2.711  -2.164  0.00  0.00    -0.272 OA
ATOM     24  N   UNL     1      -9.864   3.949  -4.005  0.00  0.00    -0.299 N 
ATOM     25  C   UNL     1      -9.097   4.726  -4.989  0.00  0.00    +0.108 C 
ATOM     26  C   UNL     1      -9.427   4.198  -6.393  0.00  0.00    +0.019 C 
ATOM     27  C   UNL     1     -10.942   4.238  -6.604  0.00  0.00    +0.003 C 
ATOM     28  C   UNL     1     -11.627   3.334  -5.577  0.00  0.00    +0.019 C 
ATOM     29  C   UNL     1     -11.321   3.847  -4.167  0.00  0.00    +0.108 C 
ENDBRANCH  21  22
ENDBRANCH  20  21
ENDBRANCH  18  20
ENDBRANCH   6  18
TORSDOF 5
