REMARK  Name = ZINC67304128
REMARK  8 active torsions:
REMARK  status: ('A' for Active; 'I' for Inactive)
REMARK    1  A    between atoms: C_1  and  C_2
REMARK    2  A    between atoms: C_2  and  C_4
REMARK    3  A    between atoms: C_2  and  N_19
REMARK    4  A    between atoms: C_4  and  C_5
REMARK    5  A    between atoms: N_15  and  C_16
REMARK    6  A    between atoms: C_16  and  C_17
REMARK    7  A    between atoms: C_16  and  C_18
REMARK    8  A    between atoms: C_20  and  C_22
REMARK                            x       y       z     vdW  Elec       q    Type
REMARK                         _______ _______ _______ _____ _____    ______ ____
ROOT
ATOM      1  C   UNL     1       0.633  -1.996  -1.329  0.00  0.00    +0.217 C 
ATOM      2  O   UNL     1       0.052  -2.612  -0.461  0.00  0.00    -0.276 OA
ATOM      3  N   UNL     1       1.197  -2.656  -2.360  0.00  0.00    -0.298 N 
ATOM      4  C   UNL     1       1.910  -1.924  -3.417  0.00  0.00    +0.127 C 
ATOM      5  C   UNL     1       3.330  -2.491  -3.534  0.00  0.00    +0.128 C 
ATOM      6  N   UNL     1       3.244  -3.956  -3.622  0.00  0.00    -0.283 N 
ATOM      7  C   UNL     1       2.532  -4.688  -2.565  0.00  0.00    +0.128 C 
ATOM      8  C   UNL     1       1.117  -4.121  -2.445  0.00  0.00    +0.127 C 
ATOM      9  C   UNL     1       3.809  -4.616  -4.652  0.00  0.00    +0.302 C 
ATOM     10  O   UNL     1       4.313  -3.995  -5.569  0.00  0.00    -0.253 OA
ATOM     11  N   UNL     1       3.815  -5.963  -4.668  0.00  0.00    -0.297 N 
ATOM     12  H   UNL     1       3.351  -6.458  -3.974  0.00  0.00    +0.150 HD
ENDROOT
BRANCH  11  13
ATOM     13  C   UNL     1       4.523  -6.681  -5.731  0.00  0.00    +0.068 C 
ATOM     14  C   UNL     1       5.999  -6.824  -5.353  0.00  0.00    +0.027 C 
ATOM     15  C   UNL     1       3.905  -8.069  -5.909  0.00  0.00    +0.027 C 
ENDBRANCH  11  13
BRANCH   1  16
ATOM     16  C   UNL     1       0.724  -0.494  -1.256  0.00  0.00    +0.118 C 
BRANCH  16  18
ATOM     17  C   UNL     1      -0.010   1.530   0.013  0.00  0.00    +0.028 C 
ATOM     18  C   UNL     1       0.006  -0.000   0.002  0.00  0.00    +0.079 C 
BRANCH  18  19
ATOM     19  N   UNL     1       0.711  -0.490   1.190  0.00  0.00    -0.312 N 
ATOM     20  C   UNL     1       0.049  -0.634   2.354  0.00  0.00    +0.216 C 
ATOM     21  O   UNL     1      -1.130  -0.358   2.420  0.00  0.00    -0.276 OA
ATOM     22  H   UNL     1       1.655  -0.710   1.137  0.00  0.00    +0.149 HD
BRANCH  20  23
ATOM     23  C   UNL     1       0.774  -1.137   3.576  0.00  0.00    +0.075 C 
ATOM     24  C   UNL     1       1.287  -2.571   3.333  0.00  0.00    +0.013 C 
ATOM     25  C   UNL     1       1.104  -3.277   4.699  0.00  0.00    +0.001 C 
ATOM     26  C   UNL     1      -0.236  -2.691   5.210  0.00  0.00    +0.001 C 
ATOM     27  C   UNL     1      -0.194  -1.213   4.770  0.00  0.00    +0.013 C 
ENDBRANCH  20  23
ENDBRANCH  18  19
ENDBRANCH  16  18
ENDBRANCH   1  16
TORSDOF 5
