REMARK  Name = ZINC20268328
REMARK  4 active torsions:
REMARK  status: ('A' for Active; 'I' for Inactive)
REMARK    1  A    between atoms: C_1  and  C_2
REMARK    2  A    between atoms: C_2  and  C_3
REMARK    3  A    between atoms: C_8  and  C_25
REMARK    4  A    between atoms: C_9  and  N_19
REMARK                            x       y       z     vdW  Elec       q    Type
REMARK                         _______ _______ _______ _____ _____    ______ ____
ROOT
ATOM      1  C   UNL     1       1.417  -0.332  -1.460  0.00  0.00    +0.179 C 
ATOM      2  C   UNL     1       1.577  -1.871  -1.446  0.00  0.00    +0.085 C 
ATOM      3  C   UNL     1       1.318  -2.224  -2.897  0.00  0.00    +0.027 A 
ATOM      4  C   UNL     1       1.558  -3.368  -3.651  0.00  0.00    +0.018 A 
ATOM      5  C   UNL     1       2.172  -4.577  -3.105  0.00  0.00    +0.100 A 
ATOM      6  C   UNL     1       2.356  -5.664  -3.974  0.00  0.00    +0.142 A 
ATOM      7  N   UNL     1       1.986  -5.595  -5.247  0.00  0.00    -0.216 NA
ATOM      8  C   UNL     1       1.429  -4.526  -5.788  0.00  0.00    +0.129 A 
ATOM      9  C   UNL     1       1.191  -3.369  -5.022  0.00  0.00    +0.063 A 
ATOM     10  C   UNL     1       0.604  -2.207  -5.555  0.00  0.00    +0.131 A 
ATOM     11  N   UNL     1       0.401  -1.155  -4.787  0.00  0.00    -0.197 NA
ATOM     12  C   UNL     1       0.728  -1.121  -3.490  0.00  0.00    +0.221 A 
ATOM     13  O   UNL     1       0.555  -0.112  -2.589  0.00  0.00    -0.473 OA
ATOM     14  N   UNL     1       0.240  -2.168  -6.888  0.00  0.00    -0.342 N 
ATOM     15  N   UNL     1       1.076  -4.544  -7.121  0.00  0.00    -0.343 N 
ATOM     16  H   UNL     1      -0.577  -1.718  -7.155  0.00  0.00    +0.144 HD
ATOM     17  H   UNL     1       0.802  -2.591  -7.557  0.00  0.00    +0.144 HD
ATOM     18  H   UNL     1       0.264  -4.102  -7.413  0.00  0.00    +0.144 HD
ATOM     19  H   UNL     1       1.639  -5.000  -7.766  0.00  0.00    +0.144 HD
ENDROOT
BRANCH   6  20
ATOM     20  N   UNL     1       2.933  -6.825  -3.497  0.00  0.00    -0.314 N 
ATOM     21  C   UNL     1       2.101  -7.898  -2.935  0.00  0.00    +0.106 C 
ATOM     22  C   UNL     1       2.434  -9.208  -3.655  0.00  0.00    +0.019 C 
ATOM     23  C   UNL     1       3.940  -9.467  -3.565  0.00  0.00    +0.003 C 
ATOM     24  C   UNL     1       4.697  -8.331  -4.255  0.00  0.00    +0.019 C 
ATOM     25  C   UNL     1       4.389  -7.013  -3.548  0.00  0.00    +0.106 C 
ENDBRANCH   6  20
BRANCH   1  27
ATOM     26  C   UNL     1       0.667   1.684  -0.189  0.00  0.00    +0.007 C 
ATOM     27  C   UNL     1       0.756   0.157  -0.170  0.00  0.00    +0.041 C 
ENDBRANCH   1  27
BRANCH   5  28
ATOM     28  C   UNL     1       2.571  -4.651  -1.732  0.00  0.00    +0.103 C 
ATOM     29  N   UNL     1       2.889  -4.709  -0.642  0.00  0.00    -0.191 NA
ENDBRANCH   5  28
TORSDOF 3
