REMARK  Name = ZINC35239847
REMARK  8 active torsions:
REMARK  status: ('A' for Active; 'I' for Inactive)
REMARK    1  A    between atoms: C_1  and  C_2
REMARK    2  A    between atoms: C_2  and  C_3
REMARK    3  A    between atoms: C_2  and  C_4
REMARK    4  A    between atoms: C_7  and  C_10
REMARK    5  A    between atoms: C_12  and  C_24
REMARK    6  A    between atoms: C_14  and  C_19
REMARK    7  A    between atoms: C_14  and  O_23
REMARK    8  A    between atoms: C_24  and  C_26
REMARK                            x       y       z     vdW  Elec       q    Type
REMARK                         _______ _______ _______ _____ _____    ______ ____
ROOT
ATOM      1  C   UNL     1       3.087  -2.060   4.370  0.00  0.00    +0.120 C 
ATOM      2  C   UNL     1       3.512  -3.521   4.551  0.00  0.00    +0.144 C 
ATOM      3  C   UNL     1       3.780  -3.771   6.039  0.00  0.00    +0.243 C 
ATOM      4  N   UNL     1       2.591  -3.402   6.809  0.00  0.00    -0.264 N 
ATOM      5  C   UNL     1       1.751  -2.448   6.382  0.00  0.00    +0.302 C 
ATOM      6  O   UNL     1       0.783  -2.174   7.065  0.00  0.00    -0.253 OA
ATOM      7  N   UNL     1       1.936  -1.783   5.231  0.00  0.00    -0.292 N 
ATOM      8  H   UNL     1       2.407  -3.858   7.646  0.00  0.00    +0.153 HD
ATOM      9  H   UNL     1       1.294  -1.107   4.964  0.00  0.00    +0.151 HD
ENDROOT
BRANCH   1  13
ATOM     10  C   UNL     1       2.015  -1.382   0.291  0.00  0.00    -0.045 A 
ATOM     11  C   UNL     1       3.299  -1.105   0.723  0.00  0.00    +0.004 A 
ATOM     12  C   UNL     1       3.645  -1.325   2.043  0.00  0.00    +0.006 A 
ATOM     13  C   UNL     1       2.708  -1.820   2.931  0.00  0.00    -0.026 A 
ATOM     14  C   UNL     1       1.425  -2.095   2.499  0.00  0.00    +0.006 A 
ATOM     15  C   UNL     1       1.077  -1.872   1.180  0.00  0.00    +0.004 A 
BRANCH  10  17
ATOM     16  C   UNL     1       1.837   0.336  -1.489  0.00  0.00    +0.012 C 
ATOM     17  C   UNL     1       1.637  -1.142  -1.148  0.00  0.00    +0.013 C 
ATOM     18  C   UNL     1       2.520  -2.000  -2.057  0.00  0.00    +0.012 C 
ENDBRANCH  10  17
ENDBRANCH   1  13
BRANCH   3  19
ATOM     19  C   UNL     1       4.095  -5.251   6.260  0.00  0.00    +0.436 C 
ATOM     20  F   UNL     1       5.143  -5.636   5.418  0.00  0.00    -0.166 F 
ATOM     21  F   UNL     1       4.469  -5.454   7.593  0.00  0.00    -0.166 F 
ATOM     22  F   UNL     1       2.960  -6.017   5.973  0.00  0.00    -0.166 F 
ENDBRANCH   3  19
BRANCH   3  23
ATOM     23  O   UNL     1       4.889  -2.976   6.464  0.00  0.00    -0.364 OA
ATOM     24  H   UNL     1       5.115  -3.084   7.398  0.00  0.00    +0.212 HD
ENDBRANCH   3  23
BRANCH   2  25
ATOM     25  C   UNL     1       2.411  -4.431   4.071  0.00  0.00    +0.173 C 
ATOM     26  O   UNL     1       1.328  -4.413   4.617  0.00  0.00    -0.292 OA
BRANCH  25  27
ATOM     27  C   UNL     1       2.650  -5.343   2.942  0.00  0.00    +0.018 A 
ATOM     28  C   UNL     1       3.857  -5.288   2.237  0.00  0.00    +0.013 A 
ATOM     29  C   UNL     1       4.074  -6.145   1.180  0.00  0.00    +0.020 A 
ATOM     30  C   UNL     1       3.100  -7.060   0.815  0.00  0.00    +0.041 A 
ATOM     31  C   UNL     1       1.902  -7.120   1.508  0.00  0.00    +0.020 A 
ATOM     32  C   UNL     1       1.673  -6.273   2.571  0.00  0.00    +0.013 A 
ATOM     33 CL   UNL     1       3.382  -8.135  -0.519  0.00  0.00    -0.084 Cl
ENDBRANCH  25  27
ENDBRANCH   2  25
TORSDOF 6
