REMARK  Name = ZINC03557540
REMARK  6 active torsions:
REMARK  status: ('A' for Active; 'I' for Inactive)
REMARK    1  A    between atoms: C_1  and  N_2
REMARK    2  A    between atoms: C_6  and  C_8
REMARK    3  A    between atoms: C_8  and  C_10
REMARK    4  A    between atoms: C_8  and  O_16
REMARK    5  A    between atoms: O_16  and  C_17
REMARK    6  A    between atoms: C_17  and  C_19
REMARK                            x       y       z     vdW  Elec       q    Type
REMARK                         _______ _______ _______ _____ _____    ______ ____
ROOT
ATOM      1  C   UNL     1       0.002  -0.004   0.002  0.00  0.00    +0.292 C 
ENDROOT
BRANCH   1   7
ATOM      2  C   UNL     1      -2.409   5.631   0.044  0.00  0.00    +0.129 C 
ATOM      3  N   UNL     1      -2.389   4.166   0.036  0.00  0.00    -0.302 N 
ATOM      4  C   UNL     1      -1.213   3.508   0.027  0.00  0.00    +0.306 C 
ATOM      5  O   UNL     1      -0.169   4.130   0.025  0.00  0.00    -0.252 OA
ATOM      6  N   UNL     1      -1.195   2.161   0.019  0.00  0.00    -0.237 N 
ATOM      7  C   UNL     1      -0.018   1.503   0.010  0.00  0.00    +0.266 C 
ATOM      8  O   UNL     1       1.023   2.123   0.004  0.00  0.00    -0.271 OA
ATOM      9  H   UNL     1      -3.223   3.670   0.037  0.00  0.00    +0.150 HD
ATOM     10  H   UNL     1      -2.028   1.664   0.021  0.00  0.00    +0.159 HD
ENDBRANCH   1   7
BRANCH   1  11
ATOM     11  C   UNL     1      -0.604  -0.508  -1.283  0.00  0.00    +0.002 A 
ATOM     12  C   UNL     1       0.177  -0.617  -2.418  0.00  0.00    +0.008 A 
ATOM     13  C   UNL     1      -0.378  -1.083  -3.596  0.00  0.00    +0.000 A 
ATOM     14  C   UNL     1      -1.716  -1.431  -3.640  0.00  0.00    +0.000 A 
ATOM     15  C   UNL     1      -2.497  -1.316  -2.505  0.00  0.00    +0.000 A 
ATOM     16  C   UNL     1      -1.941  -0.854  -1.327  0.00  0.00    +0.008 A 
ENDBRANCH   1  11
BRANCH   1  17
ATOM     17  O   UNL     1       1.373  -0.470   0.106  0.00  0.00    -0.444 OA
BRANCH  17  18
ATOM     18  C   UNL     1       1.572  -1.655   0.716  0.00  0.00    +0.341 C 
ATOM     19  O   UNL     1       0.626  -2.281   1.149  0.00  0.00    -0.245 OA
BRANCH  18  20
ATOM     20  C   UNL     1       2.941  -2.192   0.857  0.00  0.00    +0.072 A 
ATOM     21  C   UNL     1       4.030  -1.477   0.355  0.00  0.00    +0.016 A 
ATOM     22  C   UNL     1       5.306  -1.982   0.496  0.00  0.00    +0.001 A 
ATOM     23  C   UNL     1       5.507  -3.199   1.123  0.00  0.00    +0.001 A 
ATOM     24  C   UNL     1       4.433  -3.916   1.618  0.00  0.00    +0.015 A 
ATOM     25  C   UNL     1       3.151  -3.420   1.489  0.00  0.00    +0.027 A 
ATOM     26  I   UNL     1       1.524  -4.507   2.238  0.00  0.00    -0.043 I 
ENDBRANCH  18  20
ENDBRANCH  17  18
ENDBRANCH   1  17
TORSDOF 5
