REMARK  Name = ZINC05093344
REMARK  8 active torsions:
REMARK  status: ('A' for Active; 'I' for Inactive)
REMARK    1  A    between atoms: C_1  and  C_2
REMARK    2  A    between atoms: C_2  and  C_3
REMARK    3  A    between atoms: C_9  and  C_10
REMARK    4  A    between atoms: C_9  and  N_58
REMARK    5  A    between atoms: C_11  and  O_30
REMARK    6  A    between atoms: C_19  and  C_22
REMARK    7  A    between atoms: C_20  and  C_21
REMARK    8  A    between atoms: C_22  and  C_23
REMARK                            x       y       z     vdW  Elec       q    Type
REMARK                         _______ _______ _______ _____ _____    ______ ____
ROOT
ATOM      1  C   UNL     1      -4.084   0.188   0.155  0.00  0.00    +0.022 A 
ATOM      2  C   UNL     1      -5.272   0.811   0.502  0.00  0.00    +0.140 A 
ATOM      3  C   UNL     1      -6.439   0.067   0.671  0.00  0.00    +0.083 A 
ATOM      4  C   UNL     1      -6.426  -1.288   0.496  0.00  0.00    +0.035 A 
ATOM      5  C   UNL     1      -5.235  -1.933   0.146  0.00  0.00    +0.023 A 
ATOM      6  C   UNL     1      -4.055  -1.186  -0.031  0.00  0.00    +0.144 A 
ATOM      7  O   UNL     1      -2.906  -1.813  -0.364  0.00  0.00    -0.422 OA
ATOM      8  C   UNL     1      -2.861  -3.143  -0.543  0.00  0.00    +0.341 A 
ATOM      9  O   UNL     1      -1.803  -3.664  -0.848  0.00  0.00    -0.245 OA
ATOM     10  C   UNL     1      -4.005  -3.951  -0.388  0.00  0.00    +0.045 A 
ATOM     11  C   UNL     1      -5.192  -3.383  -0.049  0.00  0.00    -0.029 A 
ATOM     12  C   UNL     1      -6.431  -4.224   0.123  0.00  0.00    +0.045 C 
ATOM     13 CL   UNL     1      -7.917   0.867   1.105  0.00  0.00    -0.080 Cl
ENDROOT
BRANCH   2  14
ATOM     14  O   UNL     1      -5.300   2.156   0.678  0.00  0.00    -0.505 OA
ATOM     15  H   UNL     1      -5.500   2.655  -0.126  0.00  0.00    +0.292 HD
ENDBRANCH   2  14
BRANCH   1  16
ATOM     16  C   UNL     1      -2.828   1.001  -0.025  0.00  0.00    -0.035 C 
BRANCH  16  22
ATOM     17  C   UNL     1      -0.810   1.743   1.088  0.00  0.00    -0.068 C 
ATOM     18  C   UNL     1      -0.041   1.694   2.410  0.00  0.00    -0.015 C 
ATOM     19  C   UNL     1      -0.850   2.413   3.493  0.00  0.00    -0.003 C 
ATOM     20  C   UNL     1      -2.225   1.751   3.616  0.00  0.00    -0.019 C 
ATOM     21  C   UNL     1      -2.931   1.798   2.259  0.00  0.00    -0.078 C 
ATOM     22  N   UNL     1      -2.114   1.068   1.266  0.00  0.00    +0.384 N 
ATOM     23  H   UNL     1      -1.950   0.113   1.607  0.00  0.00    -0.081 HD
BRANCH  17  25
ATOM     24  C   UNL     1       1.322   1.719  -0.214  0.00  0.00    +0.002 C 
ATOM     25  C   UNL     1      -0.015   1.008   0.007  0.00  0.00    -0.019 C 
ENDBRANCH  17  25
ENDBRANCH  16  22
ENDBRANCH   1  16
BRANCH  10  26
ATOM     26  C   UNL     1      -3.913  -5.440  -0.599  0.00  0.00    +0.077 C 
BRANCH  26  27
ATOM     27  C   UNL     1      -4.192  -5.761  -2.045  0.00  0.00    -0.043 A 
ATOM     28  C   UNL     1      -5.485  -6.021  -2.458  0.00  0.00    +0.004 A 
ATOM     29  C   UNL     1      -5.741  -6.311  -3.785  0.00  0.00    +0.000 A 
ATOM     30  C   UNL     1      -4.703  -6.350  -4.697  0.00  0.00    +0.000 A 
ATOM     31  C   UNL     1      -3.409  -6.095  -4.283  0.00  0.00    +0.000 A 
ATOM     32  C   UNL     1      -3.154  -5.800  -2.957  0.00  0.00    +0.004 A 
ENDBRANCH  26  27
ENDBRANCH  10  26
TORSDOF 6
