REMARK  Name = ZINC39421910
REMARK  10 active torsions:
REMARK  status: ('A' for Active; 'I' for Inactive)
REMARK    1  A    between atoms: C_1  and  C_2
REMARK    2  A    between atoms: C_2  and  O_3
REMARK    3  A    between atoms: O_3  and  C_4
REMARK    4  A    between atoms: C_4  and  C_6
REMARK    5  A    between atoms: C_8  and  C_33
REMARK    6  A    between atoms: C_12  and  C_16
REMARK    7  A    between atoms: C_16  and  C_18
REMARK    8  A    between atoms: C_16  and  S_19
REMARK    9  A    between atoms: S_19  and  C_20
REMARK   10  A    between atoms: N_30  and  C_31
REMARK                            x       y       z     vdW  Elec       q    Type
REMARK                         _______ _______ _______ _____ _____    ______ ____
ROOT
ATOM      1  C   UNL     1       1.468  -2.353  -2.550  0.00  0.00    +0.188 C 
ATOM      2  C   UNL     1       0.857  -3.674  -2.960  0.00  0.00    -0.034 C 
ATOM      3  C   UNL     1       1.645  -4.760  -2.936  0.00  0.00    +0.071 C 
ATOM      4  C   UNL     1       3.049  -4.581  -2.510  0.00  0.00    +0.112 C 
ATOM      5  N   UNL     1       3.868  -5.604  -2.464  0.00  0.00    -0.226 NA
ATOM      6  C   UNL     1       3.467  -6.822  -2.796  0.00  0.00    +0.137 C 
ATOM      7  N   UNL     1       2.247  -7.100  -3.188  0.00  0.00    -0.160 NA
ATOM      8  C   UNL     1       1.290  -6.172  -3.291  0.00  0.00    +0.271 C 
ATOM      9  O   UNL     1       0.166  -6.465  -3.659  0.00  0.00    -0.268 OA
ATOM     10  S   UNL     1       3.195  -2.846  -2.155  0.00  0.00    -0.086 S 
ATOM     11  C   UNL     1      -0.586  -3.768  -3.382  0.00  0.00    +0.041 C 
ENDROOT
BRANCH   1  12
ATOM     12  C   UNL     1       0.775  -1.794  -1.334  0.00  0.00    +0.325 C 
ATOM     13  O   UNL     1       0.314  -2.540  -0.504  0.00  0.00    -0.249 OA
BRANCH  12  14
ATOM     14  O   UNL     1       0.671  -0.465  -1.174  0.00  0.00    -0.464 OA
BRANCH  14  16
ATOM     15  C   UNL     1      -0.019   1.526   0.010  0.00  0.00    +0.048 C 
ATOM     16  C   UNL     1       0.002  -0.004   0.002  0.00  0.00    +0.229 C 
ENDBRANCH  14  16
ENDBRANCH  12  14
ENDBRANCH   1  12
BRANCH   6  17
ATOM     17  C   UNL     1       4.466  -7.948  -2.719  0.00  0.00    +0.116 C 
ATOM     18  C   UNL     1       5.099  -8.164  -4.095  0.00  0.00    +0.027 C 
BRANCH  17  19
ATOM     19  S   UNL     1       5.760  -7.527  -1.519  0.00  0.00    -0.077 S 
BRANCH  19  20
ATOM     20  C   UNL     1       6.752  -8.981  -1.434  0.00  0.00    +0.173 A 
ATOM     21  N   UNL     1       6.422 -10.006  -2.180  0.00  0.00    -0.223 NA
ATOM     22  C   UNL     1       7.136 -11.150  -2.165  0.00  0.00    +0.079 A 
ATOM     23  C   UNL     1       6.784 -12.244  -2.961  0.00  0.00    +0.028 A 
ATOM     24  C   UNL     1       7.537 -13.383  -2.915  0.00  0.00    +0.002 A 
ATOM     25  C   UNL     1       8.649 -13.473  -2.088  0.00  0.00    +0.001 A 
ATOM     26  C   UNL     1       9.018 -12.419  -1.297  0.00  0.00    +0.015 A 
ATOM     27  C   UNL     1       8.269 -11.244  -1.325  0.00  0.00    +0.065 A 
ATOM     28  C   UNL     1       8.618 -10.081  -0.498  0.00  0.00    +0.262 A 
ATOM     29  O   UNL     1       9.582 -10.101   0.245  0.00  0.00    -0.267 OA
ATOM     30  N   UNL     1       7.832  -8.984  -0.599  0.00  0.00    -0.290 N 
ATOM     31  C   UNL     1       8.139  -7.794   0.198  0.00  0.00    +0.154 C 
ENDBRANCH  19  20
ENDBRANCH  17  19
ENDBRANCH   6  17
TORSDOF 6
