REMARK  Name = ZINC43289955
REMARK  8 active torsions:
REMARK  status: ('A' for Active; 'I' for Inactive)
REMARK    1  A    between atoms: C_1  and  C_2
REMARK    2  A    between atoms: C_2  and  C_4
REMARK    3  A    between atoms: C_2  and  N_23
REMARK    4  A    between atoms: C_4  and  C_6
REMARK    5  A    between atoms: C_4  and  O_12
REMARK    6  A    between atoms: O_12  and  C_13
REMARK    7  A    between atoms: C_16  and  S_19
REMARK    8  A    between atoms: S_19  and  C_22
REMARK                            x       y       z     vdW  Elec       q    Type
REMARK                         _______ _______ _______ _____ _____    ______ ____
ROOT
ATOM      1  C   UNL     1       0.752  -0.533   1.290  0.00  0.00    +0.196 C 
ENDROOT
BRANCH   1   2
ATOM      2  C   UNL     1       0.800  -2.025   1.492  0.00  0.00    +0.029 A 
ATOM      3  C   UNL     1      -0.042  -2.819   2.198  0.00  0.00    +0.030 A 
ATOM      4  C   UNL     1       0.200  -4.179   2.245  0.00  0.00    +0.025 A 
ATOM      5  C   UNL     1       1.274  -4.679   1.585  0.00  0.00    +0.060 A 
ATOM      6  S   UNL     1       1.978  -3.208   0.859  0.00  0.00    -0.097 S 
ATOM      7 BR   UNL     1      -0.947  -5.326   3.217  0.00  0.00    -0.050 Br
ENDBRANCH   1   2
BRANCH   1   9
ATOM      8  C   UNL     1      -0.025   1.296  -0.224  0.00  0.00    -0.010 C 
ATOM      9  C   UNL     1       0.025  -0.219  -0.019  0.00  0.00    -0.032 C 
BRANCH   9  10
ATOM     10  N   UNL     1      -1.344  -0.750   0.041  0.00  0.00    +0.382 N 
ATOM     11  H   UNL     1      -1.823  -0.543  -0.822  0.00  0.00    -0.089 HD
ATOM     12  H   UNL     1      -1.311  -1.749   0.177  0.00  0.00    -0.089 HD
ATOM     13  H   UNL     1      -1.837  -0.322   0.811  0.00  0.00    -0.089 HD
ENDBRANCH   9  10
ENDBRANCH   1   9
BRANCH   1  14
ATOM     14  O   UNL     1       2.083  -0.016   1.231  0.00  0.00    -0.485 OA
BRANCH  14  15
ATOM     15  C   UNL     1       2.287   1.224   1.748  0.00  0.00    +0.121 A 
ATOM     16  C   UNL     1       1.240   1.905   2.353  0.00  0.00    +0.047 A 
ATOM     17  C   UNL     1       1.450   3.166   2.877  0.00  0.00    +0.030 A 
ATOM     18  C   UNL     1       2.702   3.749   2.800  0.00  0.00    +0.088 A 
ATOM     19  C   UNL     1       3.746   3.072   2.197  0.00  0.00    +0.030 A 
ATOM     20  C   UNL     1       3.543   1.809   1.676  0.00  0.00    +0.047 A 
BRANCH  18  21
ATOM     21  S   UNL     1       2.966   5.357   3.469  0.00  0.00    -0.006 S 
ATOM     22  O   UNL     1       4.056   5.885   2.726  0.00  0.00    -0.170 OA
ATOM     23  O   UNL     1       1.691   5.982   3.427  0.00  0.00    -0.170 OA
ATOM     24  C   UNL     1       3.464   5.069   5.190  0.00  0.00    +0.200 C 
ENDBRANCH  18  21
ENDBRANCH  14  15
ENDBRANCH   1  14
TORSDOF 6
