REMARK  Name = ZINC40721899
REMARK  12 active torsions:
REMARK  status: ('A' for Active; 'I' for Inactive)
REMARK    1  A    between atoms: C_1  and  O_2
REMARK    2  A    between atoms: O_2  and  C_3
REMARK    3  A    between atoms: C_7  and  C_19
REMARK    4  A    between atoms: C_8  and  O_9
REMARK    5  A    between atoms: O_9  and  C_10
REMARK    6  A    between atoms: C_10  and  C_11
REMARK    7  A    between atoms: C_19  and  N_20
REMARK    8  A    between atoms: N_20  and  C_21
REMARK    9  A    between atoms: C_21  and  C_22
REMARK   10  A    between atoms: C_22  and  S_23
REMARK   11  A    between atoms: S_23  and  C_24
REMARK   12  A    between atoms: N_28  and  C_29
REMARK                            x       y       z     vdW  Elec       q    Type
REMARK                         _______ _______ _______ _____ _____    ______ ____
ROOT
ATOM      1  C   UNL     1       0.436  -0.476   0.695  0.00  0.00    +0.162 A 
ATOM      2  C   UNL     1       0.993   0.471   1.539  0.00  0.00    +0.049 A 
ATOM      3  C   UNL     1       1.667   0.071   2.678  0.00  0.00    +0.004 A 
ATOM      4  C   UNL     1       1.787  -1.274   2.978  0.00  0.00    +0.005 A 
ATOM      5  C   UNL     1       1.234  -2.224   2.139  0.00  0.00    -0.019 A 
ATOM      6  C   UNL     1       0.552  -1.829   0.999  0.00  0.00    +0.164 A 
ENDROOT
BRANCH   1   8
ATOM      7  C   UNL     1      -0.306   1.321  -0.675  0.00  0.00    +0.277 C 
ATOM      8  O   UNL     1      -0.227  -0.084  -0.426  0.00  0.00    -0.491 OA
ENDBRANCH   1   8
BRANCH   6   9
ATOM      9  O   UNL     1       0.002  -2.762   0.177  0.00  0.00    -0.483 OA
BRANCH   9  10
ATOM     10  C   UNL     1      -1.378  -3.075   0.382  0.00  0.00    +0.269 C 
BRANCH  10  11
ATOM     11  C   UNL     1      -1.845  -4.017  -0.698  0.00  0.00    +0.043 A 
ATOM     12  C   UNL     1      -2.367  -3.514  -1.878  0.00  0.00    +0.131 A 
ATOM     13  C   UNL     1      -2.796  -4.381  -2.869  0.00  0.00    +0.039 A 
ATOM     14  C   UNL     1      -2.702  -5.747  -2.680  0.00  0.00    +0.004 A 
ATOM     15  C   UNL     1      -2.180  -6.249  -1.502  0.00  0.00    +0.020 A 
ATOM     16  C   UNL     1      -1.746  -5.384  -0.513  0.00  0.00    +0.050 A 
ATOM     17 CL   UNL     1      -1.085  -6.015   0.963  0.00  0.00    -0.083 Cl
ATOM     18  F   UNL     1      -2.459  -2.179  -2.061  0.00  0.00    -0.205 F 
ENDBRANCH  10  11
ENDBRANCH   9  10
ENDBRANCH   6   9
BRANCH   5  19
ATOM     19  C   UNL     1       1.367  -3.688   2.469  0.00  0.00    -0.043 C 
BRANCH  19  20
ATOM     20  N   UNL     1       2.414  -4.285   1.630  0.00  0.00    +0.382 N 
ATOM     21  H   UNL     1       2.128  -4.255   0.662  0.00  0.00    -0.085 HD
ATOM     22  H   UNL     1       3.272  -3.768   1.744  0.00  0.00    -0.085 HD
BRANCH  20  23
ATOM     23  C   UNL     1       2.627  -5.682   2.033  0.00  0.00    -0.071 C 
BRANCH  23  24
ATOM     24  C   UNL     1       3.718  -6.304   1.159  0.00  0.00    +0.058 C 
BRANCH  24  25
ATOM     25  S   UNL     1       3.982  -8.028   1.657  0.00  0.00    -0.086 S 
BRANCH  25  26
ATOM     26  C   UNL     1       5.249  -8.597   0.572  0.00  0.00    +0.214 A 
ATOM     27  N   UNL     1       5.847  -7.896  -0.367  0.00  0.00    -0.101 NA
ATOM     28  N   UNL     1       6.723  -8.612  -0.974  0.00  0.00    -0.022 NA
ATOM     29  N   UNL     1       6.752  -9.801  -0.479  0.00  0.00    -0.038 NA
ATOM     30  N   UNL     1       5.796  -9.838   0.552  0.00  0.00    -0.187 N 
BRANCH  30  31
ATOM     31  C   UNL     1       5.477 -10.924   1.379  0.00  0.00    +0.070 A 
ATOM     32  C   UNL     1       5.119 -10.708   2.703  0.00  0.00    +0.028 A 
ATOM     33  C   UNL     1       4.804 -11.780   3.515  0.00  0.00    +0.002 A 
ATOM     34  C   UNL     1       4.845 -13.066   3.011  0.00  0.00    +0.000 A 
ATOM     35  C   UNL     1       5.201 -13.285   1.693  0.00  0.00    +0.002 A 
ATOM     36  C   UNL     1       5.512 -12.216   0.874  0.00  0.00    +0.028 A 
ENDBRANCH  30  31
ENDBRANCH  25  26
ENDBRANCH  24  25
ENDBRANCH  23  24
ENDBRANCH  20  23
ENDBRANCH  19  20
ENDBRANCH   5  19
TORSDOF 11
