REMARK  Name = ZINC32124439
REMARK  5 active torsions:
REMARK  status: ('A' for Active; 'I' for Inactive)
REMARK    1  A    between atoms: C_5  and  C_6
REMARK    2  A    between atoms: C_8  and  C_25
REMARK    3  A    between atoms: C_9  and  N_11
REMARK    4  A    between atoms: N_11  and  C_12
REMARK    5  A    between atoms: C_12  and  C_13
REMARK                            x       y       z     vdW  Elec       q    Type
REMARK                         _______ _______ _______ _____ _____    ______ ____
ROOT
ATOM      1  N   UNL     1      -3.541  -0.322   1.310  0.00  0.00    -0.313 N 
ATOM      2  H   UNL     1      -3.951  -0.912   0.477  0.00  0.00    +0.149 HD
ENDROOT
BRANCH   1   6
ATOM      3  C   UNL     1      -5.089   0.952   4.205  0.00  0.00    +0.266 A 
ATOM      4  N   UNL     1      -6.118   0.360   3.649  0.00  0.00    -0.194 NA
ATOM      5  C   UNL     1      -5.711  -0.209   2.483  0.00  0.00    +0.201 A 
ATOM      6  C   UNL     1      -4.359   0.066   2.348  0.00  0.00    +0.225 A 
ATOM      7  O   UNL     1      -3.999   0.781   3.430  0.00  0.00    -0.418 OA
BRANCH   3  12
ATOM      8  C   UNL     1      -6.209   1.860   6.277  0.00  0.00    +0.056 A 
ATOM      9  C   UNL     1      -5.783   2.614   7.386  0.00  0.00    +0.058 A 
ATOM     10  C   UNL     1      -4.466   2.860   7.216  0.00  0.00    +0.171 A 
ATOM     11  O   UNL     1      -4.067   2.291   6.067  0.00  0.00    -0.443 OA
ATOM     12  C   UNL     1      -5.117   1.683   5.479  0.00  0.00    +0.191 A 
ATOM     13 BR   UNL     1      -3.365   3.835   8.404  0.00  0.00    -0.008 Br
ENDBRANCH   3  12
BRANCH   5  14
ATOM     14  C   UNL     1      -6.525  -0.952   1.568  0.00  0.00    +0.124 C 
ATOM     15  N   UNL     1      -7.171  -1.541   0.842  0.00  0.00    -0.189 NA
ENDBRANCH   5  14
ENDBRANCH   1   6
BRANCH   1  16
ATOM     16  C   UNL     1      -2.124   0.052   1.315  0.00  0.00    +0.106 C 
BRANCH  16  17
ATOM     17  C   UNL     1      -1.447  -0.500   0.059  0.00  0.00    -0.008 C 
ATOM     18  C   UNL     1      -1.472  -2.028   0.097  0.00  0.00    +0.002 C 
ATOM     19  C   UNL     1      -0.675  -2.502   1.318  0.00  0.00    -0.018 C 
ATOM     20  C   UNL     1       0.755  -1.974   1.208  0.00  0.00    -0.078 C 
ATOM     21  N   UNL     1       0.750  -0.503   1.161  0.00  0.00    +0.382 N 
ATOM     22  C   UNL     1       0.002  -0.004   0.002  0.00  0.00    -0.064 C 
ATOM     23  C   UNL     1      -0.019   1.528   0.010  0.00  0.00    -0.015 C 
ATOM     24  C   UNL     1       1.413   2.067  -0.000  0.00  0.00    -0.003 C 
ATOM     25  C   UNL     1       2.154   1.515   1.222  0.00  0.00    -0.019 C 
ATOM     26  C   UNL     1       2.137  -0.012   1.161  0.00  0.00    -0.078 C 
ATOM     27  H   UNL     1       0.233  -0.118   2.053  0.00  0.00    -0.081 HD
ENDBRANCH  16  17
ENDBRANCH   1  16
TORSDOF 5
