REMARK  Name = ZINC43737267
REMARK  11 active torsions:
REMARK  status: ('A' for Active; 'I' for Inactive)
REMARK    1  A    between atoms: C_1  and  C_2
REMARK    2  A    between atoms: C_8  and  C_37
REMARK    3  A    between atoms: C_9  and  O_36
REMARK    4  A    between atoms: C_19  and  C_21
REMARK    5  A    between atoms: C_21  and  N_22
REMARK    6  A    between atoms: N_22  and  C_23
REMARK    7  A    between atoms: N_22  and  C_24
REMARK    8  A    between atoms: C_24  and  C_26
REMARK    9  A    between atoms: C_24  and  C_27
REMARK   10  A    between atoms: C_27  and  C_29
REMARK   11  A    between atoms: C_27  and  O_35
REMARK                            x       y       z     vdW  Elec       q    Type
REMARK                         _______ _______ _______ _____ _____    ______ ____
ROOT
ATOM      1  C   UNL     1       0.073   1.674   0.630  0.00  0.00    +0.008 C 
ATOM      2  C   UNL     1       0.177   0.173   0.353  0.00  0.00    -0.001 C 
ATOM      3  C   UNL     1      -1.216  -0.378   0.052  0.00  0.00    +0.008 C 
ATOM      4  C   UNL     1      -2.116  -0.105   1.262  0.00  0.00    +0.027 C 
ATOM      5  C   UNL     1      -1.500  -0.759   2.469  0.00  0.00    -0.027 C 
ATOM      6  C   UNL     1      -0.219  -0.939   2.583  0.00  0.00    -0.061 C 
ATOM      7  C   UNL     1       0.791  -0.513   1.557  0.00  0.00    +0.018 C 
ATOM      8  C   UNL     1       1.586  -1.746   1.135  0.00  0.00    +0.132 C 
ATOM      9  C   UNL     1       2.266  -2.392   2.346  0.00  0.00    +0.071 C 
ATOM     10  C   UNL     1       1.244  -2.736   3.445  0.00  0.00    +0.187 C 
ATOM     11  C   UNL     1       0.326  -1.623   3.822  0.00  0.00    +0.076 C 
ATOM     12  O   UNL     1       0.550  -3.873   2.924  0.00  0.00    -0.460 OA
ATOM     13  C   UNL     1       1.474  -4.680   2.354  0.00  0.00    +0.309 C 
ATOM     14  O   UNL     1       1.377  -5.877   2.226  0.00  0.00    -0.251 OA
ATOM     15  C   UNL     1       2.674  -3.829   1.895  0.00  0.00    +0.090 C 
ATOM     16  C   UNL     1       1.764   0.463   2.221  0.00  0.00    +0.018 C 
ENDROOT
BRANCH   8  17
ATOM     17  O   UNL     1       2.584  -1.361   0.187  0.00  0.00    -0.391 OA
ATOM     18  H   UNL     1       3.130  -2.094  -0.128  0.00  0.00    +0.210 HD
ENDBRANCH   8  17
BRANCH  15  19
ATOM     19  C   UNL     1       3.958  -4.270   2.599  0.00  0.00    -0.064 C 
BRANCH  19  20
ATOM     20  N   UNL     1       4.385  -5.572   2.070  0.00  0.00    +0.382 N 
ATOM     21  C   UNL     1       4.748  -5.430   0.654  0.00  0.00    -0.096 C 
ATOM     22  H   UNL     1       3.630  -6.235   2.159  0.00  0.00    -0.082 HD
BRANCH  20  23
ATOM     23  C   UNL     1       5.549  -6.051   2.828  0.00  0.00    -0.038 C 
ATOM     24  C   UNL     1       5.191  -6.135   4.313  0.00  0.00    -0.010 C 
BRANCH  23  25
ATOM     25  C   UNL     1       5.952  -7.437   2.322  0.00  0.00    +0.131 C 
BRANCH  25  26
ATOM     26  C   UNL     1       4.782  -8.378   2.448  0.00  0.00    -0.021 A 
ATOM     27  C   UNL     1       4.540  -9.023   3.647  0.00  0.00    +0.006 A 
ATOM     28  C   UNL     1       3.466  -9.886   3.762  0.00  0.00    +0.000 A 
ATOM     29  C   UNL     1       2.634 -10.104   2.680  0.00  0.00    +0.000 A 
ATOM     30  C   UNL     1       2.876  -9.458   1.482  0.00  0.00    +0.000 A 
ATOM     31  C   UNL     1       3.947  -8.592   1.367  0.00  0.00    +0.006 A 
ENDBRANCH  25  26
BRANCH  25  32
ATOM     32  O   UNL     1       7.045  -7.929   3.100  0.00  0.00    -0.389 OA
ATOM     33  H   UNL     1       6.849  -8.016   4.043  0.00  0.00    +0.210 HD
ENDBRANCH  25  32
ENDBRANCH  23  25
ENDBRANCH  20  23
ENDBRANCH  19  20
ENDBRANCH  15  19
TORSDOF 7
