REMARK  Name = ZINC39685790
REMARK  12 active torsions:
REMARK  status: ('A' for Active; 'I' for Inactive)
REMARK    1  A    between atoms: C_1  and  C_2
REMARK    2  A    between atoms: C_5  and  C_9
REMARK    3  A    between atoms: C_13  and  C_22
REMARK    4  A    between atoms: N_24  and  C_25
REMARK    5  A    between atoms: C_25  and  C_27
REMARK    6  A    between atoms: C_25  and  C_30
REMARK    7  A    between atoms: C_27  and  C_28
REMARK    8  A    between atoms: C_27  and  C_29
REMARK    9  A    between atoms: N_32  and  C_33
REMARK   10  A    between atoms: C_33  and  C_34
REMARK   11  A    between atoms: C_33  and  C_35
REMARK   12  A    between atoms: C_33  and  C_36
REMARK                            x       y       z     vdW  Elec       q    Type
REMARK                         _______ _______ _______ _____ _____    ______ ____
ROOT
ATOM      1  C   UNL     1       2.561  -5.460   0.416  0.00  0.00    +0.247 C 
ATOM      2  O   UNL     1       2.983  -6.234  -0.420  0.00  0.00    -0.270 OA
ATOM      3  N   UNL     1       2.352  -5.880   1.679  0.00  0.00    -0.296 N 
ATOM      4  C   UNL     1       1.730  -5.130   2.795  0.00  0.00    +0.121 C 
ATOM      5  C   UNL     1       0.864  -6.174   3.534  0.00  0.00    +0.100 C 
ATOM      6  C   UNL     1       1.501  -7.530   3.184  0.00  0.00    -0.004 C 
ATOM      7  C   UNL     1       2.686  -7.201   2.264  0.00  0.00    +0.115 C 
ATOM      8  C   UNL     1       1.992  -8.226   4.450  0.00  0.00    -0.010 C 
ATOM      9  C   UNL     1       2.568  -9.596   4.084  0.00  0.00    -0.082 C 
ATOM     10  N   UNL     1       1.534 -10.404   3.427  0.00  0.00    +0.379 N 
ATOM     11  C   UNL     1       1.134  -9.774   2.162  0.00  0.00    -0.082 C 
ATOM     12  C   UNL     1       0.497  -8.411   2.448  0.00  0.00    -0.010 C 
ATOM     13  H   UNL     1       1.897 -11.327   3.241  0.00  0.00    -0.086 HD
ATOM     14  H   UNL     1       0.731 -10.478   4.033  0.00  0.00    -0.086 HD
ENDROOT
BRANCH   1  19
ATOM     15  C   UNL     1       1.458   0.006  -1.014  0.00  0.00    +0.047 C 
ATOM     16  C   UNL     1       1.746  -1.425  -0.640  0.00  0.00    -0.015 A 
ATOM     17  C   UNL     1       1.982  -1.758   0.682  0.00  0.00    +0.007 A 
ATOM     18  C   UNL     1       2.247  -3.066   1.031  0.00  0.00    +0.013 A 
ATOM     19  C   UNL     1       2.277  -4.056   0.047  0.00  0.00    +0.040 A 
ATOM     20  C   UNL     1       2.038  -3.717  -1.285  0.00  0.00    +0.051 A 
ATOM     21  C   UNL     1       1.769  -2.404  -1.621  0.00  0.00    +0.127 A 
ATOM     22  F   UNL     1       1.532  -2.072  -2.910  0.00  0.00    -0.205 F 
ENDBRANCH   1  19
BRANCH   5  23
ATOM     23  C   UNL     1       0.912  -5.938   5.022  0.00  0.00    +0.219 C 
ATOM     24  O   UNL     1       1.887  -5.418   5.522  0.00  0.00    -0.275 OA
ATOM     25  N   UNL     1      -0.129  -6.304   5.796  0.00  0.00    -0.303 N 
ATOM     26  H   UNL     1      -0.908  -6.720   5.396  0.00  0.00    +0.149 HD
BRANCH  25  27
ATOM     27  C   UNL     1      -0.082  -6.074   7.242  0.00  0.00    +0.161 C 
BRANCH  27  28
ATOM     28  C   UNL     1      -0.989  -7.057   7.936  0.00  0.00    +0.234 C 
ATOM     29  O   UNL     1      -1.856  -7.630   7.310  0.00  0.00    -0.274 OA
ATOM     30  N   UNL     1      -0.838  -7.300   9.253  0.00  0.00    -0.309 N 
ATOM     31  H   UNL     1      -0.192  -6.792   9.769  0.00  0.00    +0.149 HD
BRANCH  30  32
ATOM     32  C   UNL     1      -1.649  -8.330   9.906  0.00  0.00    +0.026 C 
ATOM     33  C   UNL     1      -1.381  -9.684   9.248  0.00  0.00    +0.031 C 
ATOM     34  C   UNL     1      -1.283  -8.403  11.390  0.00  0.00    +0.031 C 
ATOM     35  C   UNL     1      -3.131  -7.979   9.764  0.00  0.00    +0.031 C 
ENDBRANCH  30  32
ENDBRANCH  27  28
BRANCH  27  36
ATOM     36  C   UNL     1      -0.547  -4.649   7.547  0.00  0.00    +0.012 C 
ATOM     37  C   UNL     1       0.440  -3.650   6.940  0.00  0.00    +0.009 C 
ATOM     38  C   UNL     1      -1.935  -4.424   6.943  0.00  0.00    +0.009 C 
ENDBRANCH  27  36
ENDBRANCH  25  27
ENDBRANCH   5  23
TORSDOF 6
