REMARK  Name = ZINC40008416
REMARK  13 active torsions:
REMARK  status: ('A' for Active; 'I' for Inactive)
REMARK    1  A    between atoms: C_1  and  C_2
REMARK    2  A    between atoms: C_2  and  N_3
REMARK    3  A    between atoms: N_3  and  C_4
REMARK    4  A    between atoms: N_3  and  C_6
REMARK    5  A    between atoms: C_4  and  C_5
REMARK    6  A    between atoms: C_6  and  C_7
REMARK    7  A    between atoms: C_7  and  C_8
REMARK    8  A    between atoms: C_8  and  N_9
REMARK    9  A    between atoms: C_10  and  C_26
REMARK   10  A    between atoms: C_17  and  C_25
REMARK   11  A    between atoms: C_30  and  O_32
REMARK   12  A    between atoms: O_32  and  C_33
REMARK   13  A    between atoms: C_33  and  C_34
REMARK                            x       y       z     vdW  Elec       q    Type
REMARK                         _______ _______ _______ _____ _____    ______ ____
ROOT
ATOM      1  N   UNL     1      -4.267  -4.657   0.103  0.00  0.00    -0.284 N 
ATOM      2  C   UNL     1      -5.231  -4.811   1.204  0.00  0.00    +0.145 C 
ATOM      3  C   UNL     1      -6.473  -5.363   0.585  0.00  0.00    +0.072 A 
ATOM      4  C   UNL     1      -7.764  -5.733   1.173  0.00  0.00    +0.199 A 
ATOM      5  O   UNL     1      -8.076  -5.465   2.320  0.00  0.00    -0.287 OA
ATOM      6  C   UNL     1      -8.656  -6.464   0.238  0.00  0.00    +0.065 A 
ATOM      7  C   UNL     1      -9.831  -7.056   0.699  0.00  0.00    +0.018 A 
ATOM      8  C   UNL     1     -10.639  -7.731  -0.173  0.00  0.00    -0.050 A 
ATOM      9  C   UNL     1     -10.292  -7.827  -1.514  0.00  0.00    +0.007 A 
ATOM     10  C   UNL     1      -9.137  -7.247  -1.987  0.00  0.00    +0.047 A 
ATOM     11  C   UNL     1      -8.297  -6.551  -1.117  0.00  0.00    +0.139 A 
ATOM     12  O   UNL     1      -7.172  -5.981  -1.606  0.00  0.00    -0.450 OA
ATOM     13  C   UNL     1      -6.241  -5.508  -0.754  0.00  0.00    +0.199 A 
ATOM     14  C   UNL     1      -4.865  -5.062  -1.036  0.00  0.00    +0.283 C 
ATOM     15  O   UNL     1      -4.346  -5.061  -2.134  0.00  0.00    -0.267 OA
ATOM     16  C   UNL     1     -11.910  -8.372   0.322  0.00  0.00    +0.044 C 
ENDROOT
BRANCH   2  17
ATOM     17  C   UNL     1      -5.515  -3.473   1.837  0.00  0.00    -0.019 A 
ATOM     18  C   UNL     1      -5.655  -2.349   1.042  0.00  0.00    +0.006 A 
ATOM     19  C   UNL     1      -5.915  -1.120   1.619  0.00  0.00    +0.004 A 
ATOM     20  C   UNL     1      -6.036  -1.011   2.992  0.00  0.00    +0.045 A 
ATOM     21  C   UNL     1      -5.897  -2.137   3.790  0.00  0.00    +0.121 A 
ATOM     22  C   UNL     1      -5.641  -3.370   3.208  0.00  0.00    +0.051 A 
BRANCH  21  23
ATOM     23  O   UNL     1      -6.016  -2.033   5.140  0.00  0.00    -0.488 OA
BRANCH  23  24
ATOM     24  C   UNL     1      -6.285  -0.733   5.669  0.00  0.00    +0.256 C 
BRANCH  24  25
ATOM     25  C   UNL     1      -6.382  -0.812   7.171  0.00  0.00    +0.006 C 
ATOM     26  C   UNL     1      -5.779   0.082   7.915  0.00  0.00    +0.007 C 
ENDBRANCH  24  25
ENDBRANCH  23  24
ENDBRANCH  21  23
ENDBRANCH   2  17
BRANCH   1  27
ATOM     27  C   UNL     1      -2.898  -4.149   0.222  0.00  0.00    +0.107 C 
BRANCH  27  28
ATOM     28  C   UNL     1      -2.901  -2.630   0.038  0.00  0.00    +0.000 C 
BRANCH  28  29
ATOM     29  C   UNL     1      -1.471  -2.099   0.162  0.00  0.00    -0.077 C 
BRANCH  29  30
ATOM     30  N   UNL     1      -1.456  -0.660  -0.136  0.00  0.00    +0.379 N 
ATOM     31  H   UNL     1      -1.869  -0.500  -1.042  0.00  0.00    -0.082 HD
BRANCH  30  33
ATOM     32  C   UNL     1      -2.314   1.540   0.511  0.00  0.00    -0.017 C 
ATOM     33  C   UNL     1      -2.225   0.060   0.888  0.00  0.00    -0.082 C 
ENDBRANCH  30  33
BRANCH  30  34
ATOM     34  C   UNL     1      -0.069  -0.175  -0.137  0.00  0.00    -0.082 C 
ATOM     35  C   UNL     1       0.691  -0.808  -1.304  0.00  0.00    -0.017 C 
ENDBRANCH  30  34
ENDBRANCH  29  30
ENDBRANCH  28  29
ENDBRANCH  27  28
ENDBRANCH   1  27
TORSDOF 10
