REMARK  Name = ZINC36545121
REMARK  8 active torsions:
REMARK  status: ('A' for Active; 'I' for Inactive)
REMARK    1  A    between atoms: C_1  and  C_2
REMARK    2  A    between atoms: C_5  and  C_8
REMARK    3  A    between atoms: C_8  and  C_10
REMARK    4  A    between atoms: C_8  and  N_19
REMARK    5  A    between atoms: N_12  and  C_13
REMARK    6  A    between atoms: N_19  and  C_20
REMARK    7  A    between atoms: C_27  and  C_29
REMARK    8  A    between atoms: C_32  and  O_35
REMARK                            x       y       z     vdW  Elec       q    Type
REMARK                         _______ _______ _______ _____ _____    ______ ____
ROOT
ATOM      1  C   UNL     1      -0.209  -4.509   0.373  0.00  0.00    +0.197 C 
ENDROOT
BRANCH   1   6
ATOM      2  C   UNL     1      -1.744   0.887   1.758  0.00  0.00    +0.044 C 
ATOM      3  C   UNL     1      -1.344  -0.520   1.397  0.00  0.00    -0.050 A 
ATOM      4  C   UNL     1      -1.101  -1.447   2.393  0.00  0.00    +0.004 A 
ATOM      5  C   UNL     1      -0.734  -2.738   2.062  0.00  0.00    +0.006 A 
ATOM      6  C   UNL     1      -0.610  -3.102   0.734  0.00  0.00    -0.018 A 
ATOM      7  C   UNL     1      -0.854  -2.175  -0.262  0.00  0.00    +0.006 A 
ATOM      8  C   UNL     1      -1.225  -0.885   0.069  0.00  0.00    +0.004 A 
ENDBRANCH   1   6
BRANCH   1   9
ATOM      9  C   UNL     1      -1.298  -5.464   0.788  0.00  0.00    +0.239 C 
ATOM     10  O   UNL     1      -1.060  -6.347   1.584  0.00  0.00    -0.273 OA
ATOM     11  N   UNL     1      -2.538  -5.337   0.274  0.00  0.00    -0.311 N 
ATOM     12  H   UNL     1      -2.728  -4.630  -0.363  0.00  0.00    +0.149 HD
BRANCH  11  13
ATOM     13  C   UNL     1      -3.597  -6.265   0.677  0.00  0.00    +0.073 C 
ATOM     14  C   UNL     1      -3.526  -7.526  -0.188  0.00  0.00    +0.022 C 
ATOM     15  C   UNL     1      -4.633  -8.495   0.234  0.00  0.00    +0.002 C 
ATOM     16  C   UNL     1      -5.996  -7.825   0.049  0.00  0.00    +0.000 C 
ATOM     17  C   UNL     1      -6.066  -6.565   0.914  0.00  0.00    +0.002 C 
ATOM     18  C   UNL     1      -4.960  -5.595   0.492  0.00  0.00    +0.022 C 
ENDBRANCH  11  13
ENDBRANCH   1   9
BRANCH   1  19
ATOM     19  N   UNL     1       1.034  -4.855   1.066  0.00  0.00    -0.250 N 
ATOM     20  C   UNL     1       1.666  -6.011   0.780  0.00  0.00    +0.252 C 
ATOM     21  O   UNL     1       1.164  -6.802   0.005  0.00  0.00    -0.270 OA
BRANCH  19  22
ATOM     22  C   UNL     1       1.566  -3.986   2.025  0.00  0.00    +0.056 A 
ATOM     23  C   UNL     1       2.133  -2.780   1.634  0.00  0.00    +0.025 A 
ATOM     24  C   UNL     1       2.657  -1.925   2.583  0.00  0.00    +0.002 A 
ATOM     25  C   UNL     1       2.618  -2.268   3.922  0.00  0.00    +0.002 A 
ATOM     26  C   UNL     1       2.055  -3.467   4.316  0.00  0.00    +0.022 A 
ATOM     27  C   UNL     1       1.523  -4.326   3.372  0.00  0.00    +0.062 A 
ATOM     28 CL   UNL     1       0.810  -5.829   3.868  0.00  0.00    -0.082 Cl
ENDBRANCH  19  22
BRANCH  20  29
ATOM     29  C   UNL     1       2.967  -6.316   1.407  0.00  0.00    +0.037 A 
ATOM     30  C   UNL     1       3.316  -7.639   1.688  0.00  0.00    +0.016 A 
ATOM     31  C   UNL     1       4.530  -7.920   2.273  0.00  0.00    +0.046 A 
ATOM     32  C   UNL     1       5.409  -6.889   2.583  0.00  0.00    +0.117 A 
ATOM     33  C   UNL     1       5.066  -5.571   2.305  0.00  0.00    +0.046 A 
ATOM     34  C   UNL     1       3.855  -5.282   1.715  0.00  0.00    +0.016 A 
BRANCH  32  35
ATOM     35  O   UNL     1       6.605  -7.169   3.159  0.00  0.00    -0.507 OA
ATOM     36  H   UNL     1       7.320  -7.324   2.526  0.00  0.00    +0.292 HD
ENDBRANCH  32  35
ENDBRANCH  20  29
ENDBRANCH   1  19
TORSDOF 7
