REMARK  Name = ZINC12651612
REMARK  6 active torsions:
REMARK  status: ('A' for Active; 'I' for Inactive)
REMARK    1  A    between atoms: C_1  and  C_2
REMARK    2  A    between atoms: C_3  and  C_24
REMARK    3  A    between atoms: C_4  and  N_14
REMARK    4  A    between atoms: C_6  and  C_8
REMARK    5  A    between atoms: N_14  and  N_15
REMARK    6  A    between atoms: C_24  and  C_25
REMARK                            x       y       z     vdW  Elec       q    Type
REMARK                         _______ _______ _______ _____ _____    ______ ____
ROOT
ATOM      1  C   UNL     1       2.395   0.092   2.561  0.00  0.00    +0.066 C 
ATOM      2  C   UNL     1       1.880  -1.310   2.366  0.00  0.00    +0.047 A 
ATOM      3  C   UNL     1       1.369  -1.702   1.144  0.00  0.00    +0.018 A 
ATOM      4  C   UNL     1       0.906  -3.015   1.004  0.00  0.00    +0.142 A 
ATOM      5  N   UNL     1       0.969  -3.835   2.049  0.00  0.00    -0.211 NA
ATOM      6  C   UNL     1       1.462  -3.417   3.206  0.00  0.00    +0.162 A 
ATOM      7  N   UNL     1       1.907  -2.179   3.366  0.00  0.00    -0.232 NA
ENDROOT
BRANCH   6   8
ATOM      8  C   UNL     1       1.517  -4.359   4.351  0.00  0.00    +0.019 A 
ATOM      9  C   UNL     1       2.037  -3.942   5.575  0.00  0.00    +0.011 A 
ATOM     10  C   UNL     1       2.080  -4.821   6.638  0.00  0.00    +0.001 A 
ATOM     11  C   UNL     1       1.620  -6.116   6.487  0.00  0.00    +0.000 A 
ATOM     12  C   UNL     1       1.108  -6.537   5.273  0.00  0.00    +0.001 A 
ATOM     13  C   UNL     1       1.054  -5.665   4.205  0.00  0.00    +0.011 A 
ENDBRANCH   6   8
BRANCH   4  14
ATOM     14  N   UNL     1       0.392  -3.453  -0.202  0.00  0.00    -0.248 N 
ATOM     15  H   UNL     1       0.345  -2.767  -1.061  0.00  0.00    +0.172 HD
BRANCH  14  16
ATOM     16  N   UNL     1      -0.069  -4.770  -0.330  0.00  0.00    -0.236 N 
ATOM     17  C   UNL     1      -0.552  -5.181  -1.464  0.00  0.00    +0.193 A 
ATOM     18  N   UNL     1      -0.618  -4.316  -2.548  0.00  0.00    -0.295 N 
ATOM     19  C   UNL     1      -1.394  -4.600  -3.604  0.00  0.00    +0.256 A 
ATOM     20  O   UNL     1      -1.411  -3.838  -4.548  0.00  0.00    -0.268 OA
ATOM     21  C   UNL     1      -2.247  -5.834  -3.647  0.00  0.00    +0.140 A 
ATOM     22  C   UNL     1      -1.802  -6.834  -2.619  0.00  0.00    +0.256 A 
ATOM     23  O   UNL     1      -2.168  -7.986  -2.719  0.00  0.00    -0.268 OA
ATOM     24  N   UNL     1      -1.009  -6.487  -1.593  0.00  0.00    -0.295 N 
ATOM     25  H   UNL     1      -0.029  -3.386  -2.546  0.00  0.00    +0.172 HD
ATOM     26  H   UNL     1      -0.721  -7.246  -0.851  0.00  0.00    +0.172 HD
ATOM     27  H   UNL     1      -0.021  -5.455   0.529  0.00  0.00    +0.173 HD
ENDBRANCH  14  16
ENDBRANCH   4  14
BRANCH   3  28
ATOM     28  C   UNL     1       1.317  -0.740  -0.015  0.00  0.00    +0.067 C 
BRANCH  28  29
ATOM     29  C   UNL     1       0.002  -0.004   0.002  0.00  0.00    -0.030 C 
ATOM     30  C   UNL     1      -0.016   1.306   0.009  0.00  0.00    +0.004 C 
ENDBRANCH  28  29
ENDBRANCH   3  28
TORSDOF 5
