REMARK  Name = ZINC14383073
REMARK  7 active torsions:
REMARK  status: ('A' for Active; 'I' for Inactive)
REMARK    1  A    between atoms: C_4  and  C_7
REMARK    2  A    between atoms: C_7  and  N_8
REMARK    3  A    between atoms: C_9  and  N_36
REMARK    4  A    between atoms: C_10  and  N_17
REMARK    5  A    between atoms: N_17  and  C_18
REMARK    6  A    between atoms: C_18  and  C_19
REMARK    7  A    between atoms: C_25  and  C_27
REMARK                            x       y       z     vdW  Elec       q    Type
REMARK                         _______ _______ _______ _____ _____    ______ ____
ROOT
ATOM      1  N   UNL     1       7.003   0.890  -2.481  0.00  0.00    -0.276 N 
ATOM      2  C   UNL     1       6.199   0.061  -1.734  0.00  0.00    +0.128 A 
ATOM      3  C   UNL     1       4.895  -0.152  -2.133  0.00  0.00    +0.140 A 
ATOM      4  C   UNL     1       4.425   0.497  -3.291  0.00  0.00    +0.277 A 
ATOM      5  O   UNL     1       3.276   0.331  -3.664  0.00  0.00    -0.266 OA
ATOM      6  N   UNL     1       5.253   1.303  -3.983  0.00  0.00    -0.273 N 
ATOM      7  H   UNL     1       4.920   1.765  -4.806  0.00  0.00    +0.173 HD
ATOM      8  C   UNL     1       6.522   1.494  -3.582  0.00  0.00    +0.331 A 
ATOM      9  O   UNL     1       7.248   2.228  -4.226  0.00  0.00    -0.246 OA
ENDROOT
BRANCH   3  10
ATOM     10  N   UNL     1       4.046  -1.000  -1.392  0.00  0.00    -0.253 N 
ATOM     11  C   UNL     1       3.603  -2.151  -1.934  0.00  0.00    +0.287 C 
ATOM     12  O   UNL     1       3.860  -2.416  -3.094  0.00  0.00    -0.266 OA
BRANCH  11  13
ATOM     13  C   UNL     1       2.808  -3.086  -1.126  0.00  0.00    +0.191 A 
ATOM     14  C   UNL     1       2.359  -4.296  -1.546  0.00  0.00    +0.063 A 
ATOM     15  C   UNL     1       1.623  -4.869  -0.420  0.00  0.00    +0.021 A 
ATOM     16  C   UNL     1       0.934  -6.067  -0.215  0.00  0.00    +0.011 A 
ATOM     17  C   UNL     1       0.336  -6.307   0.990  0.00  0.00    +0.001 A 
ATOM     18  C   UNL     1       0.410  -5.369   2.011  0.00  0.00    +0.004 A 
ATOM     19  C   UNL     1       1.085  -4.182   1.829  0.00  0.00    +0.047 A 
ATOM     20  C   UNL     1       1.700  -3.915   0.611  0.00  0.00    +0.136 A 
ATOM     21  O   UNL     1       2.419  -2.873   0.149  0.00  0.00    -0.450 OA
ENDBRANCH  11  13
BRANCH  10  22
ATOM     22  C   UNL     1       3.648  -0.629  -0.032  0.00  0.00    +0.149 C 
BRANCH  22  23
ATOM     23  C   UNL     1       2.381   0.186  -0.084  0.00  0.00    -0.030 A 
ATOM     24  C   UNL     1       1.154  -0.447  -0.150  0.00  0.00    +0.005 A 
ATOM     25  C   UNL     1      -0.008   0.300  -0.198  0.00  0.00    +0.000 A 
ATOM     26  C   UNL     1       0.058   1.681  -0.179  0.00  0.00    +0.000 A 
ATOM     27  C   UNL     1       1.285   2.314  -0.112  0.00  0.00    +0.000 A 
ATOM     28  C   UNL     1       2.446   1.567  -0.065  0.00  0.00    +0.005 A 
ENDBRANCH  22  23
ENDBRANCH  10  22
ENDBRANCH   3  10
BRANCH   2  29
ATOM     29  N   UNL     1       6.689  -0.552  -0.605  0.00  0.00    -0.343 N 
ATOM     30  H   UNL     1       6.141  -1.193  -0.125  0.00  0.00    +0.144 HD
ATOM     31  H   UNL     1       7.582  -0.344  -0.289  0.00  0.00    +0.144 HD
ENDBRANCH   2  29
BRANCH   1  32
ATOM     32  C   UNL     1       8.391   1.120  -2.071  0.00  0.00    +0.163 C 
BRANCH  32  36
ATOM     33  C   UNL     1       8.560   4.478   0.564  0.00  0.00    +0.000 A 
ATOM     34  C   UNL     1       8.377   3.207   1.075  0.00  0.00    +0.000 A 
ATOM     35  C   UNL     1       8.322   2.120   0.222  0.00  0.00    +0.005 A 
ATOM     36  C   UNL     1       8.450   2.305  -1.142  0.00  0.00    -0.028 A 
ATOM     37  C   UNL     1       8.639   3.575  -1.653  0.00  0.00    +0.005 A 
ATOM     38  C   UNL     1       8.689   4.663  -0.800  0.00  0.00    +0.000 A 
ENDBRANCH  32  36
ENDBRANCH   1  32
TORSDOF 7
