REMARK  Name = ZINC09545105
REMARK  6 active torsions:
REMARK  status: ('A' for Active; 'I' for Inactive)
REMARK    1  A    between atoms: C_4  and  O_9
REMARK    2  A    between atoms: C_5  and  C_7
REMARK    3  A    between atoms: O_9  and  C_10
REMARK    4  A    between atoms: C_10  and  C_11
REMARK    5  A    between atoms: N_13  and  N_14
REMARK    6  A    between atoms: C_15  and  C_17
REMARK                            x       y       z     vdW  Elec       q    Type
REMARK                         _______ _______ _______ _____ _____    ______ ____
ROOT
ATOM      1  N   UNL     1       4.292   9.799  -2.049  0.00  0.00    -0.230 N 
ATOM      2  C   UNL     1       3.075   9.353  -1.677  0.00  0.00    +0.260 C 
ATOM      3  O   UNL     1       2.120  10.104  -1.698  0.00  0.00    -0.269 OA
ATOM      4  H   UNL     1       5.054   9.199  -2.033  0.00  0.00    +0.173 HD
ENDROOT
BRANCH   2   5
ATOM      5  C   UNL     1       2.902   7.948  -1.244  0.00  0.00    +0.040 A 
ATOM      6  C   UNL     1       3.998   7.083  -1.218  0.00  0.00    +0.014 A 
ATOM      7  C   UNL     1       3.836   5.778  -0.815  0.00  0.00    +0.014 A 
ATOM      8  C   UNL     1       2.573   5.310  -0.426  0.00  0.00    +0.048 A 
ATOM      9  C   UNL     1       1.482   6.176  -0.454  0.00  0.00    +0.105 A 
ATOM     10  C   UNL     1       1.644   7.485  -0.858  0.00  0.00    +0.041 A 
ATOM     11  S   UNL     1      -0.116   5.609   0.028  0.00  0.00    +0.026 S 
ATOM     12  O   UNL     1      -0.297   6.006   1.380  0.00  0.00    -0.164 OA
ATOM     13  O   UNL     1      -1.012   5.994  -1.006  0.00  0.00    -0.164 OA
ATOM     14  C   UNL     1      -0.065   3.849   0.021  0.00  0.00    +0.104 A 
ATOM     15  C   UNL     1      -1.245   3.132   0.030  0.00  0.00    +0.028 A 
ATOM     16  C   UNL     1      -1.222   1.750   0.017  0.00  0.00    +0.002 A 
ATOM     17  C   UNL     1      -0.013   1.076   0.008  0.00  0.00    +0.001 A 
ATOM     18  C   UNL     1       1.172   1.779   0.000  0.00  0.00    +0.013 A 
ATOM     19  C   UNL     1       1.158   3.180   0.008  0.00  0.00    +0.047 A 
ATOM     20  C   UNL     1       2.434   3.908   0.004  0.00  0.00    +0.197 C 
ATOM     21  O   UNL     1       3.431   3.321   0.376  0.00  0.00    -0.287 OA
ENDBRANCH   2   5
BRANCH   1  24
ATOM     22  C   UNL     1       5.671  11.574  -2.832  0.00  0.00    +0.267 C 
ATOM     23  O   UNL     1       6.624  10.824  -2.811  0.00  0.00    -0.271 OA
ATOM     24  N   UNL     1       4.455  11.128  -2.460  0.00  0.00    -0.231 N 
ATOM     25  H   UNL     1       3.693  11.728  -2.477  0.00  0.00    +0.173 HD
BRANCH  22  26
ATOM     26  C   UNL     1       5.847  13.004  -3.274  0.00  0.00    +0.326 C 
BRANCH  26  27
ATOM     27  O   UNL     1       7.216  13.232  -3.615  0.00  0.00    -0.481 OA
BRANCH  27  31
ATOM     28  C   UNL     1       8.221  17.032  -4.896  0.00  0.00    +0.001 A 
ATOM     29  C   UNL     1       6.913  16.734  -4.548  0.00  0.00    +0.004 A 
ATOM     30  C   UNL     1       6.575  15.464  -4.125  0.00  0.00    +0.047 A 
ATOM     31  C   UNL     1       7.547  14.479  -4.035  0.00  0.00    +0.138 A 
ATOM     32  C   UNL     1       8.871  14.776  -4.387  0.00  0.00    +0.093 A 
ATOM     33  C   UNL     1       9.198  16.064  -4.819  0.00  0.00    +0.022 A 
BRANCH  32  34
ATOM     34  C   UNL     1       9.882  13.765  -4.304  0.00  0.00    +0.103 C 
ATOM     35  N   UNL     1      10.683  12.963  -4.239  0.00  0.00    -0.191 NA
ENDBRANCH  32  34
ENDBRANCH  27  31
ENDBRANCH  26  27
ENDBRANCH  22  26
ENDBRANCH   1  24
TORSDOF 6
