REMARK  Name = ZINC12140154
REMARK  10 active torsions:
REMARK  status: ('A' for Active; 'I' for Inactive)
REMARK    1  A    between atoms: C_1  and  C_2
REMARK    2  A    between atoms: C_2  and  O_3
REMARK    3  A    between atoms: O_3  and  C_4
REMARK    4  A    between atoms: C_11  and  C_12
REMARK    5  A    between atoms: C_11  and  N_70
REMARK    6  A    between atoms: C_12  and  C_14
REMARK    7  A    between atoms: C_12  and  O_32
REMARK    8  A    between atoms: C_14  and  O_15
REMARK    9  A    between atoms: O_15  and  C_16
REMARK   10  A    between atoms: C_19  and  C_22
REMARK                            x       y       z     vdW  Elec       q    Type
REMARK                         _______ _______ _______ _____ _____    ______ ____
ROOT
ATOM      1  C   UNL     1      -0.729   1.579   1.267  0.00  0.00    +0.258 C 
ENDROOT
BRANCH   1   2
ATOM      2  C   UNL     1      -0.013   1.086   0.008  0.00  0.00    +0.135 C 
BRANCH   2   3
ATOM      3  O   UNL     1      -0.704   1.559  -1.150  0.00  0.00    -0.390 OA
ATOM      4  H   UNL     1      -0.756   2.523  -1.210  0.00  0.00    +0.210 HD
ENDBRANCH   2   3
BRANCH   2   5
ATOM      5  C   UNL     1       1.423   1.615  -0.003  0.00  0.00    -0.044 C 
BRANCH   5  13
ATOM      6  C   UNL     1       5.189  -0.671  -3.170  0.00  0.00    +0.403 C 
ATOM      7  O   UNL     1       6.195  -0.032  -3.406  0.00  0.00    -0.226 OA
ATOM      8  N   UNL     1       4.051  -0.035  -2.828  0.00  0.00    -0.271 N 
ATOM      9  C   UNL     1       4.005   1.432  -2.736  0.00  0.00    +0.092 C 
ATOM     10  C   UNL     1       3.405   1.816  -1.379  0.00  0.00    -0.059 C 
ATOM     11  C   UNL     1       2.269  -0.319  -1.189  0.00  0.00    -0.059 C 
ATOM     12  C   UNL     1       2.823  -0.790  -2.538  0.00  0.00    +0.092 C 
ATOM     13  N   UNL     1       2.092   1.149  -1.235  0.00  0.00    +0.383 N 
ATOM     14  H   UNL     1       1.506   1.389  -2.043  0.00  0.00    -0.082 HD
BRANCH   6  15
ATOM     15  O   UNL     1       5.212  -2.015  -3.248  0.00  0.00    -0.451 OA
BRANCH  15  17
ATOM     16  C   UNL     1       6.304  -4.153  -3.659  0.00  0.00    +0.048 C 
ATOM     17  C   UNL     1       6.472  -2.633  -3.622  0.00  0.00    +0.230 C 
ENDBRANCH  15  17
ENDBRANCH   6  15
ENDBRANCH   5  13
ENDBRANCH   2   5
ENDBRANCH   1   2
BRANCH   1  18
ATOM     18  O   UNL     1      -2.030   0.991   1.336  0.00  0.00    -0.489 OA
BRANCH  18  19
ATOM     19  C   UNL     1      -2.803   1.328   2.402  0.00  0.00    +0.121 A 
ATOM     20  C   UNL     1      -2.317   2.201   3.364  0.00  0.00    +0.046 A 
ATOM     21  C   UNL     1      -3.107   2.546   4.444  0.00  0.00    +0.008 A 
ATOM     22  C   UNL     1      -4.376   2.013   4.572  0.00  0.00    -0.041 A 
ATOM     23  C   UNL     1      -4.860   1.138   3.617  0.00  0.00    +0.008 A 
ATOM     24  C   UNL     1      -4.076   0.794   2.533  0.00  0.00    +0.046 A 
BRANCH  22  25
ATOM     25  C   UNL     1      -5.233   2.386   5.754  0.00  0.00    -0.003 C 
ATOM     26  C   UNL     1      -5.582   1.126   6.549  0.00  0.00    +0.015 C 
ATOM     27  C   UNL     1      -6.452   1.505   7.749  0.00  0.00    -0.010 C 
ATOM     28  C   UNL     1      -5.687   2.479   8.647  0.00  0.00    +0.007 C 
ATOM     29  C   UNL     1      -5.338   3.739   7.851  0.00  0.00    -0.010 C 
ATOM     30  C   UNL     1      -4.468   3.360   6.651  0.00  0.00    +0.015 C 
ATOM     31  C   UNL     1      -6.625   4.404   7.358  0.00  0.00    +0.007 C 
ATOM     32  C   UNL     1      -7.391   3.429   6.461  0.00  0.00    -0.010 C 
ATOM     33  C   UNL     1      -7.739   2.170   7.256  0.00  0.00    +0.007 C 
ATOM     34  C   UNL     1      -6.521   3.050   5.261  0.00  0.00    +0.015 C 
ENDBRANCH  22  25
ENDBRANCH  18  19
ENDBRANCH   1  18
TORSDOF 9
