REMARK  Name = ZINC12430965
REMARK  8 active torsions:
REMARK  status: ('A' for Active; 'I' for Inactive)
REMARK    1  A    between atoms: C_1  and  C_2
REMARK    2  A    between atoms: C_2  and  O_3
REMARK    3  A    between atoms: O_3  and  C_4
REMARK    4  A    between atoms: C_9  and  C_10
REMARK    5  A    between atoms: C_12  and  C_16
REMARK    6  A    between atoms: C_13  and  C_15
REMARK    7  A    between atoms: C_16  and  N_55
REMARK    8  A    between atoms: C_21  and  C_23
REMARK                            x       y       z     vdW  Elec       q    Type
REMARK                         _______ _______ _______ _____ _____    ______ ____
ROOT
ATOM      1  C   UNL     1      -5.156   5.254  -2.659  0.00  0.00    +0.231 A 
ATOM      2  N   UNL     1      -4.111   4.674  -2.115  0.00  0.00    -0.216 NA
ATOM      3  C   UNL     1      -4.189   3.353  -2.338  0.00  0.00    +0.066 A 
ATOM      4  C   UNL     1      -5.311   3.120  -3.043  0.00  0.00    +0.124 A 
ATOM      5  O   UNL     1      -5.917   4.309  -3.237  0.00  0.00    -0.440 OA
ATOM      6  C   UNL     1      -5.801   1.778  -3.523  0.00  0.00    +0.088 C 
ENDROOT
BRANCH   1  12
ATOM      7  C   UNL     1      -6.601   7.197  -3.258  0.00  0.00    +0.133 A 
ATOM      8  C   UNL     1      -6.864   8.558  -3.233  0.00  0.00    +0.046 A 
ATOM      9  C   UNL     1      -5.992   9.421  -2.599  0.00  0.00    +0.004 A 
ATOM     10  C   UNL     1      -4.849   8.935  -1.985  0.00  0.00    +0.001 A 
ATOM     11  C   UNL     1      -4.575   7.584  -1.997  0.00  0.00    +0.017 A 
ATOM     12  C   UNL     1      -5.446   6.702  -2.638  0.00  0.00    +0.078 A 
BRANCH   7  13
ATOM     13  O   UNL     1      -7.458   6.348  -3.880  0.00  0.00    -0.491 OA
BRANCH  13  15
ATOM     14  C   UNL     1      -9.454   5.822  -5.136  0.00  0.00    +0.048 C 
ATOM     15  C   UNL     1      -8.614   6.925  -4.490  0.00  0.00    +0.226 C 
ENDBRANCH  13  15
ENDBRANCH   7  13
ENDBRANCH   1  12
BRANCH   3  16
ATOM     16  C   UNL     1      -3.194   2.316  -1.886  0.00  0.00    -0.018 C 
BRANCH  16  22
ATOM     17  C   UNL     1      -4.847   1.090  -0.611  0.00  0.00    -0.077 C 
ATOM     18  C   UNL     1      -5.283   0.716   0.808  0.00  0.00    -0.019 C 
ATOM     19  C   UNL     1      -4.202  -0.153   1.456  0.00  0.00    -0.003 C 
ATOM     20  C   UNL     1      -2.876   0.612   1.457  0.00  0.00    -0.009 C 
ATOM     21  C   UNL     1      -2.509   0.989   0.020  0.00  0.00    -0.018 C 
ATOM     22  N   UNL     1      -3.577   1.845  -0.539  0.00  0.00    +0.389 N 
ATOM     23  H   UNL     1      -3.707   2.658   0.074  0.00  0.00    -0.080 HD
BRANCH  21  24
ATOM     24  C   UNL     1      -1.214   1.759   0.017  0.00  0.00    +0.028 A 
ATOM     25  C   UNL     1      -0.013   1.076   0.008  0.00  0.00    +0.021 A 
ATOM     26  C   UNL     1       1.173   1.794   0.001  0.00  0.00    +0.003 A 
ATOM     27  C   UNL     1       1.106   3.179   0.008  0.00  0.00    +0.020 A 
ATOM     28  C   UNL     1      -0.132   3.793   0.023  0.00  0.00    +0.111 A 
ATOM     29  N   UNL     1      -1.240   3.078   0.029  0.00  0.00    -0.262 NA
ENDBRANCH  21  24
ENDBRANCH  16  22
ENDBRANCH   3  16
TORSDOF 6
