REMARK  Name = ZINC40010280
REMARK  8 active torsions:
REMARK  status: ('A' for Active; 'I' for Inactive)
REMARK    1  A    between atoms: C_1  and  C_2
REMARK    2  A    between atoms: C_2  and  C_3
REMARK    3  A    between atoms: C_10  and  C_15
REMARK    4  A    between atoms: C_19  and  O_31
REMARK    5  A    between atoms: C_20  and  O_29
REMARK    6  A    between atoms: C_26  and  C_28
REMARK    7  A    between atoms: O_29  and  C_30
REMARK    8  A    between atoms: O_31  and  C_32
REMARK                            x       y       z     vdW  Elec       q    Type
REMARK                         _______ _______ _______ _____ _____    ______ ____
ROOT
ATOM      1  C   UNL     1      -6.598  -0.934  -2.940  0.00  0.00    +0.122 C 
ATOM      2  C   UNL     1      -8.048  -1.326  -3.082  0.00  0.00    -0.019 A 
ATOM      3  C   UNL     1      -8.809  -1.415  -1.923  0.00  0.00    +0.055 A 
ATOM      4  C   UNL     1     -10.141  -1.779  -1.984  0.00  0.00    +0.162 A 
ATOM      5  C   UNL     1     -10.721  -2.059  -3.217  0.00  0.00    +0.162 A 
ATOM      6  C   UNL     1      -9.961  -1.965  -4.368  0.00  0.00    +0.053 A 
ATOM      7  C   UNL     1      -8.623  -1.593  -4.304  0.00  0.00    -0.037 A 
ATOM      8  C   UNL     1      -7.868  -1.486  -5.603  0.00  0.00    +0.054 C 
ATOM      9  C   UNL     1      -6.360  -1.550  -5.362  0.00  0.00    +0.113 C 
ATOM     10  N   UNL     1      -6.039  -0.628  -4.261  0.00  0.00    -0.293 N 
ATOM     11  C   UNL     1      -5.261   0.454  -4.459  0.00  0.00    +0.213 C 
ATOM     12  O   UNL     1      -4.941   1.151  -3.519  0.00  0.00    -0.276 OA
ATOM     13  C   UNL     1      -4.788   0.798  -5.848  0.00  0.00    +0.109 C 
ENDROOT
BRANCH   1  21
ATOM     14  C   UNL     1      -4.304  -5.899  -4.975  0.00  0.00    -0.047 A 
ATOM     15  C   UNL     1      -3.004  -5.412  -4.836  0.00  0.00    +0.005 A 
ATOM     16  C   UNL     1      -2.716  -4.279  -4.143  0.00  0.00    +0.024 A 
ATOM     17  C   UNL     1      -3.742  -3.538  -3.527  0.00  0.00    +0.040 A 
ATOM     18  N   UNL     1      -3.448  -2.428  -2.850  0.00  0.00    -0.284 N 
ATOM     19  C   UNL     1      -4.362  -1.686  -2.248  0.00  0.00    +0.226 C 
ATOM     20  O   UNL     1      -4.033  -0.683  -1.645  0.00  0.00    -0.275 OA
ATOM     21  C   UNL     1      -5.818  -2.091  -2.312  0.00  0.00    +0.123 C 
ATOM     22  C   UNL     1      -6.157  -3.352  -3.081  0.00  0.00    -0.003 C 
ATOM     23  C   UNL     1      -5.125  -4.030  -3.658  0.00  0.00    -0.007 A 
ATOM     24  C   UNL     1      -5.364  -5.254  -4.423  0.00  0.00    +0.013 A 
ATOM     25  H   UNL     1      -2.520  -2.152  -2.797  0.00  0.00    +0.155 HD
BRANCH  14  27
ATOM     26  C   UNL     1      -4.772  -6.814  -7.232  0.00  0.00    +0.009 C 
ATOM     27  C   UNL     1      -4.537  -7.163  -5.761  0.00  0.00    +0.032 C 
ENDBRANCH  14  27
ENDBRANCH   1  21
BRANCH   5  28
ATOM     28  O   UNL     1     -12.029  -2.424  -3.291  0.00  0.00    -0.491 OA
ATOM     29  C   UNL     1     -12.555  -2.696  -4.591  0.00  0.00    +0.277 C 
ENDBRANCH   5  28
BRANCH   4  30
ATOM     30  O   UNL     1     -10.880  -1.864  -0.845  0.00  0.00    -0.491 OA
ATOM     31  C   UNL     1     -10.216  -1.562   0.384  0.00  0.00    +0.277 C 
ENDBRANCH   4  30
TORSDOF 4
