REMARK  Name = ZINC13318320
REMARK  7 active torsions:
REMARK  status: ('A' for Active; 'I' for Inactive)
REMARK    1  A    between atoms: C_1  and  C_2
REMARK    2  A    between atoms: C_2  and  C_4
REMARK    3  A    between atoms: C_2  and  S_6
REMARK    4  A    between atoms: S_6  and  C_7
REMARK    5  A    between atoms: C_7  and  C_8
REMARK    6  A    between atoms: N_10  and  C_11
REMARK    7  A    between atoms: C_16  and  C_17
REMARK                            x       y       z     vdW  Elec       q    Type
REMARK                         _______ _______ _______ _____ _____    ______ ____
ROOT
ATOM      1  C   UNL     1      -5.299   1.101  -1.103  0.00  0.00    +0.227 C 
ATOM      2  O   UNL     1      -5.159  -0.071  -1.380  0.00  0.00    -0.275 OA
ATOM      3  N   UNL     1      -6.506   1.686  -1.238  0.00  0.00    -0.284 N 
ATOM      4  H   UNL     1      -6.634   2.605  -0.956  0.00  0.00    +0.155 HD
ENDROOT
BRANCH   3   5
ATOM      5  C   UNL     1      -7.569   0.970  -1.784  0.00  0.00    +0.048 A 
ATOM      6  C   UNL     1      -7.697  -0.390  -1.532  0.00  0.00    +0.025 A 
ATOM      7  C   UNL     1      -8.751  -1.097  -2.073  0.00  0.00    +0.017 A 
ATOM      8  C   UNL     1      -9.690  -0.459  -2.869  0.00  0.00    +0.019 A 
ATOM      9  C   UNL     1      -9.579   0.890  -3.130  0.00  0.00    +0.032 A 
ATOM     10  C   UNL     1      -8.520   1.620  -2.585  0.00  0.00    +0.085 A 
ATOM     11 BR   UNL     1     -11.128  -1.444  -3.602  0.00  0.00    -0.050 Br
BRANCH  10  12
ATOM     12  C   UNL     1      -8.399   3.064  -2.855  0.00  0.00    +0.388 C 
ATOM     13  O   UNL     1      -7.424   3.676  -2.464  0.00  0.00    -0.241 OA
ATOM     14  O   UNL     1      -9.369   3.707  -3.534  0.00  0.00    -0.241 OA
ENDBRANCH  10  12
ENDBRANCH   3   5
BRANCH   1  15
ATOM     15  C   UNL     1      -4.124   1.905  -0.608  0.00  0.00    +0.166 C 
BRANCH  15  16
ATOM     16  S   UNL     1      -2.654   0.844  -0.536  0.00  0.00    -0.137 S 
BRANCH  16  18
ATOM     17  C   UNL     1      -1.675   2.391   1.497  0.00  0.00    +0.031 C 
ATOM     18  C   UNL     1      -1.347   1.947   0.070  0.00  0.00    +0.157 C 
BRANCH  18  19
ATOM     19  C   UNL     1      -0.029   1.216   0.061  0.00  0.00    +0.368 C 
ATOM     20  O   UNL     1      -0.009   0.008   0.043  0.00  0.00    -0.245 OA
ATOM     21  O   UNL     1       1.121   1.907   0.070  0.00  0.00    -0.245 OA
ENDBRANCH  18  19
ENDBRANCH  16  18
ENDBRANCH  15  16
ENDBRANCH   1  15
TORSDOF 6
