REMARK  Name = ZINC00803903
REMARK  7 active torsions:
REMARK  status: ('A' for Active; 'I' for Inactive)
REMARK    1  A    between atoms: C_1  and  C_2
REMARK    2  A    between atoms: C_2  and  C_3
REMARK    3  A    between atoms: C_2  and  O_4
REMARK    4  A    between atoms: O_4  and  C_5
REMARK    5  A    between atoms: C_8  and  C_11
REMARK    6  A    between atoms: C_25  and  N_29
REMARK    7  A    between atoms: C_26  and  C_27
REMARK                            x       y       z     vdW  Elec       q    Type
REMARK                         _______ _______ _______ _____ _____    ______ ____
ROOT
ATOM      1  C   UNL     1      -2.167  -5.641  -2.132  0.00  0.00    +0.105 C 
ATOM      2  C   UNL     1      -3.104  -5.546  -3.306  0.00  0.00    +0.092 A 
ATOM      3  C   UNL     1      -4.408  -5.927  -3.185  0.00  0.00    +0.152 A 
ATOM      4  C   UNL     1      -5.277  -5.815  -4.367  0.00  0.00    +0.060 A 
ATOM      5  C   UNL     1      -6.621  -6.191  -4.312  0.00  0.00    +0.015 A 
ATOM      6  C   UNL     1      -7.407  -6.073  -5.436  0.00  0.00    +0.001 A 
ATOM      7  C   UNL     1      -6.870  -5.582  -6.617  0.00  0.00    +0.004 A 
ATOM      8  C   UNL     1      -5.545  -5.206  -6.685  0.00  0.00    +0.047 A 
ATOM      9  C   UNL     1      -4.734  -5.319  -5.563  0.00  0.00    +0.143 A 
ATOM     10  O   UNL     1      -3.434  -4.958  -5.611  0.00  0.00    -0.422 OA
ATOM     11  C   UNL     1      -2.634  -5.062  -4.538  0.00  0.00    +0.345 A 
ATOM     12  O   UNL     1      -1.466  -4.726  -4.636  0.00  0.00    -0.245 OA
ATOM     13  O   UNL     1      -4.901  -6.395  -2.023  0.00  0.00    -0.440 OA
ATOM     14  C   UNL     1      -4.065  -6.857  -1.076  0.00  0.00    +0.199 C 
ATOM     15  C   UNL     1      -2.753  -6.533  -1.074  0.00  0.00    +0.098 C 
ENDROOT
BRANCH   1  19
ATOM     16  C   UNL     1      -1.538  -1.739  -0.505  0.00  0.00    +0.121 A 
ATOM     17  C   UNL     1      -0.465  -2.468  -0.997  0.00  0.00    +0.046 A 
ATOM     18  C   UNL     1      -0.671  -3.729  -1.522  0.00  0.00    +0.008 A 
ATOM     19  C   UNL     1      -1.945  -4.265  -1.558  0.00  0.00    -0.034 A 
ATOM     20  C   UNL     1      -3.017  -3.540  -1.070  0.00  0.00    +0.008 A 
ATOM     21  C   UNL     1      -2.815  -2.281  -0.538  0.00  0.00    +0.046 A 
BRANCH  16  22
ATOM     22  O   UNL     1      -1.339  -0.499   0.012  0.00  0.00    -0.489 OA
BRANCH  22  24
ATOM     23  C   UNL     1      -1.982   1.168   1.640  0.00  0.00    +0.051 C 
ATOM     24  C   UNL     1      -2.466   0.143   0.612  0.00  0.00    +0.167 C 
ATOM     25  C   UNL     1      -3.283   0.853  -0.469  0.00  0.00    +0.051 C 
ENDBRANCH  22  24
ENDBRANCH  16  22
ENDBRANCH   1  19
BRANCH  14  26
ATOM     26  N   UNL     1      -4.557  -7.674  -0.088  0.00  0.00    -0.328 N 
ATOM     27  H   UNL     1      -5.497  -7.912  -0.080  0.00  0.00    +0.145 HD
ATOM     28  H   UNL     1      -3.964  -8.013   0.601  0.00  0.00    +0.145 HD
ENDBRANCH  14  26
BRANCH  15  29
ATOM     29  C   UNL     1      -1.906  -7.053  -0.042  0.00  0.00    +0.101 C 
ATOM     30  N   UNL     1      -1.234  -7.465   0.776  0.00  0.00    -0.191 NA
ENDBRANCH  15  29
TORSDOF 5
