REMARK  Name = ZINC60486740
REMARK  6 active torsions:
REMARK  status: ('A' for Active; 'I' for Inactive)
REMARK    1  A    between atoms: C_1  and  C_2
REMARK    2  A    between atoms: C_2  and  C_3
REMARK    3  A    between atoms: C_3  and  C_4
REMARK    4  A    between atoms: C_3  and  C_5
REMARK    5  A    between atoms: C_8  and  S_11
REMARK    6  A    between atoms: S_11  and  N_14
REMARK                            x       y       z     vdW  Elec       q    Type
REMARK                         _______ _______ _______ _____ _____    ______ ____
ROOT
ATOM      1  C   UNL     1      -1.416  -2.035  -0.119  0.00  0.00    -0.044 A 
ATOM      2  C   UNL     1      -0.774  -2.805   0.832  0.00  0.00    +0.006 A 
ATOM      3  C   UNL     1      -0.758  -4.182   0.711  0.00  0.00    +0.029 A 
ATOM      4  C   UNL     1      -1.384  -4.789  -0.361  0.00  0.00    +0.113 A 
ATOM      5  C   UNL     1      -2.027  -4.019  -1.312  0.00  0.00    +0.029 A 
ATOM      6  C   UNL     1      -2.047  -2.642  -1.189  0.00  0.00    +0.006 A 
ENDROOT
BRANCH   4   7
ATOM      7  S   UNL     1      -1.363  -6.544  -0.516  0.00  0.00    +0.101 S 
ATOM      8  O   UNL     1      -1.552  -6.832  -1.895  0.00  0.00    -0.146 OA
ATOM      9  O   UNL     1      -0.231  -7.002   0.210  0.00  0.00    -0.146 OA
BRANCH   7  10
ATOM     10  N   UNL     1      -2.698  -7.121   0.275  0.00  0.00    -0.103 NA
ATOM     11  C   UNL     1      -2.929  -8.411   0.316  0.00  0.00    +0.191 A 
ATOM     12  N   UNL     1      -2.196  -9.447  -0.221  0.00  0.00    -0.339 N 
ATOM     13  C   UNL     1      -2.645 -10.722  -0.043  0.00  0.00    +0.092 A 
ATOM     14  C   UNL     1      -3.769 -10.949   0.636  0.00  0.00    +0.066 A 
ATOM     15  S   UNL     1      -4.273  -9.297   1.090  0.00  0.00    -0.057 S 
ATOM     16  H   UNL     1      -1.379  -9.273  -0.715  0.00  0.00    +0.167 HD
ENDBRANCH   7  10
ENDBRANCH   4   7
BRANCH   1  17
ATOM     17  C   UNL     1      -1.433  -0.534   0.013  0.00  0.00    +0.016 C 
ATOM     18  C   UNL     1      -2.110  -0.145   1.329  0.00  0.00    +0.012 C 
BRANCH  17  20
ATOM     19  C   UNL     1      -0.019   1.526   0.010  0.00  0.00    +0.004 C 
ATOM     20  C   UNL     1       0.002  -0.004   0.002  0.00  0.00    +0.004 C 
ENDBRANCH  17  20
ENDBRANCH   1  17
TORSDOF 4
