REMARK  Name = ZINC67434115
REMARK  4 active torsions:
REMARK  status: ('A' for Active; 'I' for Inactive)
REMARK    1  A    between atoms: C_3  and  C_8
REMARK    2  A    between atoms: C_11  and  N_13
REMARK    3  A    between atoms: N_13  and  S_14
REMARK    4  A    between atoms: S_14  and  C_17
REMARK                            x       y       z     vdW  Elec       q    Type
REMARK                         _______ _______ _______ _____ _____    ______ ____
ROOT
ATOM      1  S   UNL     1       5.711   3.304  -3.288  0.00  0.00    +0.059 S 
ATOM      2  O   UNL     1       6.442   4.515  -3.424  0.00  0.00    -0.153 OA
ATOM      3  O   UNL     1       6.215   2.055  -3.742  0.00  0.00    -0.153 OA
ENDROOT
BRANCH   1   4
ATOM      4  C   UNL     1       4.170   3.551  -4.105  0.00  0.00    +0.106 A 
ATOM      5  C   UNL     1       3.454   2.464  -4.573  0.00  0.00    +0.030 A 
ATOM      6  C   UNL     1       2.245   2.654  -5.213  0.00  0.00    +0.025 A 
ATOM      7  C   UNL     1       1.749   3.940  -5.386  0.00  0.00    +0.037 A 
ATOM      8  C   UNL     1       2.469   5.029  -4.915  0.00  0.00    -0.024 A 
ATOM      9  C   UNL     1       3.675   4.832  -4.271  0.00  0.00    +0.034 A 
ATOM     10  C   UNL     1       1.930   6.423  -5.103  0.00  0.00    +0.046 C 
ATOM     11  C   UNL     1       1.167   6.502  -6.426  0.00  0.00    +0.101 C 
ATOM     12  C   UNL     1       0.208   5.347  -6.534  0.00  0.00    +0.218 C 
ATOM     13  O   UNL     1      -0.863   5.507  -7.080  0.00  0.00    -0.275 OA
ATOM     14  N   UNL     1       0.525   4.139  -6.033  0.00  0.00    -0.285 N 
ATOM     15  H   UNL     1      -0.098   3.402  -6.122  0.00  0.00    +0.155 HD
ENDBRANCH   1   4
BRANCH   1  16
ATOM     16  N   UNL     1       5.387   3.124  -1.674  0.00  0.00    -0.186 NA
ATOM     17  H   UNL     1       5.708   3.784  -1.039  0.00  0.00    +0.148 HD
BRANCH  16  20
ATOM     18  C   UNL     1       3.672   2.186  -0.021  0.00  0.00    +0.039 C 
ATOM     19  C   UNL     1       4.968   1.396   0.169  0.00  0.00    +0.030 C 
ATOM     20  C   UNL     1       4.616   1.970  -1.206  0.00  0.00    +0.085 C 
BRANCH  18  23
ATOM     21  C   UNL     1      -0.017   1.377   0.010  0.00  0.00    +0.003 A 
ATOM     22  C   UNL     1       1.171   2.086   0.002  0.00  0.00    +0.004 A 
ATOM     23  C   UNL     1       2.378   1.413  -0.013  0.00  0.00    -0.040 A 
ATOM     24  C   UNL     1       2.399   0.030  -0.021  0.00  0.00    +0.042 A 
ATOM     25  C   UNL     1       1.211  -0.679  -0.013  0.00  0.00    +0.124 A 
ATOM     26  C   UNL     1       0.002  -0.004   0.002  0.00  0.00    +0.038 A 
ATOM     27  F   UNL     1       1.230  -2.030  -0.022  0.00  0.00    -0.205 F 
ENDBRANCH  18  23
ENDBRANCH  16  20
ENDBRANCH   1  16
TORSDOF 4
