REMARK  Name = ZINC11696672
REMARK  6 active torsions:
REMARK  status: ('A' for Active; 'I' for Inactive)
REMARK    1  A    between atoms: C_1  and  C_2
REMARK    2  A    between atoms: C_2  and  N_3
REMARK    3  A    between atoms: C_6  and  C_8
REMARK    4  A    between atoms: N_10  and  C_11
REMARK    5  A    between atoms: C_11  and  C_12
REMARK    6  A    between atoms: C_21  and  C_28
REMARK                            x       y       z     vdW  Elec       q    Type
REMARK                         _______ _______ _______ _____ _____    ______ ____
ROOT
ATOM      1  C   UNL     1      -1.605   5.849  -1.892  0.00  0.00    +0.273 C 
ATOM      2  O   UNL     1      -1.730   6.173  -3.057  0.00  0.00    -0.268 OA
ATOM      3  N   UNL     1      -0.377   5.781  -1.340  0.00  0.00    -0.239 N 
ATOM      4  C   UNL     1       0.732   6.178  -2.067  0.00  0.00    +0.169 A 
ATOM      5  N   UNL     1       0.789   6.644  -3.293  0.00  0.00    -0.224 NA
ATOM      6  C   UNL     1       1.952   6.995  -3.883  0.00  0.00    +0.085 A 
ATOM      7  C   UNL     1       2.151   7.506  -5.186  0.00  0.00    -0.006 A 
ATOM      8  C   UNL     1       3.410   7.816  -5.633  0.00  0.00    +0.046 A 
ATOM      9  C   UNL     1       4.528   7.640  -4.829  0.00  0.00    +0.021 A 
ATOM     10  C   UNL     1       4.370   7.143  -3.549  0.00  0.00    +0.019 A 
ATOM     11  C   UNL     1       3.113   6.831  -3.093  0.00  0.00    +0.041 A 
ATOM     12  S   UNL     1       2.450   6.195  -1.573  0.00  0.00    -0.052 S 
ATOM     13 CL   UNL     1       3.610   8.439  -7.241  0.00  0.00    -0.083 Cl
ATOM     14  C   UNL     1       0.966   7.713  -6.095  0.00  0.00    +0.047 C 
ENDROOT
BRANCH   1  18
ATOM     15  N   UNL     1      -4.025   5.033   0.590  0.00  0.00    -0.271 N 
ATOM     16  C   UNL     1      -4.874   5.140  -0.455  0.00  0.00    +0.109 A 
ATOM     17  C   UNL     1      -4.134   5.463  -1.541  0.00  0.00    +0.054 A 
ATOM     18  C   UNL     1      -2.797   5.532  -1.081  0.00  0.00    +0.148 A 
ATOM     19  N   UNL     1      -2.820   5.264   0.209  0.00  0.00    -0.167 NA
BRANCH  15  21
ATOM     20  C   UNL     1      -3.624   3.488   2.443  0.00  0.00    +0.029 C 
ATOM     21  C   UNL     1      -4.421   4.702   1.961  0.00  0.00    +0.140 C 
ENDBRANCH  15  21
ENDBRANCH   1  18
BRANCH   3  22
ATOM     22  C   UNL     1      -0.216   5.287   0.030  0.00  0.00    +0.171 C 
BRANCH  22  23
ATOM     23  C   UNL     1      -0.166   3.780   0.017  0.00  0.00    +0.059 A 
ATOM     24  C   UNL     1       1.057   3.138  -0.009  0.00  0.00    +0.025 A 
ATOM     25  C   UNL     1       1.092   1.752  -0.020  0.00  0.00    +0.003 A 
ATOM     26  C   UNL     1      -0.110   1.061  -0.004  0.00  0.00    +0.020 A 
ATOM     27  C   UNL     1      -1.295   1.772   0.017  0.00  0.00    +0.111 A 
ATOM     28  N   UNL     1      -1.290   3.091   0.032  0.00  0.00    -0.258 NA
ENDBRANCH  22  23
ENDBRANCH   3  22
TORSDOF 4
