REMARK  Name = ZINC14460876
REMARK  4 active torsions:
REMARK  status: ('A' for Active; 'I' for Inactive)
REMARK    1  A    between atoms: C_3  and  O_28
REMARK    2  A    between atoms: C_4  and  C_8
REMARK    3  A    between atoms: C_18  and  N_25
REMARK    4  A    between atoms: C_21  and  O_24
REMARK                            x       y       z     vdW  Elec       q    Type
REMARK                         _______ _______ _______ _____ _____    ______ ____
ROOT
ATOM      1  C   UNL     1      -0.081   5.351   0.032  0.00  0.00    +0.109 C 
ATOM      2  C   UNL     1       0.049   5.855   1.471  0.00  0.00    +0.029 C 
ATOM      3  C   UNL     1       1.292   5.169   2.105  0.00  0.00    +0.033 C 
ATOM      4  C   UNL     1       0.767   3.814   2.539  0.00  0.00    -0.030 C 
ATOM      5  C   UNL     1      -0.536   3.845   2.665  0.00  0.00    -0.023 C 
ATOM      6  C   UNL     1      -1.068   5.219   2.326  0.00  0.00    +0.051 C 
ATOM      7  C   UNL     1      -2.355   5.114   1.562  0.00  0.00    +0.014 A 
ATOM      8  C   UNL     1      -3.491   4.705   2.251  0.00  0.00    +0.132 A 
ATOM      9  C   UNL     1      -4.703   4.585   1.604  0.00  0.00    +0.037 A 
ATOM     10  C   UNL     1      -4.800   4.872   0.254  0.00  0.00    +0.049 A 
ATOM     11  C   UNL     1      -3.677   5.282  -0.441  0.00  0.00    +0.138 A 
ATOM     12  C   UNL     1      -2.448   5.405   0.214  0.00  0.00    +0.076 A 
ATOM     13  N   UNL     1      -1.345   5.822  -0.536  0.00  0.00    -0.333 N 
ATOM     14  H   UNL     1      -1.343   6.432  -1.452  0.00  0.00    +0.147 HD
ENDROOT
BRANCH   1  18
ATOM     15  C   UNL     1      -0.013   1.076   0.008  0.00  0.00    +0.019 A 
ATOM     16  C   UNL     1       1.173   1.783  -0.059  0.00  0.00    +0.047 A 
ATOM     17  C   UNL     1       1.153   3.170  -0.051  0.00  0.00    +0.122 A 
ATOM     18  C   UNL     1      -0.057   3.844   0.023  0.00  0.00    +0.015 A 
ATOM     19  C   UNL     1      -1.240   3.134   0.090  0.00  0.00    +0.024 A 
ATOM     20  C   UNL     1      -1.218   1.750   0.076  0.00  0.00    +0.018 A 
ATOM     21 BR   UNL     1      -2.839   0.780   0.159  0.00  0.00    -0.050 Br
BRANCH  17  22
ATOM     22  O   UNL     1       2.318   3.867  -0.116  0.00  0.00    -0.506 OA
ATOM     23  H   UNL     1       2.302   4.967  -0.110  0.00  0.00    +0.292 HD
ENDBRANCH  17  22
ENDBRANCH   1  18
BRANCH   8  24
ATOM     24  N   UNL     1      -3.398   4.395   3.695  0.00  0.00    +0.057 N 
ATOM     25  O   UNL     1      -4.389   4.036   4.306  0.00  0.00    -0.126 OA
ATOM     26  O   UNL     1      -2.332   4.499   4.273  0.00  0.00    -0.126 OA
ENDBRANCH   8  24
BRANCH  11  27
ATOM     27  O   UNL     1      -3.769   5.566  -1.768  0.00  0.00    -0.505 OA
ATOM     28  H   UNL     1      -2.878   5.892  -2.324  0.00  0.00    +0.292 HD
ENDBRANCH  11  27
TORSDOF 4
