REMARK  Name = ZINC37673293
REMARK  8 active torsions:
REMARK  status: ('A' for Active; 'I' for Inactive)
REMARK    1  A    between atoms: C_1  and  C_2
REMARK    2  A    between atoms: C_2  and  C_4
REMARK    3  A    between atoms: C_2  and  N_11
REMARK    4  A    between atoms: C_7  and  N_10
REMARK    5  A    between atoms: N_11  and  C_12
REMARK    6  A    between atoms: C_17  and  S_18
REMARK    7  A    between atoms: S_18  and  N_21
REMARK    8  A    between atoms: N_21  and  C_22
REMARK                            x       y       z     vdW  Elec       q    Type
REMARK                         _______ _______ _______ _____ _____    ______ ____
ROOT
ATOM      1  N   UNL     1       0.639  -0.541   0.916  0.00  0.00    -0.336 N 
ATOM      2  H   UNL     1       0.014  -0.917   1.556  0.00  0.00    +0.147 HD
ENDROOT
BRANCH   1   3
ATOM      3  C   UNL     1       2.007  -0.795   1.044  0.00  0.00    +0.054 A 
ATOM      4  C   UNL     1       2.910  -0.196   0.175  0.00  0.00    +0.025 A 
ATOM      5  C   UNL     1       4.261  -0.449   0.304  0.00  0.00    +0.002 A 
ATOM      6  C   UNL     1       4.716  -1.298   1.297  0.00  0.00    +0.002 A 
ATOM      7  C   UNL     1       3.819  -1.897   2.163  0.00  0.00    +0.030 A 
ATOM      8  C   UNL     1       2.467  -1.643   2.043  0.00  0.00    +0.126 A 
BRANCH   8   9
ATOM      9  S   UNL     1       1.326  -2.401   3.152  0.00  0.00    +0.060 S 
ATOM     10  O   UNL     1       2.089  -3.234   4.014  0.00  0.00    -0.153 OA
ATOM     11  O   UNL     1       0.486  -1.364   3.642  0.00  0.00    -0.153 OA
BRANCH   9  12
ATOM     12  N   UNL     1       0.363  -3.405   2.253  0.00  0.00    -0.193 NA
ATOM     13  C   UNL     1       0.941  -4.580   1.598  0.00  0.00    +0.127 C 
ATOM     14  H   UNL     1      -0.584  -3.214   2.162  0.00  0.00    +0.148 HD
ENDBRANCH   9  12
ENDBRANCH   8   9
ENDBRANCH   1   3
BRANCH   1  16
ATOM     15  C   UNL     1       0.227   1.767   0.220  0.00  0.00    +0.033 C 
ATOM     16  C   UNL     1       0.148   0.293  -0.183  0.00  0.00    +0.098 C 
BRANCH  16  17
ATOM     17  C   UNL     1      -1.282  -0.069  -0.488  0.00  0.00    -0.027 A 
ATOM     18  C   UNL     1      -2.193  -0.212   0.543  0.00  0.00    +0.007 A 
ATOM     19  C   UNL     1      -3.505  -0.543   0.267  0.00  0.00    +0.023 A 
ATOM     20  C   UNL     1      -3.910  -0.732  -1.049  0.00  0.00    +0.025 A 
ATOM     21  C   UNL     1      -2.993  -0.588  -2.082  0.00  0.00    +0.023 A 
ATOM     22  C   UNL     1      -1.683  -0.251  -1.799  0.00  0.00    +0.007 A 
BRANCH  20  23
ATOM     23  N   UNL     1      -5.236  -1.068  -1.331  0.00  0.00    -0.358 N 
ATOM     24  H   UNL     1      -5.875  -1.169  -0.609  0.00  0.00    +0.142 HD
ATOM     25  H   UNL     1      -5.517  -1.200  -2.250  0.00  0.00    +0.142 HD
ENDBRANCH  20  23
ENDBRANCH  16  17
ENDBRANCH   1  16
TORSDOF 6
