REMARK  Name = ZINC51359791
REMARK  4 active torsions:
REMARK  status: ('A' for Active; 'I' for Inactive)
REMARK    1  A    between atoms: C_3  and  C_7
REMARK    2  A    between atoms: N_12  and  C_13
REMARK    3  A    between atoms: C_13  and  C_14
REMARK    4  A    between atoms: N_19  and  C_20
REMARK                            x       y       z     vdW  Elec       q    Type
REMARK                         _______ _______ _______ _____ _____    ______ ____
ROOT
ATOM      1  C   UNL     1       3.562   0.588  -0.589  0.00  0.00    -0.051 C 
ATOM      2  C   UNL     1       4.361   1.839  -1.011  0.00  0.00    -0.016 C 
ATOM      3  C   UNL     1       5.671   1.239  -1.587  0.00  0.00    -0.020 C 
ATOM      4  C   UNL     1       5.151  -0.052  -2.266  0.00  0.00    -0.078 C 
ATOM      5  N   UNL     1       4.085  -0.551  -1.366  0.00  0.00    +0.388 N 
ATOM      6  H   UNL     1       3.341  -0.959  -1.912  0.00  0.00    -0.081 HD
ENDROOT
BRANCH   1   9
ATOM      7  C   UNL     1      -0.019   1.539   0.011  0.00  0.00    +0.017 C 
ATOM      8  C   UNL     1       1.488   1.909  -0.002  0.00  0.00    +0.018 C 
ATOM      9  C   UNL     1       2.077   0.791  -0.898  0.00  0.00    +0.040 C 
ATOM     10  N   UNL     1       1.306  -0.420  -0.547  0.00  0.00    -0.315 NA
ATOM     11  C   UNL     1       0.002  -0.004   0.002  0.00  0.00    +0.081 C 
ATOM     12  H   UNL     1       1.186  -1.018  -1.351  0.00  0.00    +0.122 HD
ENDBRANCH   1   9
BRANCH   5  13
ATOM     13  C   UNL     1       4.636  -1.560  -0.452  0.00  0.00    +0.019 C 
BRANCH  13  14
ATOM     14  C   UNL     1       5.057  -2.774  -1.240  0.00  0.00    +0.204 C 
ATOM     15  O   UNL     1       4.912  -2.796  -2.444  0.00  0.00    -0.277 OA
ATOM     16  N   UNL     1       5.595  -3.836  -0.607  0.00  0.00    -0.242 N 
ATOM     17  C   UNL     1       5.971  -4.921  -1.312  0.00  0.00    +0.306 C 
ATOM     18  O   UNL     1       5.825  -4.943  -2.518  0.00  0.00    -0.252 OA
ATOM     19  N   UNL     1       6.508  -5.982  -0.679  0.00  0.00    -0.296 N 
ATOM     20  H   UNL     1       5.710  -3.818   0.356  0.00  0.00    +0.159 HD
ATOM     21  H   UNL     1       6.625  -5.965   0.284  0.00  0.00    +0.151 HD
BRANCH  19  22
ATOM     22  C   UNL     1       6.918  -7.162  -1.445  0.00  0.00    +0.075 C 
ATOM     23  C   UNL     1       6.555  -8.535  -0.875  0.00  0.00    +0.024 C 
ATOM     24  C   UNL     1       8.006  -8.053  -0.843  0.00  0.00    +0.024 C 
ENDBRANCH  19  22
ENDBRANCH  13  14
ENDBRANCH   5  13
TORSDOF 4
