REMARK  Name = ZINC15670121
REMARK  6 active torsions:
REMARK  status: ('A' for Active; 'I' for Inactive)
REMARK    1  A    between atoms: C_1  and  C_2
REMARK    2  A    between atoms: C_5  and  C_8
REMARK    3  A    between atoms: C_17  and  C_19
REMARK    4  A    between atoms: C_20  and  C_26
REMARK    5  A    between atoms: C_29  and  S_32
REMARK    6  A    between atoms: S_32  and  C_33
REMARK                            x       y       z     vdW  Elec       q    Type
REMARK                         _______ _______ _______ _____ _____    ______ ____
ROOT
ATOM      1  C   UNL     1      -2.009  -2.953   0.019  0.00  0.00    +0.095 A 
ATOM      2  C   UNL     1      -3.280  -2.369   0.043  0.00  0.00    +0.163 A 
ATOM      3  N   UNL     1      -3.382  -1.052   0.052  0.00  0.00    -0.152 NA
ATOM      4  N   UNL     1      -2.328  -0.314   0.038  0.00  0.00    -0.109 NA
ATOM      5  C   UNL     1      -1.112  -0.842   0.016  0.00  0.00    +0.273 A 
ATOM      6  N   UNL     1      -0.942  -2.156   0.001  0.00  0.00    -0.208 NA
ATOM      7  N   UNL     1       0.002  -0.004   0.002  0.00  0.00    -0.182 N 
ATOM      8  C   UNL     1      -0.016   1.346   0.009  0.00  0.00    +0.136 A 
ATOM      9  C   UNL     1       1.284   1.777  -0.001  0.00  0.00    +0.023 A 
ATOM     10  C   UNL     1       2.106   0.659  -0.024  0.00  0.00    +0.066 A 
ATOM     11  N   UNL     1       1.346  -0.411  -0.023  0.00  0.00    -0.167 NA
ATOM     12  C   UNL     1       3.612   0.671  -0.047  0.00  0.00    +0.068 C 
ATOM     13  C   UNL     1       1.649   3.239   0.022  0.00  0.00    +0.063 C 
ATOM     14  C   UNL     1       0.516   4.028  -0.642  0.00  0.00    +0.109 C 
ATOM     15  C   UNL     1      -0.829   3.547  -0.174  0.00  0.00    +0.219 C 
ATOM     16  O   UNL     1      -1.710   4.358   0.016  0.00  0.00    -0.275 OA
ATOM     17  N   UNL     1      -1.086   2.239   0.039  0.00  0.00    -0.270 N 
ATOM     18  H   UNL     1      -1.990   1.929   0.209  0.00  0.00    +0.156 HD
ENDROOT
BRANCH   1  23
ATOM     19  C   UNL     1      -1.405  -8.679  -0.021  0.00  0.00    +0.044 C 
ATOM     20  C   UNL     1      -1.563  -7.181  -0.010  0.00  0.00    -0.050 A 
ATOM     21  C   UNL     1      -2.825  -6.620  -0.091  0.00  0.00    +0.004 A 
ATOM     22  C   UNL     1      -2.976  -5.249  -0.082  0.00  0.00    +0.010 A 
ATOM     23  C   UNL     1      -1.853  -4.428   0.009  0.00  0.00    +0.002 A 
ATOM     24  C   UNL     1      -0.584  -4.997   0.085  0.00  0.00    +0.010 A 
ATOM     25  C   UNL     1      -0.445  -6.371   0.080  0.00  0.00    +0.004 A 
ENDBRANCH   1  23
BRANCH  13  26
ATOM     26  C   UNL     1       2.932   3.455  -0.739  0.00  0.00    -0.039 A 
ATOM     27  C   UNL     1       3.006   3.110  -2.076  0.00  0.00    +0.005 A 
ATOM     28  C   UNL     1       4.178   3.311  -2.778  0.00  0.00    +0.015 A 
ATOM     29  C   UNL     1       5.287   3.850  -2.137  0.00  0.00    +0.008 A 
ATOM     30  C   UNL     1       5.210   4.190  -0.791  0.00  0.00    +0.015 A 
ATOM     31  C   UNL     1       4.033   3.991  -0.097  0.00  0.00    +0.005 A 
BRANCH  29  32
ATOM     32  S   UNL     1       6.786   4.103  -3.027  0.00  0.00    -0.129 S 
ATOM     33  C   UNL     1       6.405   3.522  -4.703  0.00  0.00    +0.090 C 
ENDBRANCH  29  32
ENDBRANCH  13  26
TORSDOF 3
