REMARK  Name = ZINC09332673
REMARK  4 active torsions:
REMARK  status: ('A' for Active; 'I' for Inactive)
REMARK    1  A    between atoms: C_15  and  C_17
REMARK    2  A    between atoms: C_17  and  C_19
REMARK    3  A    between atoms: C_23  and  N_25
REMARK    4  A    between atoms: N_30  and  C_33
REMARK                            x       y       z     vdW  Elec       q    Type
REMARK                         _______ _______ _______ _____ _____    ______ ____
ROOT
ATOM      1  C   UNL     1       4.541  -8.409   1.292  0.00  0.00    +0.001 A 
ATOM      2  C   UNL     1       4.021  -7.816   2.429  0.00  0.00    +0.000 A 
ATOM      3  C   UNL     1       3.191  -6.713   2.321  0.00  0.00    +0.006 A 
ATOM      4  C   UNL     1       2.881  -6.199   1.083  0.00  0.00    -0.021 A 
ATOM      5  C   UNL     1       3.402  -6.791  -0.072  0.00  0.00    -0.019 A 
ATOM      6  C   UNL     1       4.237  -7.905   0.044  0.00  0.00    +0.008 A 
ATOM      7  C   UNL     1       3.084  -6.251  -1.410  0.00  0.00    +0.022 C 
ATOM      8  C   UNL     1       2.577  -5.005  -1.507  0.00  0.00    +0.054 C 
ATOM      9  C   UNL     1       1.974  -4.997   0.952  0.00  0.00    +0.100 C 
ATOM     10  C   UNL     1       2.178  -3.974   1.983  0.00  0.00    +0.113 C 
ATOM     11  C   UNL     1       3.187  -2.939   1.359  0.00  0.00    +0.116 C 
ATOM     12  C   UNL     1       2.573  -2.882  -0.038  0.00  0.00    +0.141 C 
ATOM     13  C   UNL     1       2.948  -1.855   2.362  0.00  0.00    +0.232 C 
ATOM     14  O   UNL     1       2.924  -0.659   2.161  0.00  0.00    -0.274 OA
ATOM     15  N   UNL     1       2.763  -2.501   3.557  0.00  0.00    -0.208 N 
ATOM     16  C   UNL     1       2.444  -3.828   3.396  0.00  0.00    +0.232 C 
ATOM     17  O   UNL     1       2.395  -4.686   4.251  0.00  0.00    -0.274 OA
ATOM     18  N   UNL     1       2.020  -4.267  -0.295  0.00  0.00    -0.384 NA
ATOM     19  H   UNL     1       1.034  -4.117  -0.538  0.00  0.00    +0.127 HD
ENDROOT
BRANCH  15  20
ATOM     20  C   UNL     1       2.885  -1.876   4.807  0.00  0.00    +0.062 A 
ATOM     21  C   UNL     1       1.779  -1.282   5.399  0.00  0.00    +0.025 A 
ATOM     22  C   UNL     1       1.902  -0.668   6.630  0.00  0.00    +0.002 A 
ATOM     23  C   UNL     1       3.126  -0.643   7.273  0.00  0.00    +0.002 A 
ATOM     24  C   UNL     1       4.230  -1.233   6.686  0.00  0.00    +0.022 A 
ATOM     25  C   UNL     1       4.112  -1.855   5.458  0.00  0.00    +0.063 A 
ATOM     26 CL   UNL     1       5.497  -2.603   4.725  0.00  0.00    -0.082 Cl
ENDBRANCH  15  20
BRANCH  12  27
ATOM     27  C   UNL     1       1.253  -2.154  -0.022  0.00  0.00    +0.183 C 
ATOM     28  O   UNL     1       0.215  -2.781  -0.016  0.00  0.00    -0.290 OA
BRANCH  27  29
ATOM     29  C   UNL     1       1.224  -0.683  -0.013  0.00  0.00    +0.021 A 
ATOM     30  C   UNL     1       2.420   0.044  -0.021  0.00  0.00    +0.011 A 
ATOM     31  C   UNL     1       2.384   1.422  -0.013  0.00  0.00    +0.003 A 
ATOM     32  C   UNL     1       1.170   2.087   0.002  0.00  0.00    +0.033 A 
ATOM     33  C   UNL     1      -0.017   1.375   0.010  0.00  0.00    +0.127 A 
ATOM     34  C   UNL     1       0.002  -0.004   0.002  0.00  0.00    +0.044 A 
BRANCH  33  35
ATOM     35  N   UNL     1      -1.309   2.095   0.020  0.00  0.00    +0.056 N 
ATOM     36  O   UNL     1      -2.355   1.471   0.021  0.00  0.00    -0.126 OA
ATOM     37  O   UNL     1      -1.328   3.313   0.026  0.00  0.00    -0.126 OA
ENDBRANCH  33  35
ENDBRANCH  27  29
ENDBRANCH  12  27
TORSDOF 4
