REMARK  Name = ZINC12010498
REMARK  3 active torsions:
REMARK  status: ('A' for Active; 'I' for Inactive)
REMARK    1  A    between atoms: C_7  and  C_15
REMARK    2  A    between atoms: N_17  and  C_18
REMARK    3  A    between atoms: C_20  and  C_35
REMARK                            x       y       z     vdW  Elec       q    Type
REMARK                         _______ _______ _______ _____ _____    ______ ____
ROOT
ATOM      1  C   UNL     1       2.131   0.682  -0.015  0.00  0.00    +0.132 A 
ATOM      2  C   UNL     1       1.348  -0.426  -0.013  0.00  0.00    +0.077 A 
ATOM      3  C   UNL     1       0.002  -0.004   0.002  0.00  0.00    +0.130 A 
ATOM      4  N   UNL     1      -0.016   1.313   0.009  0.00  0.00    -0.159 NA
ATOM      5  N   UNL     1       1.308   1.772  -0.001  0.00  0.00    -0.184 N 
ATOM      6  C   UNL     1       1.710   3.093   0.002  0.00  0.00    +0.234 A 
ATOM      7  N   UNL     1       0.772   4.078   0.016  0.00  0.00    -0.291 N 
ATOM      8  H   UNL     1      -0.172   3.854   0.027  0.00  0.00    +0.172 HD
ATOM      9  C   UNL     1       1.164   5.367   0.015  0.00  0.00    +0.256 A 
ATOM     10  O   UNL     1       0.338   6.265   0.029  0.00  0.00    -0.267 OA
ATOM     11  C   UNL     1       2.545   5.666  -0.003  0.00  0.00    +0.038 A 
ATOM     12  C   UNL     1       3.436   4.642  -0.009  0.00  0.00    +0.053 A 
ATOM     13  N   UNL     1       2.991   3.378  -0.004  0.00  0.00    -0.217 NA
ATOM     14  C   UNL     1       4.926   4.861  -0.015  0.00  0.00    +0.056 C 
ATOM     15  C   UNL     1       5.257   6.286  -0.456  0.00  0.00    +0.006 C 
ATOM     16  C   UNL     1       4.422   7.259   0.385  0.00  0.00    +0.005 C 
ATOM     17  C   UNL     1       2.958   7.112  -0.023  0.00  0.00    +0.042 C 
ENDROOT
BRANCH   3  18
ATOM     18  C   UNL     1      -1.183  -0.887   0.009  0.00  0.00    +0.155 A 
ATOM     19  C   UNL     1      -2.481  -0.481   0.029  0.00  0.00    +0.051 A 
ATOM     20  C   UNL     1      -3.271  -1.647   0.024  0.00  0.00    +0.042 A 
ATOM     21  C   UNL     1      -2.426  -2.697   0.011  0.00  0.00    +0.196 A 
ATOM     22  O   UNL     1      -1.166  -2.234   0.001  0.00  0.00    -0.461 OA
ENDBRANCH   3  18
BRANCH   1  25
ATOM     23  C   UNL     1       4.217  -0.452  -0.040  0.00  0.00    +0.230 C 
ATOM     24  O   UNL     1       3.627  -1.512  -0.040  0.00  0.00    -0.274 OA
ATOM     25  N   UNL     1       3.524   0.704  -0.028  0.00  0.00    -0.269 N 
ATOM     26  H   UNL     1       3.996   1.552  -0.028  0.00  0.00    +0.156 HD
BRANCH  23  33
ATOM     27  C   UNL     1       6.717  -3.860   1.148  0.00  0.00    +0.001 A 
ATOM     28  C   UNL     1       7.194  -4.442  -0.013  0.00  0.00    +0.004 A 
ATOM     29  C   UNL     1       7.195  -3.727  -1.193  0.00  0.00    +0.046 A 
ATOM     30  C   UNL     1       6.718  -2.421  -1.218  0.00  0.00    +0.133 A 
ATOM     31  C   UNL     1       6.243  -1.840  -0.054  0.00  0.00    +0.011 A 
ATOM     32  C   UNL     1       6.243  -2.563   1.126  0.00  0.00    +0.008 A 
ATOM     33  C   UNL     1       5.723  -0.428  -0.054  0.00  0.00    +0.142 C 
ATOM     34  C   UNL     1       6.197   0.306  -1.279  0.00  0.00    +0.011 A 
ATOM     35  C   UNL     1       6.155   1.690  -1.299  0.00  0.00    +0.008 A 
ATOM     36  C   UNL     1       6.583   2.383  -2.415  0.00  0.00    +0.001 A 
ATOM     37  C   UNL     1       7.056   1.695  -3.518  0.00  0.00    +0.004 A 
ATOM     38  C   UNL     1       7.101   0.318  -3.502  0.00  0.00    +0.046 A 
ATOM     39  C   UNL     1       6.671  -0.383  -2.381  0.00  0.00    +0.133 A 
ATOM     40  O   UNL     1       6.726  -1.737  -2.388  0.00  0.00    -0.455 OA
ENDBRANCH  23  33
ENDBRANCH   1  25
TORSDOF 3
