REMARK  Name = ZINC12891648
REMARK  13 active torsions:
REMARK  status: ('A' for Active; 'I' for Inactive)
REMARK    1  A    between atoms: C_1  and  C_2
REMARK    2  A    between atoms: C_2  and  C_3
REMARK    3  A    between atoms: C_3  and  C_5
REMARK    4  A    between atoms: C_3  and  C_6
REMARK    5  A    between atoms: C_6  and  C_8
REMARK    6  A    between atoms: C_6  and  N_19
REMARK    7  A    between atoms: N_10  and  C_11
REMARK    8  A    between atoms: C_11  and  C_12
REMARK    9  A    between atoms: C_17  and  C_18
REMARK   10  A    between atoms: C_17  and  N_71
REMARK   11  A    between atoms: C_20  and  C_22
REMARK   12  A    between atoms: N_24  and  C_36
REMARK   13  A    between atoms: C_36  and  C_37
REMARK                            x       y       z     vdW  Elec       q    Type
REMARK                         _______ _______ _______ _____ _____    ______ ____
ROOT
ATOM      1  N   UNL     1      -0.241   3.198  -1.617  0.00  0.00    -0.300 N 
ATOM      2  C   UNL     1       1.030   3.394  -2.020  0.00  0.00    +0.250 C 
ATOM      3  O   UNL     1       1.904   2.622  -1.674  0.00  0.00    -0.270 OA
ATOM      4  H   UNL     1      -0.938   3.813  -1.892  0.00  0.00    +0.150 HD
ENDROOT
BRANCH   2   5
ATOM      5  C   UNL     1       1.360   4.542  -2.878  0.00  0.00    +0.100 A 
ATOM      6  C   UNL     1       0.377   5.421  -3.282  0.00  0.00    +0.103 A 
ATOM      7  N   UNL     1       0.641   6.480  -4.059  0.00  0.00    -0.346 N 
ATOM      8  C   UNL     1       1.908   6.766  -4.525  0.00  0.00    +0.056 A 
ATOM      9  C   UNL     1       2.126   7.875  -5.335  0.00  0.00    +0.076 A 
ATOM     10  C   UNL     1       3.397   8.156  -5.801  0.00  0.00    +0.168 A 
ATOM     11  C   UNL     1       4.474   7.329  -5.460  0.00  0.00    +0.167 A 
ATOM     12  C   UNL     1       4.274   6.227  -4.657  0.00  0.00    +0.063 A 
ATOM     13  C   UNL     1       2.992   5.938  -4.185  0.00  0.00    +0.050 A 
ATOM     14  C   UNL     1       2.744   4.768  -3.326  0.00  0.00    +0.202 A 
ATOM     15  O   UNL     1       3.647   4.017  -2.999  0.00  0.00    -0.286 OA
ATOM     16  O   UNL     1       5.605   7.825  -6.045  0.00  0.00    -0.453 OA
ATOM     17  C   UNL     1       5.143   8.720  -7.074  0.00  0.00    +0.466 C 
ATOM     18  O   UNL     1       3.861   9.164  -6.594  0.00  0.00    -0.453 OA
BRANCH   7  19
ATOM     19  C   UNL     1      -0.462   7.367  -4.435  0.00  0.00    +0.118 C 
ATOM     20  C   UNL     1      -1.014   6.945  -5.798  0.00  0.00    +0.027 C 
ENDBRANCH   7  19
ENDBRANCH   2   5
BRANCH   1  21
ATOM     21  C   UNL     1      -0.570   2.054  -0.761  0.00  0.00    +0.162 C 
BRANCH  21  22
ATOM     22  C   UNL     1      -2.021   1.691  -0.945  0.00  0.00    +0.234 C 
ATOM     23  O   UNL     1      -2.793   2.497  -1.421  0.00  0.00    -0.274 OA
ATOM     24  N   UNL     1      -2.462   0.471  -0.580  0.00  0.00    -0.315 N 
ATOM     25  H   UNL     1      -1.833  -0.198  -0.266  0.00  0.00    +0.149 HD
BRANCH  24  26
ATOM     26  C   UNL     1      -3.890   0.154  -0.656  0.00  0.00    +0.089 C 
BRANCH  26  27
ATOM     27  C   UNL     1      -4.103  -1.325  -0.329  0.00  0.00    -0.051 C 
ATOM     28  C   UNL     1      -5.602  -1.695  -0.456  0.00  0.00    -0.016 C 
ATOM     29  C   UNL     1      -5.524  -3.223  -0.723  0.00  0.00    -0.020 C 
ATOM     30  C   UNL     1      -4.251  -3.363  -1.583  0.00  0.00    -0.078 C 
ATOM     31  N   UNL     1      -3.428  -2.168  -1.336  0.00  0.00    +0.382 N 
ATOM     32  H   UNL     1      -3.327  -1.639  -2.210  0.00  0.00    -0.081 HD
BRANCH  31  33
ATOM     33  C   UNL     1      -2.080  -2.565  -0.851  0.00  0.00    -0.082 C 
ATOM     34  C   UNL     1      -1.447  -3.533  -1.852  0.00  0.00    -0.017 C 
ENDBRANCH  31  33
ENDBRANCH  26  27
ENDBRANCH  24  26
ENDBRANCH  21  22
BRANCH  21  35
ATOM     35  C   UNL     1      -0.318   2.423   0.702  0.00  0.00    +0.015 C 
ATOM     36  C   UNL     1      -1.078   3.706   1.043  0.00  0.00    +0.010 C 
BRANCH  35  38
ATOM     37  C   UNL     1       1.448   2.889   2.407  0.00  0.00    +0.004 C 
ATOM     38  C   UNL     1       1.180   2.644   0.921  0.00  0.00    +0.002 C 
ENDBRANCH  35  38
ENDBRANCH  21  35
ENDBRANCH   1  21
TORSDOF 9
