REMARK  Name = ZINC16021065
REMARK  5 active torsions:
REMARK  status: ('A' for Active; 'I' for Inactive)
REMARK    1  A    between atoms: C_1  and  C_2
REMARK    2  A    between atoms: C_2  and  C_3
REMARK    3  A    between atoms: C_2  and  C_4
REMARK    4  A    between atoms: N_12  and  C_15
REMARK    5  A    between atoms: C_15  and  C_16
REMARK                            x       y       z     vdW  Elec       q    Type
REMARK                         _______ _______ _______ _____ _____    ______ ____
ROOT
ATOM      1  C   UNL     1      -2.233  -0.584   0.525  0.00  0.00    +0.070 C 
ATOM      2  C   UNL     1      -1.958  -2.102   0.510  0.00  0.00    +0.107 C 
ATOM      3  C   UNL     1      -3.008  -2.708   1.483  0.00  0.00    +0.122 C 
ATOM      4  C   UNL     1      -2.160  -3.267   2.604  0.00  0.00    +0.229 C 
ATOM      5  O   UNL     1      -2.584  -3.842   3.583  0.00  0.00    -0.275 OA
ATOM      6  N   UNL     1      -0.869  -3.028   2.347  0.00  0.00    -0.237 N 
ATOM      7  C   UNL     1      -0.634  -2.377   1.184  0.00  0.00    +0.227 C 
ATOM      8  O   UNL     1       0.453  -2.061   0.750  0.00  0.00    -0.275 OA
ATOM      9  C   UNL     1      -3.813  -1.501   1.981  0.00  0.00    +0.136 C 
ATOM     10  N   UNL     1      -2.918  -0.330   1.820  0.00  0.00    -0.295 NA
ATOM     11  C   UNL     1      -4.229  -1.668   3.414  0.00  0.00    +0.006 A 
ATOM     12  C   UNL     1      -3.533  -1.852   4.589  0.00  0.00    +0.046 A 
ATOM     13  C   UNL     1      -4.217  -1.976   5.787  0.00  0.00    +0.124 A 
ATOM     14  C   UNL     1      -5.600  -1.915   5.800  0.00  0.00    +0.040 A 
ATOM     15  C   UNL     1      -6.299  -1.731   4.625  0.00  0.00    +0.026 A 
ATOM     16  C   UNL     1      -5.619  -1.606   3.416  0.00  0.00    +0.039 A 
ATOM     17  N   UNL     1      -6.097  -1.415   2.116  0.00  0.00    -0.283 N 
ATOM     18  C   UNL     1      -5.098  -1.343   1.215  0.00  0.00    +0.243 C 
ATOM     19  O   UNL     1      -5.213  -1.182   0.018  0.00  0.00    -0.273 OA
ATOM     20  F   UNL     1      -3.535  -2.155   6.940  0.00  0.00    -0.205 F 
ATOM     21  H   UNL     1      -2.252  -0.266   2.575  0.00  0.00    +0.124 HD
ATOM     22  H   UNL     1      -7.037  -1.344   1.890  0.00  0.00    +0.155 HD
ENDROOT
BRANCH   1  24
ATOM     23  C   UNL     1      -0.296   0.025  -0.930  0.00  0.00    +0.009 C 
ATOM     24  C   UNL     1      -0.918   0.196   0.457  0.00  0.00    +0.001 C 
ATOM     25  C   UNL     1      -1.191   1.679   0.714  0.00  0.00    +0.009 C 
ENDBRANCH   1  24
BRANCH   6  26
ATOM     26  C   UNL     1       0.208  -3.443   3.249  0.00  0.00    +0.153 C 
BRANCH  26  27
ATOM     27  C   UNL     1       0.553  -4.886   2.989  0.00  0.00    -0.011 A 
ATOM     28  C   UNL     1      -0.028  -5.884   3.749  0.00  0.00    +0.006 A 
ATOM     29  C   UNL     1       0.288  -7.208   3.511  0.00  0.00    +0.000 A 
ATOM     30  C   UNL     1       1.186  -7.536   2.512  0.00  0.00    +0.001 A 
ATOM     31  C   UNL     1       1.768  -6.540   1.751  0.00  0.00    +0.020 A 
ATOM     32  C   UNL     1       1.448  -5.214   1.986  0.00  0.00    +0.046 A 
ATOM     33 CL   UNL     1       2.173  -3.962   1.026  0.00  0.00    -0.083 Cl
ENDBRANCH  26  27
ENDBRANCH   6  26
TORSDOF 3
