REMARK  Name = ZINC41007228
REMARK  4 active torsions:
REMARK  status: ('A' for Active; 'I' for Inactive)
REMARK    1  A    between atoms: C_1  and  C_2
REMARK    2  A    between atoms: C_9  and  N_14
REMARK    3  A    between atoms: C_10  and  C_11
REMARK    4  A    between atoms: C_15  and  C_17
REMARK                            x       y       z     vdW  Elec       q    Type
REMARK                         _______ _______ _______ _____ _____    ______ ____
ROOT
ATOM      1  C   UNL     1      -0.019   1.526   0.010  0.00  0.00    +0.008 C 
ATOM      2  C   UNL     1       0.002  -0.004   0.002  0.00  0.00    -0.009 C 
ATOM      3  C   UNL     1      -1.434  -0.537   0.019  0.00  0.00    +0.008 C 
ATOM      4  C   UNL     1      -1.433  -2.045  -0.237  0.00  0.00    +0.037 C 
ATOM      5  C   UNL     1      -0.464  -2.704   0.734  0.00  0.00    -0.023 A 
ATOM      6  C   UNL     1       0.485  -1.986   1.374  0.00  0.00    -0.004 A 
ATOM      7  S   UNL     1       1.344  -3.167   2.372  0.00  0.00    -0.077 S 
ATOM      8  C   UNL     1       0.493  -4.558   1.968  0.00  0.00    +0.085 A 
ATOM      9  C   UNL     1      -0.459  -4.119   1.060  0.00  0.00    +0.068 A 
ATOM     10  C   UNL     1       0.739  -0.515   1.248  0.00  0.00    +0.046 C 
ENDROOT
BRANCH   9  11
ATOM     11  C   UNL     1      -1.421  -5.045   0.456  0.00  0.00    +0.244 C 
ATOM     12  O   UNL     1      -1.149  -5.610  -0.588  0.00  0.00    -0.270 OA
ATOM     13  N   UNL     1      -2.607  -5.271   1.055  0.00  0.00    -0.325 N 
ATOM     14  H   UNL     1      -2.824  -4.821   1.887  0.00  0.00    +0.145 HD
ATOM     15  H   UNL     1      -3.244  -5.884   0.655  0.00  0.00    +0.145 HD
ENDBRANCH   9  11
BRANCH   8  16
ATOM     16  N   UNL     1       0.697  -5.846   2.433  0.00  0.00    -0.273 N 
ATOM     17  C   UNL     1       1.679  -6.094   3.322  0.00  0.00    +0.284 C 
ATOM     18  O   UNL     1       2.387  -5.186   3.716  0.00  0.00    -0.266 OA
ATOM     19  H   UNL     1       0.133  -6.570   2.119  0.00  0.00    +0.156 HD
BRANCH  17  20
ATOM     20  C   UNL     1       1.895  -7.461   3.816  0.00  0.00    +0.191 A 
ATOM     21  C   UNL     1       2.847  -7.827   4.713  0.00  0.00    +0.063 A 
ATOM     22  C   UNL     1       2.690  -9.268   4.905  0.00  0.00    +0.022 A 
ATOM     23  C   UNL     1       3.348 -10.224   5.683  0.00  0.00    +0.027 A 
ATOM     24  C   UNL     1       2.947 -11.530   5.634  0.00  0.00    +0.019 A 
ATOM     25  C   UNL     1       1.891 -11.911   4.816  0.00  0.00    +0.019 A 
ATOM     26  C   UNL     1       1.230 -10.983   4.040  0.00  0.00    +0.048 A 
ATOM     27  C   UNL     1       1.620  -9.649   4.074  0.00  0.00    +0.136 A 
ATOM     28  O   UNL     1       1.174  -8.541   3.450  0.00  0.00    -0.450 OA
ATOM     29 BR   UNL     1       3.835 -12.826   6.686  0.00  0.00    -0.050 Br
ENDBRANCH  17  20
ENDBRANCH   8  16
TORSDOF 3
