REMARK  Name = ZINC32863712
REMARK  8 active torsions:
REMARK  status: ('A' for Active; 'I' for Inactive)
REMARK    1  A    between atoms: C_1  and  C_2
REMARK    2  A    between atoms: C_5  and  N_9
REMARK    3  A    between atoms: C_6  and  O_8
REMARK    4  A    between atoms: C_10  and  C_12
REMARK    5  A    between atoms: C_14  and  C_24
REMARK    6  A    between atoms: N_20  and  C_21
REMARK    7  A    between atoms: C_21  and  C_22
REMARK    8  A    between atoms: C_21  and  C_23
REMARK                            x       y       z     vdW  Elec       q    Type
REMARK                         _______ _______ _______ _____ _____    ______ ____
ROOT
ATOM      1  C   UNL     1       2.515   1.672  -0.032  0.00  0.00    +0.051 A 
ATOM      2  C   UNL     1       3.366   2.770  -0.039  0.00  0.00    +0.045 A 
ATOM      3  C   UNL     1       2.820   4.060  -0.038  0.00  0.00    +0.109 A 
ATOM      4  N   UNL     1       1.509   4.253  -0.032  0.00  0.00    -0.224 NA
ATOM      5  C   UNL     1       0.653   3.243  -0.025  0.00  0.00    +0.160 A 
ATOM      6  C   UNL     1       1.121   1.913  -0.025  0.00  0.00    +0.051 A 
ATOM      7  C   UNL     1      -0.013   1.074  -0.018  0.00  0.00    +0.145 A 
ATOM      8  N   UNL     1      -1.082   1.819  -0.019  0.00  0.00    -0.177 NA
ATOM      9  N   UNL     1      -0.717   3.170  -0.018  0.00  0.00    -0.244 N 
ENDROOT
BRANCH   3  10
ATOM     10  C   UNL     1       3.722   5.227  -0.046  0.00  0.00    +0.153 A 
ATOM     11  C   UNL     1       3.339   6.533  -0.052  0.00  0.00    +0.051 A 
ATOM     12  C   UNL     1       4.519   7.302  -0.056  0.00  0.00    +0.042 A 
ATOM     13  C   UNL     1       5.554   6.437  -0.060  0.00  0.00    +0.196 A 
ATOM     14  O   UNL     1       5.069   5.186  -0.053  0.00  0.00    -0.461 OA
ENDBRANCH   3  10
BRANCH   1  16
ATOM     15  N   UNL     1       4.382   0.088  -0.039  0.00  0.00    -0.279 N 
ATOM     16  C   UNL     1       3.050   0.294  -0.032  0.00  0.00    +0.249 C 
ATOM     17  O   UNL     1       2.288  -0.654  -0.026  0.00  0.00    -0.270 OA
ATOM     18  H   UNL     1       5.070   0.942  -0.119  0.00  0.00    +0.155 HD
BRANCH  15  23
ATOM     19  C   UNL     1       6.438  -5.191   0.339  0.00  0.00    +0.044 C 
ATOM     20  C   UNL     1       5.894  -3.788   0.240  0.00  0.00    -0.047 A 
ATOM     21  C   UNL     1       4.713  -3.553  -0.440  0.00  0.00    +0.005 A 
ATOM     22  C   UNL     1       4.210  -2.270  -0.534  0.00  0.00    +0.027 A 
ATOM     23  C   UNL     1       4.890  -1.214   0.055  0.00  0.00    +0.076 A 
ATOM     24  C   UNL     1       6.082  -1.450   0.736  0.00  0.00    +0.138 A 
ATOM     25  C   UNL     1       6.577  -2.741   0.830  0.00  0.00    +0.050 A 
BRANCH  24  26
ATOM     26  O   UNL     1       6.755  -0.418   1.311  0.00  0.00    -0.505 OA
ATOM     27  H   UNL     1       7.697  -0.607   1.848  0.00  0.00    +0.292 HD
ENDBRANCH  24  26
ENDBRANCH  15  23
ENDBRANCH   1  16
BRANCH   9  28
ATOM     28  C   UNL     1      -1.637   4.310  -0.016  0.00  0.00    +0.103 C 
ATOM     29  C   UNL     1      -2.525   4.251  -1.260  0.00  0.00    +0.032 C 
ATOM     30  C   UNL     1      -2.513   4.255   1.238  0.00  0.00    +0.032 C 
ENDBRANCH   9  28
TORSDOF 5
