REMARK  Name = ZINC45962006
REMARK  6 active torsions:
REMARK  status: ('A' for Active; 'I' for Inactive)
REMARK    1  A    between atoms: C_1  and  C_2
REMARK    2  A    between atoms: C_7  and  S_8
REMARK    3  A    between atoms: S_8  and  N_11
REMARK    4  A    between atoms: N_11  and  C_12
REMARK    5  A    between atoms: C_13  and  N_23
REMARK    6  A    between atoms: N_23  and  C_24
REMARK                            x       y       z     vdW  Elec       q    Type
REMARK                         _______ _______ _______ _____ _____    ______ ____
ROOT
ATOM      1  C   UNL     1       1.624   1.879   1.443  0.00  0.00    +0.154 A 
ATOM      2  C   UNL     1       0.798   1.786   0.337  0.00  0.00    +0.068 A 
ATOM      3  C   UNL     1       1.212   2.482  -0.891  0.00  0.00    +0.040 A 
ATOM      4  C   UNL     1       0.427   2.433  -2.045  0.00  0.00    +0.013 A 
ATOM      5  C   UNL     1       0.842   3.095  -3.179  0.00  0.00    +0.001 A 
ATOM      6  C   UNL     1       2.031   3.808  -3.178  0.00  0.00    +0.004 A 
ATOM      7  C   UNL     1       2.816   3.865  -2.045  0.00  0.00    +0.047 A 
ATOM      8  C   UNL     1       2.416   3.204  -0.890  0.00  0.00    +0.141 A 
ATOM      9  O   UNL     1       3.174   3.252   0.226  0.00  0.00    -0.421 OA
ATOM     10  C   UNL     1       2.811   2.629   1.358  0.00  0.00    +0.362 A 
ATOM     11  O   UNL     1       3.531   2.711   2.338  0.00  0.00    -0.243 OA
ENDROOT
BRANCH   1  12
ATOM     12  N   UNL     1       1.277   1.234   2.643  0.00  0.00    -0.208 N 
ATOM     13  H   UNL     1       0.423   0.779   2.720  0.00  0.00    +0.174 HD
BRANCH  12  14
ATOM     14  S   UNL     1       2.325   1.249   3.925  0.00  0.00    +0.073 S 
ATOM     15  O   UNL     1       1.768   0.397   4.916  0.00  0.00    -0.150 OA
ATOM     16  O   UNL     1       2.636   2.612   4.179  0.00  0.00    -0.150 OA
BRANCH  14  23
ATOM     17  C   UNL     1       2.512  -1.599   2.925  0.00  0.00    +0.046 C 
ATOM     18  C   UNL     1       3.805  -0.825   2.944  0.00  0.00    -0.024 A 
ATOM     19  C   UNL     1       4.975  -1.422   2.516  0.00  0.00    +0.005 A 
ATOM     20  C   UNL     1       6.161  -0.712   2.534  0.00  0.00    +0.000 A 
ATOM     21  C   UNL     1       6.176   0.597   2.980  0.00  0.00    +0.002 A 
ATOM     22  C   UNL     1       5.005   1.194   3.408  0.00  0.00    +0.029 A 
ATOM     23  C   UNL     1       3.819   0.485   3.386  0.00  0.00    +0.111 A 
ENDBRANCH  14  23
ENDBRANCH  12  14
ENDBRANCH   1  12
BRANCH   2  24
ATOM     24  N   UNL     1      -0.380   1.062   0.385  0.00  0.00    -0.339 N 
ATOM     25  H   UNL     1      -0.361   0.120   0.618  0.00  0.00    +0.146 HD
BRANCH  24  26
ATOM     26  C   UNL     1      -1.655   1.717   0.084  0.00  0.00    +0.070 C 
ATOM     27  C   UNL     1      -2.158   2.451   1.328  0.00  0.00    +0.022 C 
ATOM     28  C   UNL     1      -3.490   3.135   1.014  0.00  0.00    +0.002 C 
ATOM     29  C   UNL     1      -4.517   2.082   0.594  0.00  0.00    +0.000 C 
ATOM     30  C   UNL     1      -4.015   1.347  -0.651  0.00  0.00    +0.002 C 
ATOM     31  C   UNL     1      -2.683   0.663  -0.336  0.00  0.00    +0.022 C 
ENDBRANCH  24  26
ENDBRANCH   2  24
TORSDOF 5
