REMARK  Name = ZINC44906081
REMARK  10 active torsions:
REMARK  status: ('A' for Active; 'I' for Inactive)
REMARK    1  A    between atoms: C_1  and  C_2
REMARK    2  A    between atoms: C_2  and  C_4
REMARK    3  A    between atoms: C_2  and  N_14
REMARK    4  A    between atoms: C_7  and  C_10
REMARK    5  A    between atoms: C_10  and  C_11
REMARK    6  A    between atoms: C_10  and  C_12
REMARK    7  A    between atoms: C_10  and  C_13
REMARK    8  A    between atoms: C_15  and  C_17
REMARK    9  A    between atoms: N_20  and  C_23
REMARK   10  A    between atoms: C_23  and  C_24
REMARK                            x       y       z     vdW  Elec       q    Type
REMARK                         _______ _______ _______ _____ _____    ______ ____
ROOT
ATOM      1  N   UNL     1       0.711  -0.489   1.189  0.00  0.00    -0.309 N 
ATOM      2  C   UNL     1       0.051  -0.633   2.355  0.00  0.00    +0.216 C 
ATOM      3  O   UNL     1      -1.129  -0.361   2.423  0.00  0.00    -0.276 OA
ATOM      4  H   UNL     1       1.654  -0.707   1.135  0.00  0.00    +0.149 HD
ENDROOT
BRANCH   2   5
ATOM      5  C   UNL     1       0.780  -1.133   3.576  0.00  0.00    +0.071 C 
ATOM      6  C   UNL     1       1.340  -2.532   3.302  0.00  0.00    -0.006 C 
ATOM      7  C   UNL     1       2.009  -3.065   4.571  0.00  0.00    -0.078 C 
ATOM      8  N   UNL     1       1.024  -3.134   5.656  0.00  0.00    +0.382 N 
ATOM      9  C   UNL     1       0.536  -1.787   5.973  0.00  0.00    -0.078 C 
ATOM     10  C   UNL     1      -0.191  -1.204   4.759  0.00  0.00    -0.006 C 
ATOM     11  H   UNL     1       0.248  -3.713   5.369  0.00  0.00    -0.081 HD
BRANCH   8  12
ATOM     12  C   UNL     1       1.651  -3.719   6.849  0.00  0.00    -0.043 C 
BRANCH  12  13
ATOM     13  C   UNL     1       0.612  -3.905   7.924  0.00  0.00    -0.062 A 
ATOM     14  C   UNL     1       0.364  -2.889   8.829  0.00  0.00    +0.003 A 
ATOM     15  C   UNL     1      -0.588  -3.058   9.816  0.00  0.00    +0.021 A 
ATOM     16  C   UNL     1      -1.296  -4.244   9.898  0.00  0.00    +0.059 A 
ATOM     17  C   UNL     1      -1.049  -5.261   8.991  0.00  0.00    +0.059 A 
ATOM     18  C   UNL     1      -0.099  -5.088   8.001  0.00  0.00    +0.023 A 
ATOM     19 CL   UNL     1      -1.936  -6.750   9.093  0.00  0.00    -0.082 Cl
ATOM     20 CL   UNL     1      -2.493  -4.457  11.137  0.00  0.00    -0.082 Cl
ENDBRANCH  12  13
ENDBRANCH   8  12
ENDBRANCH   2   5
BRANCH   1  22
ATOM     21  C   UNL     1      -0.019   1.526   0.010  0.00  0.00    +0.033 C 
ATOM     22  C   UNL     1       0.002  -0.004   0.002  0.00  0.00    +0.100 C 
BRANCH  22  23
ATOM     23  C   UNL     1       0.707  -0.490  -1.238  0.00  0.00    -0.027 A 
ATOM     24  C   UNL     1       2.089  -0.511  -1.284  0.00  0.00    +0.006 A 
ATOM     25  C   UNL     1       2.736  -0.957  -2.421  0.00  0.00    +0.004 A 
ATOM     26  C   UNL     1       2.002  -1.382  -3.512  0.00  0.00    -0.042 A 
ATOM     27  C   UNL     1       0.620  -1.362  -3.466  0.00  0.00    +0.004 A 
ATOM     28  C   UNL     1      -0.027  -0.920  -2.327  0.00  0.00    +0.006 A 
BRANCH  26  29
ATOM     29  C   UNL     1       2.707  -1.867  -4.753  0.00  0.00    -0.013 C 
ATOM     30  C   UNL     1       3.582  -3.073  -4.403  0.00  0.00    +0.015 C 
ATOM     31  C   UNL     1       1.671  -2.276  -5.802  0.00  0.00    +0.015 C 
ATOM     32  C   UNL     1       3.584  -0.745  -5.312  0.00  0.00    +0.015 C 
ENDBRANCH  26  29
ENDBRANCH  22  23
ENDBRANCH   1  22
TORSDOF 6
