REMARK  Name = ZINC58949964
REMARK  6 active torsions:
REMARK  status: ('A' for Active; 'I' for Inactive)
REMARK    1  A    between atoms: C_1  and  C_2
REMARK    2  A    between atoms: C_2  and  C_28
REMARK    3  A    between atoms: C_6  and  C_15
REMARK    4  A    between atoms: C_8  and  C_12
REMARK    5  A    between atoms: C_9  and  N_11
REMARK    6  A    between atoms: C_17  and  N_22
REMARK                            x       y       z     vdW  Elec       q    Type
REMARK                         _______ _______ _______ _____ _____    ______ ____
ROOT
ATOM      1  C   UNL     1      -0.023   1.541  -0.013  0.00  0.00    +0.012 C 
ATOM      2  C   UNL     1       0.029   0.015   0.080  0.00  0.00    -0.021 C 
ATOM      3  C   UNL     1       0.760  -0.551  -1.139  0.00  0.00    +0.081 C 
ATOM      4  C   UNL     1       2.176  -0.026  -1.170  0.00  0.00    +0.115 C 
ATOM      5  C   UNL     1       2.830   0.256  -0.029  0.00  0.00    +0.045 C 
ATOM      6  C   UNL     1       4.248   0.772  -0.062  0.00  0.00    +0.097 C 
ATOM      7  C   UNL     1       4.874   0.487  -1.399  0.00  0.00    +0.083 C 
ATOM      8  C   UNL     1       4.099   0.193  -2.473  0.00  0.00    +0.193 C 
ATOM      9  O   UNL     1       2.761   0.150  -2.371  0.00  0.00    -0.446 OA
ATOM     10  C   UNL     1       2.216   0.085   1.227  0.00  0.00    +0.164 C 
ATOM     11  O   UNL     1       2.844   0.333   2.237  0.00  0.00    -0.292 OA
ATOM     12  C   UNL     1       0.796  -0.398   1.341  0.00  0.00    +0.086 C 
ATOM     13  C   UNL     1      -1.394  -0.545   0.137  0.00  0.00    +0.012 C 
ENDROOT
BRANCH   6  14
ATOM     14  C   UNL     1       4.244   2.260   0.176  0.00  0.00    -0.015 A 
ATOM     15  C   UNL     1       3.557   3.096  -0.684  0.00  0.00    +0.038 A 
ATOM     16  C   UNL     1       3.554   4.460  -0.465  0.00  0.00    +0.127 A 
ATOM     17  C   UNL     1       4.237   4.990   0.614  0.00  0.00    +0.034 A 
ATOM     18  C   UNL     1       4.924   4.155   1.475  0.00  0.00    +0.022 A 
ATOM     19  C   UNL     1       4.923   2.788   1.260  0.00  0.00    +0.045 A 
ATOM     20 CL   UNL     1       5.780   1.738   2.344  0.00  0.00    -0.083 Cl
BRANCH  16  21
ATOM     21  N   UNL     1       2.818   5.355  -1.386  0.00  0.00    +0.056 N 
ATOM     22  O   UNL     1       2.221   4.893  -2.330  0.00  0.00    -0.126 OA
ATOM     23  O   UNL     1       2.815   6.549  -1.195  0.00  0.00    -0.126 OA
ENDBRANCH  16  21
ENDBRANCH   6  14
BRANCH   7  24
ATOM     24  C   UNL     1       6.273   0.526  -1.537  0.00  0.00    +0.243 C 
ATOM     25  O   UNL     1       6.950  -0.411  -1.151  0.00  0.00    -0.271 OA
ATOM     26  N   UNL     1       6.865   1.600  -2.096  0.00  0.00    -0.325 N 
ATOM     27  H   UNL     1       6.327   2.346  -2.404  0.00  0.00    +0.145 HD
ATOM     28  H   UNL     1       7.830   1.627  -2.192  0.00  0.00    +0.145 HD
ENDBRANCH   7  24
BRANCH   8  29
ATOM     29  N   UNL     1       4.691  -0.065  -3.682  0.00  0.00    -0.329 N 
ATOM     30  H   UNL     1       5.657  -0.124  -3.745  0.00  0.00    +0.145 HD
ATOM     31  H   UNL     1       4.145  -0.187  -4.473  0.00  0.00    +0.145 HD
ENDBRANCH   8  29
TORSDOF 4
