REMARK  Name = ZINC12123545
REMARK  7 active torsions:
REMARK  status: ('A' for Active; 'I' for Inactive)
REMARK    1  A    between atoms: C_4  and  C_8
REMARK    2  A    between atoms: C_8  and  N_62
REMARK    3  A    between atoms: C_11  and  C_14
REMARK    4  A    between atoms: C_11  and  O_33
REMARK    5  A    between atoms: C_21  and  C_23
REMARK    6  A    between atoms: N_25  and  C_26
REMARK    7  A    between atoms: C_26  and  C_27
REMARK                            x       y       z     vdW  Elec       q    Type
REMARK                         _______ _______ _______ _____ _____    ______ ____
ROOT
ATOM      1  C   UNL     1     -11.385   2.105   0.356  0.00  0.00    -0.015 A 
ATOM      2  C   UNL     1     -10.736   2.983   1.214  0.00  0.00    +0.010 A 
ATOM      3  C   UNL     1      -9.363   3.088   1.209  0.00  0.00    +0.047 A 
ATOM      4  C   UNL     1      -8.612   2.307   0.337  0.00  0.00    +0.136 A 
ATOM      5  C   UNL     1      -9.274   1.419  -0.530  0.00  0.00    +0.021 A 
ATOM      6  C   UNL     1     -10.668   1.328  -0.509  0.00  0.00    +0.018 A 
ATOM      7  C   UNL     1      -8.221   0.759  -1.302  0.00  0.00    +0.063 A 
ATOM      8  C   UNL     1      -7.048   1.280  -0.858  0.00  0.00    +0.190 A 
ATOM      9  O   UNL     1      -7.290   2.187   0.111  0.00  0.00    -0.450 OA
ENDROOT
BRANCH   1  12
ATOM     10  C   UNL     1     -14.929   2.283   1.792  0.00  0.00    -0.075 C 
ATOM     11  C   UNL     1     -13.399   2.322   1.789  0.00  0.00    +0.021 C 
ATOM     12  C   UNL     1     -12.888   2.009   0.380  0.00  0.00    +0.088 C 
ATOM     13  C   UNL     1     -13.482   3.019  -0.606  0.00  0.00    +0.021 C 
ATOM     14  C   UNL     1     -15.009   2.959  -0.533  0.00  0.00    -0.075 C 
ATOM     15  N   UNL     1     -15.437   3.294   0.842  0.00  0.00    +0.383 N 
ATOM     16  H   UNL     1     -15.054   4.212   1.095  0.00  0.00    -0.081 HD
BRANCH  12  17
ATOM     17  O   UNL     1     -13.288   0.688   0.010  0.00  0.00    -0.384 OA
ATOM     18  H   UNL     1     -12.999   0.422  -0.874  0.00  0.00    +0.211 HD
ENDBRANCH  12  17
BRANCH  15  19
ATOM     19  C   UNL     1     -16.912   3.354   0.910  0.00  0.00    -0.039 C 
BRANCH  19  23
ATOM     20  C   UNL     1     -18.370   5.696  -2.354  0.00  0.00    +0.004 A 
ATOM     21  C   UNL     1     -18.229   4.329  -2.496  0.00  0.00    +0.038 A 
ATOM     22  C   UNL     1     -17.756   3.569  -1.439  0.00  0.00    +0.126 A 
ATOM     23  C   UNL     1     -17.426   4.180  -0.241  0.00  0.00    -0.010 A 
ATOM     24  C   UNL     1     -17.574   5.548  -0.100  0.00  0.00    +0.045 A 
ATOM     25  C   UNL     1     -18.041   6.306  -1.159  0.00  0.00    +0.020 A 
ATOM     26 CL   UNL     1     -17.167   6.314   1.404  0.00  0.00    -0.083 Cl
ATOM     27  F   UNL     1     -17.618   2.232  -1.577  0.00  0.00    -0.205 F 
ENDBRANCH  19  23
ENDBRANCH  15  19
ENDBRANCH   1  12
BRANCH   8  28
ATOM     28  C   UNL     1      -5.716   0.907  -1.355  0.00  0.00    +0.279 C 
ATOM     29  O   UNL     1      -5.606   0.071  -2.231  0.00  0.00    -0.267 OA
ATOM     30  N   UNL     1      -4.617   1.492  -0.839  0.00  0.00    -0.306 N 
ATOM     31  H   UNL     1      -4.704   2.158  -0.140  0.00  0.00    +0.149 HD
BRANCH  30  32
ATOM     32  C   UNL     1      -3.289   1.120  -1.334  0.00  0.00    +0.136 C 
BRANCH  32  33
ATOM     33  C   UNL     1      -2.223   1.924  -0.587  0.00  0.00    +0.135 C 
ATOM     34  C   UNL     1      -0.833   1.634  -1.185  0.00  0.00    +0.035 C 
ATOM     35  C   UNL     1      -0.013   1.086   0.008  0.00  0.00    +0.031 C 
ATOM     36  C   UNL     1      -0.810   1.621   1.224  0.00  0.00    +0.160 C 
ATOM     37  O   UNL     1      -2.186   1.524   0.793  0.00  0.00    -0.375 OA
ENDBRANCH  32  33
ENDBRANCH  30  32
ENDBRANCH   8  28
TORSDOF 7
