REMARK  Name = ZINC13135915
REMARK  8 active torsions:
REMARK  status: ('A' for Active; 'I' for Inactive)
REMARK    1  A    between atoms: C_1  and  C_2
REMARK    2  A    between atoms: C_2  and  N_3
REMARK    3  A    between atoms: N_3  and  C_4
REMARK    4  A    between atoms: C_12  and  C_14
REMARK    5  A    between atoms: C_14  and  O_15
REMARK    6  A    between atoms: O_15  and  C_16
REMARK    7  A    between atoms: C_16  and  C_18
REMARK    8  A    between atoms: N_27  and  C_29
REMARK                            x       y       z     vdW  Elec       q    Type
REMARK                         _______ _______ _______ _____ _____    ______ ____
ROOT
ATOM      1  C   UNL     1      -2.426  -1.094   6.000  0.00  0.00    +0.176 A 
ATOM      2  C   UNL     1      -1.940  -0.786   7.355  0.00  0.00    +0.021 A 
ATOM      3  C   UNL     1      -0.655  -0.315   7.604  0.00  0.00    +0.011 A 
ATOM      4  C   UNL     1      -0.272  -0.049   8.902  0.00  0.00    +0.001 A 
ATOM      5  C   UNL     1      -1.152  -0.246   9.958  0.00  0.00    +0.001 A 
ATOM      6  C   UNL     1      -2.430  -0.712   9.732  0.00  0.00    +0.014 A 
ATOM      7  C   UNL     1      -2.836  -0.986   8.430  0.00  0.00    +0.051 A 
ATOM      8  C   UNL     1      -4.178  -1.485   8.101  0.00  0.00    +0.280 A 
ATOM      9  O   UNL     1      -5.002  -1.680   8.976  0.00  0.00    -0.265 OA
ATOM     10  N   UNL     1      -4.476  -1.722   6.807  0.00  0.00    -0.196 N 
ATOM     11  N   UNL     1      -3.654  -1.531   5.846  0.00  0.00    -0.156 NA
ENDROOT
BRANCH  10  12
ATOM     12  C   UNL     1      -5.756  -2.197   6.499  0.00  0.00    +0.069 A 
ATOM     13  C   UNL     1      -6.877  -1.564   7.019  0.00  0.00    +0.028 A 
ATOM     14  C   UNL     1      -8.139  -2.036   6.713  0.00  0.00    +0.002 A 
ATOM     15  C   UNL     1      -8.286  -3.137   5.890  0.00  0.00    +0.000 A 
ATOM     16  C   UNL     1      -7.171  -3.770   5.371  0.00  0.00    +0.002 A 
ATOM     17  C   UNL     1      -5.907  -3.300   5.668  0.00  0.00    +0.028 A 
ENDBRANCH  10  12
BRANCH   1  18
ATOM     18  C   UNL     1      -1.547  -0.909   4.831  0.00  0.00    +0.361 C 
ATOM     19  O   UNL     1      -0.411  -0.505   4.982  0.00  0.00    -0.243 OA
BRANCH  18  20
ATOM     20  O   UNL     1      -2.003  -1.189   3.594  0.00  0.00    -0.451 OA
BRANCH  20  21
ATOM     21  C   UNL     1      -1.097  -0.987   2.507  0.00  0.00    +0.328 C 
BRANCH  21  23
ATOM     22  N   UNL     1      -1.111  -1.237   0.046  0.00  0.00    -0.294 N 
ATOM     23  C   UNL     1      -1.778  -1.349   1.212  0.00  0.00    +0.254 C 
ATOM     24  O   UNL     1      -2.925  -1.742   1.219  0.00  0.00    -0.272 OA
BRANCH  22  25
ATOM     25  C   UNL     1      -1.772  -1.589  -1.213  0.00  0.00    +0.099 C 
ATOM     26  C   UNL     1      -2.212  -3.062  -1.164  0.00  0.00    +0.046 C 
ATOM     27  C   UNL     1      -3.173  -3.320  -2.359  0.00  0.00    +0.168 C 
ATOM     28  S   UNL     1      -4.169  -1.770  -2.332  0.00  0.00    -0.029 S 
ATOM     29  O   UNL     1      -5.328  -1.979  -1.537  0.00  0.00    -0.174 OA
ATOM     30  O   UNL     1      -4.310  -1.288  -3.661  0.00  0.00    -0.174 OA
ATOM     31  C   UNL     1      -3.006  -0.678  -1.417  0.00  0.00    +0.188 C 
ENDBRANCH  22  25
BRANCH  22  33
ATOM     32  C   UNL     1       0.292   0.761  -0.100  0.00  0.00    +0.024 C 
ATOM     33  C   UNL     1       0.275  -0.763   0.038  0.00  0.00    +0.105 C 
ENDBRANCH  22  33
ENDBRANCH  21  23
ENDBRANCH  20  21
ENDBRANCH  18  20
ENDBRANCH   1  18
TORSDOF 7
