REMARK  Name = ZINC35245128
REMARK  10 active torsions:
REMARK  status: ('A' for Active; 'I' for Inactive)
REMARK    1  A    between atoms: C_1  and  C_2
REMARK    2  A    between atoms: C_2  and  C_4
REMARK    3  A    between atoms: C_2  and  N_10
REMARK    4  A    between atoms: C_11  and  C_13
REMARK    5  A    between atoms: C_16  and  C_18
REMARK    6  A    between atoms: C_18  and  N_19
REMARK    7  A    between atoms: N_19  and  C_20
REMARK    8  A    between atoms: N_19  and  C_27
REMARK    9  A    between atoms: C_20  and  C_21
REMARK   10  A    between atoms: C_27  and  C_28
REMARK                            x       y       z     vdW  Elec       q    Type
REMARK                         _______ _______ _______ _____ _____    ______ ____
ROOT
ATOM      1  C   UNL     1       3.582  -2.623   5.309  0.00  0.00    -0.002 C 
ENDROOT
BRANCH   1   5
ATOM      2  C   UNL     1       0.434  -1.813   3.642  0.00  0.00    +0.189 A 
ATOM      3  C   UNL     1      -0.019  -1.951   4.923  0.00  0.00    +0.055 A 
ATOM      4  C   UNL     1       1.095  -2.272   5.713  0.00  0.00    +0.043 A 
ATOM      5  C   UNL     1       2.167  -2.315   4.891  0.00  0.00    +0.090 A 
ATOM      6  O   UNL     1       1.764  -2.043   3.643  0.00  0.00    -0.457 OA
BRANCH   2   8
ATOM      7  N   UNL     1       0.193  -1.379   1.255  0.00  0.00    -0.302 N 
ATOM      8  C   UNL     1      -0.382  -1.480   2.470  0.00  0.00    +0.280 C 
ATOM      9  O   UNL     1      -1.578  -1.294   2.595  0.00  0.00    -0.267 OA
ATOM     10  H   UNL     1       1.147  -1.528   1.156  0.00  0.00    +0.150 HD
BRANCH   7  12
ATOM     11  C   UNL     1      -0.767   0.473  -0.021  0.00  0.00    +0.033 C 
ATOM     12  C   UNL     1      -0.622  -1.046   0.085  0.00  0.00    +0.100 C 
BRANCH  12  13
ATOM     13  C   UNL     1       0.046  -1.574  -1.159  0.00  0.00    -0.027 A 
ATOM     14  C   UNL     1       1.419  -1.493  -1.294  0.00  0.00    +0.005 A 
ATOM     15  C   UNL     1       2.032  -1.977  -2.435  0.00  0.00    +0.000 A 
ATOM     16  C   UNL     1       1.271  -2.544  -3.440  0.00  0.00    +0.000 A 
ATOM     17  C   UNL     1      -0.102  -2.626  -3.305  0.00  0.00    +0.000 A 
ATOM     18  C   UNL     1      -0.714  -2.146  -2.162  0.00  0.00    +0.005 A 
ENDBRANCH  12  13
ENDBRANCH   7  12
ENDBRANCH   2   8
ENDBRANCH   1   5
BRANCH   1  19
ATOM     19  N   UNL     1       3.814  -4.071   5.220  0.00  0.00    +0.390 N 
ATOM     20  H   UNL     1       3.119  -4.558   5.765  0.00  0.00    -0.080 HD
BRANCH  19  21
ATOM     21  C   UNL     1       5.152  -4.385   5.740  0.00  0.00    -0.042 C 
BRANCH  21  22
ATOM     22  C   UNL     1       5.202  -4.078   7.214  0.00  0.00    -0.064 A 
ATOM     23  C   UNL     1       5.694  -2.862   7.650  0.00  0.00    +0.002 A 
ATOM     24  C   UNL     1       5.741  -2.580   9.003  0.00  0.00    +0.000 A 
ATOM     25  C   UNL     1       5.295  -3.514   9.919  0.00  0.00    +0.000 A 
ATOM     26  C   UNL     1       4.802  -4.730   9.483  0.00  0.00    +0.000 A 
ATOM     27  C   UNL     1       4.752  -5.010   8.130  0.00  0.00    +0.002 A 
ENDBRANCH  21  22
ENDBRANCH  19  21
BRANCH  19  28
ATOM     28  C   UNL     1       3.722  -4.496   3.817  0.00  0.00    -0.039 C 
BRANCH  28  29
ATOM     29  C   UNL     1       3.840  -5.996   3.738  0.00  0.00    -0.029 A 
ATOM     30  C   UNL     1       5.013  -6.575   3.292  0.00  0.00    +0.004 A 
ATOM     31  C   UNL     1       5.122  -7.951   3.220  0.00  0.00    +0.000 A 
ATOM     32  C   UNL     1       4.057  -8.750   3.592  0.00  0.00    +0.003 A 
ATOM     33  C   UNL     1       2.883  -8.174   4.038  0.00  0.00    +0.038 A 
ATOM     34  C   UNL     1       2.775  -6.796   4.117  0.00  0.00    +0.125 A 
ATOM     35  F   UNL     1       1.629  -6.231   4.557  0.00  0.00    -0.205 F 
ENDBRANCH  28  29
ENDBRANCH  19  28
ENDBRANCH   1  19
TORSDOF 9
