REMARK  Name = ZINC26951429
REMARK  6 active torsions:
REMARK  status: ('A' for Active; 'I' for Inactive)
REMARK    1  A    between atoms: C_1  and  C_2
REMARK    2  A    between atoms: C_2  and  C_3
REMARK    3  A    between atoms: C_2  and  N_4
REMARK    4  A    between atoms: C_9  and  S_11
REMARK    5  A    between atoms: S_11  and  C_12
REMARK    6  A    between atoms: C_14  and  C_20
REMARK                            x       y       z     vdW  Elec       q    Type
REMARK                         _______ _______ _______ _____ _____    ______ ____
ROOT
ATOM      1  N   UNL     1      -3.105   3.972   1.464  0.00  0.00    -0.311 N 
ATOM      2  C   UNL     1      -1.852   4.400   1.075  0.00  0.00    +0.221 A 
ATOM      3  N   UNL     1      -0.924   3.512   0.731  0.00  0.00    -0.181 NA
ATOM      4  C   UNL     1       0.284   3.924   0.359  0.00  0.00    +0.230 A 
ATOM      5  N   UNL     1       0.562   5.222   0.322  0.00  0.00    -0.188 NA
ATOM      6  C   UNL     1      -0.368   6.111   0.661  0.00  0.00    +0.194 A 
ATOM      7  N   UNL     1      -1.575   5.699   1.037  0.00  0.00    -0.189 NA
ATOM      8  N   UNL     1       1.252   2.999   0.006  0.00  0.00    -0.228 N 
ATOM      9  C   UNL     1       2.620   3.304  -0.428  0.00  0.00    +0.229 C 
ATOM     10  O   UNL     1       3.290   2.061  -0.684  0.00  0.00    -0.350 OA
ATOM     11  C   UNL     1       2.505   1.056  -0.009  0.00  0.00    +0.233 C 
ATOM     12  C   UNL     1       1.099   1.627   0.000  0.00  0.00    +0.124 C 
ATOM     13  N   UNL     1      -0.011   0.966   0.007  0.00  0.00    -0.287 NA
ATOM     14  H   UNL     1      -3.334   2.897   1.495  0.00  0.00    +0.149 HD
ATOM     15  H   UNL     1      -0.971   1.503   0.019  0.00  0.00    +0.188 HD
ENDROOT
BRANCH   1  17
ATOM     16  C   UNL     1      -4.850   5.440   0.579  0.00  0.00    +0.027 C 
ATOM     17  C   UNL     1      -4.130   4.950   1.838  0.00  0.00    +0.067 C 
ATOM     18  C   UNL     1      -5.141   4.295   2.781  0.00  0.00    +0.027 C 
ENDBRANCH   1  17
BRANCH   6  19
ATOM     19  S   UNL     1      -0.000   7.834   0.612  0.00  0.00    -0.089 S 
ATOM     20  C   UNL     1      -1.588   8.510   1.157  0.00  0.00    +0.093 C 
ENDBRANCH   6  19
BRANCH   9  21
ATOM     21  C   UNL     1       2.583   4.145  -1.706  0.00  0.00    +0.160 C 
ATOM     22 CL   UNL     1       1.736   3.226  -3.005  0.00  0.00    -0.121 Cl
ENDBRANCH   9  21
TORSDOF 3
