REMARK  Name = ZINC21501119
REMARK  5 active torsions:
REMARK  status: ('A' for Active; 'I' for Inactive)
REMARK    1  A    between atoms: C_1  and  C_2
REMARK    2  A    between atoms: C_2  and  C_4
REMARK    3  A    between atoms: C_2  and  N_12
REMARK    4  A    between atoms: C_16  and  C_19
REMARK    5  A    between atoms: C_19  and  N_21
REMARK                            x       y       z     vdW  Elec       q    Type
REMARK                         _______ _______ _______ _____ _____    ______ ____
ROOT
ATOM      1  N   UNL     1      -0.115   4.066  -0.559  0.00  0.00    -0.322 N 
ATOM      2  C   UNL     1      -0.163   5.280  -1.225  0.00  0.00    +0.119 A 
ATOM      3  C   UNL     1       0.998   6.042  -1.348  0.00  0.00    +0.044 A 
ATOM      4  C   UNL     1       0.947   7.240  -2.008  0.00  0.00    +0.015 A 
ATOM      5  C   UNL     1      -0.282   7.660  -2.540  0.00  0.00    +0.021 A 
ATOM      6  C   UNL     1      -1.405   6.845  -2.379  0.00  0.00    +0.123 A 
ATOM      7  N   UNL     1      -1.310   5.697  -1.741  0.00  0.00    -0.240 NA
ATOM      8  H   UNL     1      -1.026   3.458  -0.457  0.00  0.00    +0.148 HD
ENDROOT
BRANCH   1  10
ATOM      9  C   UNL     1       1.338   4.195   1.404  0.00  0.00    +0.033 C 
ATOM     10  C   UNL     1       1.149   3.593   0.010  0.00  0.00    +0.100 C 
BRANCH  10  11
ATOM     11  C   UNL     1       1.123   2.089   0.112  0.00  0.00    -0.009 A 
ATOM     12  C   UNL     1      -0.083   1.427   0.248  0.00  0.00    +0.008 A 
ATOM     13  C   UNL     1      -0.109   0.049   0.341  0.00  0.00    +0.020 A 
ATOM     14  C   UNL     1       1.073  -0.670   0.298  0.00  0.00    +0.042 A 
ATOM     15  C   UNL     1       2.280  -0.008   0.162  0.00  0.00    +0.040 A 
ATOM     16  C   UNL     1       2.305   1.372   0.069  0.00  0.00    +0.047 A 
ATOM     17 CL   UNL     1       3.819   2.204  -0.101  0.00  0.00    -0.083 Cl
ATOM     18 CL   UNL     1       1.041  -2.402   0.414  0.00  0.00    -0.083 Cl
ENDBRANCH  10  11
ENDBRANCH   1  10
BRANCH   5  19
ATOM     19  C   UNL     1      -0.387   8.943  -3.258  0.00  0.00    +0.078 C 
ATOM     20  S   UNL     1       0.917   9.495  -4.220  0.00  0.00    -0.035 S 
BRANCH  19  21
ATOM     21  N   UNL     1      -1.510   9.682  -3.157  0.00  0.00    -0.352 N 
ATOM     22  H   UNL     1      -1.588  10.640  -3.692  0.00  0.00    +0.143 HD
ATOM     23  H   UNL     1      -2.348   9.328  -2.538  0.00  0.00    +0.143 HD
ENDBRANCH  19  21
ENDBRANCH   5  19
TORSDOF 4
