REMARK  Name = ZINC44272451
REMARK  5 active torsions:
REMARK  status: ('A' for Active; 'I' for Inactive)
REMARK    1  A    between atoms: C_3  and  O_13
REMARK    2  A    between atoms: C_4  and  N_10
REMARK    3  A    between atoms: C_6  and  C_7
REMARK    4  A    between atoms: O_13  and  C_14
REMARK    5  A    between atoms: C_17  and  N_21
REMARK                            x       y       z     vdW  Elec       q    Type
REMARK                         _______ _______ _______ _____ _____    ______ ____
ROOT
ATOM      1  C   UNL     1      -0.017   1.395   0.044  0.00  0.00    +0.017 A 
ATOM      2  C   UNL     1       1.167   2.092  -0.048  0.00  0.00    +0.049 A 
ATOM      3  C   UNL     1       2.380   1.423   0.070  0.00  0.00    +0.159 A 
ATOM      4  C   UNL     1       2.403   0.049   0.282  0.00  0.00    +0.169 A 
ATOM      5  C   UNL     1       1.224  -0.654   0.375  0.00  0.00    +0.049 A 
ATOM      6  C   UNL     1       0.002   0.014   0.257  0.00  0.00    +0.039 A 
ENDROOT
BRANCH   6   7
ATOM      7  C   UNL     1      -1.265  -0.737   0.357  0.00  0.00    +0.242 C 
ATOM      8  O   UNL     1      -1.246  -1.938   0.542  0.00  0.00    -0.270 OA
ATOM      9  N   UNL     1      -2.442  -0.090   0.242  0.00  0.00    -0.325 N 
ATOM     10  H   UNL     1      -2.456   0.868   0.095  0.00  0.00    +0.145 HD
ATOM     11  H   UNL     1      -3.274  -0.584   0.308  0.00  0.00    +0.145 HD
ENDBRANCH   6   7
BRANCH   4  12
ATOM     12  N   UNL     1       3.698  -0.658   0.407  0.00  0.00    +0.060 N 
ATOM     13  O   UNL     1       3.719  -1.853   0.591  0.00  0.00    -0.126 OA
ATOM     14  O   UNL     1       4.734  -0.041   0.325  0.00  0.00    -0.126 OA
ENDBRANCH   4  12
BRANCH   3  15
ATOM     15  O   UNL     1       3.545   2.113  -0.022  0.00  0.00    -0.453 OA
BRANCH  15  16
ATOM     16  C   UNL     1       3.478   3.468  -0.119  0.00  0.00    +0.143 A 
ATOM     17  C   UNL     1       3.486   4.075  -1.366  0.00  0.00    +0.049 A 
ATOM     18  C   UNL     1       3.418   5.451  -1.466  0.00  0.00    +0.026 A 
ATOM     19  C   UNL     1       3.342   6.227  -0.317  0.00  0.00    +0.026 A 
ATOM     20  C   UNL     1       3.334   5.620   0.931  0.00  0.00    +0.041 A 
ATOM     21  C   UNL     1       3.397   4.243   1.030  0.00  0.00    +0.062 A 
ATOM     22 BR   UNL     1       3.379   3.414   2.729  0.00  0.00    -0.046 Br
BRANCH  19  23
ATOM     23  N   UNL     1       3.273   7.621  -0.418  0.00  0.00    -0.358 N 
ATOM     24  H   UNL     1       3.279   8.045  -1.290  0.00  0.00    +0.142 HD
ATOM     25  H   UNL     1       3.220   8.163   0.385  0.00  0.00    +0.142 HD
ENDBRANCH  19  23
ENDBRANCH  15  16
ENDBRANCH   3  15
TORSDOF 5
