REMARK  Name = ZINC21230535
REMARK  11 active torsions:
REMARK  status: ('A' for Active; 'I' for Inactive)
REMARK    1  A    between atoms: C_1  and  C_2
REMARK    2  A    between atoms: C_2  and  O_3
REMARK    3  A    between atoms: O_3  and  C_4
REMARK    4  A    between atoms: C_7  and  N_10
REMARK    5  A    between atoms: C_11  and  C_27
REMARK    6  A    between atoms: C_14  and  S_15
REMARK    7  A    between atoms: S_15  and  C_16
REMARK    8  A    between atoms: C_16  and  C_18
REMARK    9  A    between atoms: C_16  and  C_21
REMARK   10  A    between atoms: C_18  and  C_19
REMARK   11  A    between atoms: C_18  and  C_20
REMARK                            x       y       z     vdW  Elec       q    Type
REMARK                         _______ _______ _______ _____ _____    ______ ____
ROOT
ATOM      1  N   UNL     1       3.838   1.481   0.600  0.00  0.00    -0.270 N 
ATOM      2  C   UNL     1       2.595   0.897   0.709  0.00  0.00    +0.169 A 
ATOM      3  N   UNL     1       2.733  -0.367   0.381  0.00  0.00    -0.128 NA
ATOM      4  N   UNL     1       3.959  -0.612   0.083  0.00  0.00    -0.122 NA
ATOM      5  C   UNL     1       4.681   0.480   0.202  0.00  0.00    +0.197 A 
ENDROOT
BRANCH   2   6
ATOM      6  C   UNL     1       1.341   1.568   1.113  0.00  0.00    +0.021 A 
ATOM      7  C   UNL     1       0.108   0.975   0.835  0.00  0.00    +0.012 A 
ATOM      8  C   UNL     1      -1.059   1.606   1.214  0.00  0.00    +0.002 A 
ATOM      9  C   UNL     1      -1.009   2.824   1.869  0.00  0.00    +0.020 A 
ATOM     10  C   UNL     1       0.210   3.415   2.153  0.00  0.00    +0.042 A 
ATOM     11  C   UNL     1       1.385   2.796   1.774  0.00  0.00    +0.031 A 
ATOM     12 CL   UNL     1       0.262   4.939   2.982  0.00  0.00    -0.084 Cl
ENDBRANCH   2   6
BRANCH   1  16
ATOM     13  C   UNL     1       4.825   5.467   1.335  0.00  0.00    +0.121 A 
ATOM     14  C   UNL     1       5.301   4.469   2.173  0.00  0.00    +0.047 A 
ATOM     15  C   UNL     1       4.974   3.149   1.930  0.00  0.00    +0.030 A 
ATOM     16  C   UNL     1       4.170   2.822   0.847  0.00  0.00    +0.051 A 
ATOM     17  C   UNL     1       3.699   3.820   0.006  0.00  0.00    +0.030 A 
ATOM     18  C   UNL     1       4.021   5.140   0.253  0.00  0.00    +0.047 A 
BRANCH  13  19
ATOM     19  O   UNL     1       5.147   6.766   1.575  0.00  0.00    -0.492 OA
BRANCH  19  21
ATOM     20  C   UNL     1       5.089   9.134   1.099  0.00  0.00    +0.048 C 
ATOM     21  C   UNL     1       4.623   7.741   0.672  0.00  0.00    +0.225 C 
ENDBRANCH  19  21
ENDBRANCH  13  19
ENDBRANCH   1  16
BRANCH   5  22
ATOM     22  S   UNL     1       6.410   0.628  -0.100  0.00  0.00    -0.073 S 
BRANCH  22  23
ATOM     23  C   UNL     1       6.766  -1.036  -0.716  0.00  0.00    +0.143 C 
BRANCH  23  24
ATOM     24  C   UNL     1       6.119  -1.221  -2.065  0.00  0.00    +0.234 C 
ATOM     25  O   UNL     1       5.885  -0.257  -2.762  0.00  0.00    -0.274 OA
ATOM     26  N   UNL     1       5.802  -2.457  -2.497  0.00  0.00    -0.239 N 
ATOM     27  C   UNL     1       5.224  -2.623  -3.703  0.00  0.00    +0.303 C 
ATOM     28  O   UNL     1       4.989  -1.656  -4.402  0.00  0.00    -0.253 OA
ATOM     29  N   UNL     1       4.907  -3.859  -4.135  0.00  0.00    -0.313 N 
ATOM     30  H   UNL     1       6.015  -3.332  -1.864  0.00  0.00    +0.159 HD
ATOM     31  H   UNL     1       4.436  -3.994  -5.119  0.00  0.00    +0.146 HD
ATOM     32  H   UNL     1       5.120  -4.734  -3.502  0.00  0.00    +0.146 HD
ENDBRANCH  23  24
BRANCH  23  33
ATOM     33  C   UNL     1       8.279  -1.219  -0.846  0.00  0.00    +0.005 C 
ATOM     34  C   UNL     1       8.925  -1.123   0.537  0.00  0.00    +0.009 C 
ATOM     35  C   UNL     1       8.576  -2.592  -1.454  0.00  0.00    +0.009 C 
ENDBRANCH  23  33
ENDBRANCH  22  23
ENDBRANCH   5  22
TORSDOF 8
