REMARK  Name = ZINC02742748
REMARK  6 active torsions:
REMARK  status: ('A' for Active; 'I' for Inactive)
REMARK    1  A    between atoms: C_1  and  C_2
REMARK    2  A    between atoms: N_6  and  C_7
REMARK    3  A    between atoms: C_7  and  C_8
REMARK    4  A    between atoms: N_10  and  C_11
REMARK    5  A    between atoms: C_12  and  C_22
REMARK    6  A    between atoms: C_17  and  C_21
REMARK                            x       y       z     vdW  Elec       q    Type
REMARK                         _______ _______ _______ _____ _____    ______ ____
ROOT
ATOM      1  C   UNL     1      -3.557   2.475   0.032  0.00  0.00    +0.239 C 
ATOM      2  O   UNL     1      -3.370   3.673   0.037  0.00  0.00    -0.273 OA
ATOM      3  N   UNL     1      -2.507   1.629   0.023  0.00  0.00    -0.277 N 
ATOM      4  H   UNL     1      -2.657   0.671   0.018  0.00  0.00    +0.155 HD
ENDROOT
BRANCH   3   5
ATOM      5  C   UNL     1      -1.213   2.130   0.019  0.00  0.00    +0.090 A 
ATOM      6  C   UNL     1      -0.017   1.428   0.010  0.00  0.00    +0.084 A 
ATOM      7  C   UNL     1       1.214   2.197   0.002  0.00  0.00    -0.018 A 
ATOM      8  C   UNL     1       1.054   3.539   0.010  0.00  0.00    -0.004 A 
ATOM      9  S   UNL     1      -0.699   3.785   0.028  0.00  0.00    -0.077 S 
ATOM     10  C   UNL     1       2.133   4.578   0.004  0.00  0.00    +0.046 C 
ATOM     11  C   UNL     1       3.454   3.900  -0.391  0.00  0.00    -0.009 C 
ATOM     12  C   UNL     1       3.620   2.624   0.439  0.00  0.00    +0.008 C 
ATOM     13  C   UNL     1       2.604   1.573  -0.013  0.00  0.00    +0.037 C 
ATOM     14  C   UNL     1       4.621   4.849  -0.111  0.00  0.00    +0.008 C 
BRANCH   6  15
ATOM     15  C   UNL     1       0.002  -0.004   0.002  0.00  0.00    +0.102 C 
ATOM     16  N   UNL     1       0.018  -1.140  -0.004  0.00  0.00    -0.191 NA
ENDBRANCH   6  15
ENDBRANCH   3   5
BRANCH   1  17
ATOM     17  C   UNL     1      -4.963   1.931   0.036  0.00  0.00    +0.239 C 
BRANCH  17  23
ATOM     18  C   UNL     1      -6.145   3.310  -2.478  0.00  0.00    +0.067 C 
ATOM     19  C   UNL     1      -6.439   3.652  -1.040  0.00  0.00    +0.057 A 
ATOM     20  C   UNL     1      -7.274   4.625  -0.606  0.00  0.00    +0.112 A 
ATOM     21  C   UNL     1      -7.261   4.609   0.793  0.00  0.00    +0.254 A 
ATOM     22  N   UNL     1      -6.452   3.659   1.185  0.00  0.00    -0.144 NA
ATOM     23  N   UNL     1      -5.916   3.043   0.046  0.00  0.00    -0.256 N 
ATOM     24  N   UNL     1      -8.034   5.510   1.678  0.00  0.00    +0.078 N 
ATOM     25  O   UNL     1      -8.762   6.359   1.196  0.00  0.00    -0.125 OA
ATOM     26  O   UNL     1      -7.942   5.402   2.888  0.00  0.00    -0.125 OA
ATOM     27 CL   UNL     1      -8.198   5.700  -1.608  0.00  0.00    -0.078 Cl
ENDBRANCH  17  23
ENDBRANCH   1  17
TORSDOF 4
