REMARK  Name = ZINC36203444
REMARK  11 active torsions:
REMARK  status: ('A' for Active; 'I' for Inactive)
REMARK    1  A    between atoms: C_1  and  C_2
REMARK    2  A    between atoms: C_6  and  C_8
REMARK    3  A    between atoms: C_8  and  N_9
REMARK    4  A    between atoms: N_9  and  C_10
REMARK    5  A    between atoms: N_9  and  C_16
REMARK    6  A    between atoms: C_10  and  C_11
REMARK    7  A    between atoms: C_16  and  C_17
REMARK    8  A    between atoms: C_20  and  C_22
REMARK    9  A    between atoms: C_22  and  C_23
REMARK   10  A    between atoms: C_22  and  C_28
REMARK   11  A    between atoms: C_22  and  O_33
REMARK                            x       y       z     vdW  Elec       q    Type
REMARK                         _______ _______ _______ _____ _____    ______ ____
ROOT
ATOM      1  C   UNL     1       0.636  -5.197   3.488  0.00  0.00    +0.089 A 
ATOM      2  C   UNL     1       1.374  -6.234   3.055  0.00  0.00    +0.043 A 
ATOM      3  C   UNL     1       0.470  -7.268   2.718  0.00  0.00    +0.048 A 
ATOM      4  C   UNL     1      -0.767  -6.800   2.966  0.00  0.00    +0.147 A 
ATOM      5  O   UNL     1      -0.659  -5.547   3.438  0.00  0.00    -0.463 OA
ENDROOT
BRANCH   1   6
ATOM      6  C   UNL     1       1.173  -3.869   3.957  0.00  0.00    -0.002 C 
BRANCH   6   7
ATOM      7  N   UNL     1       1.405  -2.998   2.797  0.00  0.00    +0.392 N 
ATOM      8  H   UNL     1       2.008  -3.468   2.139  0.00  0.00    -0.080 HD
BRANCH   7   9
ATOM      9  C   UNL     1       0.122  -2.688   2.152  0.00  0.00    -0.042 C 
BRANCH   9  15
ATOM     10  C   UNL     1       0.688   1.715  -0.159  0.00  0.00    +0.044 C 
ATOM     11  C   UNL     1       0.640   0.209  -0.212  0.00  0.00    -0.050 A 
ATOM     12  C   UNL     1       0.825  -0.446  -1.415  0.00  0.00    +0.003 A 
ATOM     13  C   UNL     1       0.781  -1.827  -1.464  0.00  0.00    +0.000 A 
ATOM     14  C   UNL     1       0.554  -2.552  -0.309  0.00  0.00    +0.002 A 
ATOM     15  C   UNL     1       0.370  -1.897   0.894  0.00  0.00    -0.064 A 
ATOM     16  C   UNL     1       0.418  -0.516   0.943  0.00  0.00    +0.005 A 
ENDBRANCH   9  15
ENDBRANCH   7   9
BRANCH   7  17
ATOM     17  C   UNL     1       2.043  -1.751   3.241  0.00  0.00    -0.002 C 
BRANCH  17  18
ATOM     18  C   UNL     1       3.419  -2.054   3.776  0.00  0.00    +0.089 A 
ATOM     19  C   UNL     1       4.562  -2.028   3.067  0.00  0.00    +0.042 A 
ATOM     20  C   UNL     1       5.604  -2.374   3.957  0.00  0.00    +0.041 A 
ATOM     21  C   UNL     1       5.036  -2.590   5.157  0.00  0.00    +0.195 A 
ATOM     22  O   UNL     1       3.713  -2.389   5.043  0.00  0.00    -0.470 OA
ENDBRANCH  17  18
ENDBRANCH   7  17
ENDBRANCH   6   7
ENDBRANCH   1   6
BRANCH   4  23
ATOM     23  C   UNL     1      -2.054  -7.555   2.756  0.00  0.00    +0.186 C 
BRANCH  23  24
ATOM     24  C   UNL     1      -3.081  -7.085   3.753  0.00  0.00    +0.034 A 
ATOM     25  C   UNL     1      -4.105  -7.774   4.313  0.00  0.00    +0.015 A 
ATOM     26  C   UNL     1      -4.931  -7.131   5.215  0.00  0.00    +0.008 A 
ATOM     27  C   UNL     1      -4.694  -5.830   5.513  0.00  0.00    +0.045 A 
ATOM     28  S   UNL     1      -3.260  -5.477   4.509  0.00  0.00    -0.098 S 
ENDBRANCH  23  24
BRANCH  23  29
ATOM     29  C   UNL     1      -2.559  -7.306   1.358  0.00  0.00    +0.034 A 
ATOM     30  C   UNL     1      -3.296  -8.117   0.560  0.00  0.00    +0.015 A 
ATOM     31  C   UNL     1      -3.651  -7.675  -0.701  0.00  0.00    +0.008 A 
ATOM     32  C   UNL     1      -3.251  -6.443  -1.101  0.00  0.00    +0.045 A 
ATOM     33  S   UNL     1      -2.351  -5.864   0.327  0.00  0.00    -0.098 S 
ENDBRANCH  23  29
BRANCH  23  34
ATOM     34  O   UNL     1      -1.820  -8.953   2.936  0.00  0.00    -0.371 OA
ATOM     35  H   UNL     1      -1.168  -9.325   2.326  0.00  0.00    +0.212 HD
ENDBRANCH  23  34
ENDBRANCH   4  23
TORSDOF 10
