REMARK  Name = ZINC20680524
REMARK  6 active torsions:
REMARK  status: ('A' for Active; 'I' for Inactive)
REMARK    1  A    between atoms: C_1  and  C_2
REMARK    2  A    between atoms: C_2  and  N_3
REMARK    3  A    between atoms: N_3  and  C_4
REMARK    4  A    between atoms: N_3  and  C_6
REMARK    5  A    between atoms: C_4  and  C_5
REMARK    6  A    between atoms: C_19  and  C_22
REMARK                            x       y       z     vdW  Elec       q    Type
REMARK                         _______ _______ _______ _____ _____    ______ ____
ROOT
ATOM      1  C   UNL     1      -0.015  -2.783  -0.047  0.00  0.00    +0.030 A 
ATOM      2  C   UNL     1      -1.211  -2.079   0.016  0.00  0.00    +0.025 A 
ATOM      3  C   UNL     1      -1.200  -0.699   0.040  0.00  0.00    +0.025 A 
ATOM      4  C   UNL     1       0.002  -0.004   0.002  0.00  0.00    +0.031 A 
ATOM      5  C   UNL     1       1.205  -0.717  -0.046  0.00  0.00    -0.018 A 
ATOM      6  C   UNL     1       1.190  -2.095  -0.078  0.00  0.00    +0.029 A 
ATOM      7  C   UNL     1       2.461   0.062  -0.034  0.00  0.00    +0.049 C 
ATOM      8  C   UNL     1       3.713  -0.456  -0.643  0.00  0.00    -0.023 C 
ATOM      9  C   UNL     1       4.422   0.572  -1.095  0.00  0.00    -0.030 C 
ATOM     10  C   UNL     1       3.665   1.878  -0.848  0.00  0.00    +0.033 C 
ATOM     11  C   UNL     1       2.218   1.377  -0.833  0.00  0.00    +0.029 C 
ATOM     12  C   UNL     1       1.238   2.182   0.002  0.00  0.00    +0.105 C 
ATOM     13  N   UNL     1      -0.017   1.399   0.010  0.00  0.00    -0.336 N 
ATOM     14  H   UNL     1      -0.988   1.916   0.022  0.00  0.00    +0.147 HD
ENDROOT
BRANCH  12  15
ATOM     15  C   UNL     1       1.005   3.532  -0.626  0.00  0.00    -0.027 A 
ATOM     16  C   UNL     1       0.199   3.645  -1.744  0.00  0.00    +0.006 A 
ATOM     17  C   UNL     1      -0.019   4.883  -2.317  0.00  0.00    +0.015 A 
ATOM     18  C   UNL     1       0.579   6.009  -1.779  0.00  0.00    +0.018 A 
ATOM     19  C   UNL     1       1.390   5.895  -0.665  0.00  0.00    +0.015 A 
ATOM     20  C   UNL     1       1.603   4.657  -0.088  0.00  0.00    +0.006 A 
ATOM     21 BR   UNL     1       0.288   7.703  -2.568  0.00  0.00    -0.050 Br
ENDBRANCH  12  15
BRANCH   1  22
ATOM     22  N   UNL     1      -0.026  -4.182  -0.080  0.00  0.00    -0.330 N 
BRANCH  22  24
ATOM     23  C   UNL     1      -1.800  -5.123  -1.477  0.00  0.00    +0.024 C 
ATOM     24  C   UNL     1      -1.300  -4.906  -0.047  0.00  0.00    +0.102 C 
ENDBRANCH  22  24
BRANCH  22  25
ATOM     25  C   UNL     1       1.236  -4.923  -0.148  0.00  0.00    +0.102 C 
ATOM     26  C   UNL     1       1.732  -5.215   1.270  0.00  0.00    +0.024 C 
ENDBRANCH  22  25
ENDBRANCH   1  22
TORSDOF 4
