REMARK  Name = ZINC04523126
REMARK  9 active torsions:
REMARK  status: ('A' for Active; 'I' for Inactive)
REMARK    1  A    between atoms: C_1  and  C_2
REMARK    2  A    between atoms: C_4  and  C_23
REMARK    3  A    between atoms: C_5  and  N_11
REMARK    4  A    between atoms: C_6  and  S_8
REMARK    5  A    between atoms: N_12  and  C_13
REMARK    6  A    between atoms: C_15  and  O_21
REMARK    7  A    between atoms: C_16  and  N_20
REMARK    8  A    between atoms: C_18  and  C_19
REMARK    9  A    between atoms: O_21  and  C_22
REMARK                            x       y       z     vdW  Elec       q    Type
REMARK                         _______ _______ _______ _____ _____    ______ ____
ROOT
ATOM      1  N   UNL     1      -2.288  -0.089   0.035  0.00  0.00    -0.147 NA
ATOM      2  N   UNL     1      -1.165  -0.722  -0.018  0.00  0.00    -0.149 NA
ENDROOT
BRANCH   1   7
ATOM      3  C   UNL     1      -7.148  -2.957   0.040  0.00  0.00    +0.044 C 
ATOM      4  C   UNL     1      -5.851  -2.191   0.038  0.00  0.00    -0.048 A 
ATOM      5  C   UNL     1      -4.872  -2.495  -0.893  0.00  0.00    +0.009 A 
ATOM      6  C   UNL     1      -3.682  -1.798  -0.900  0.00  0.00    -0.021 A 
ATOM      7  C   UNL     1      -3.465  -0.783   0.036  0.00  0.00    +0.116 A 
ATOM      8  C   UNL     1      -4.455  -0.485   0.976  0.00  0.00    +0.147 A 
ATOM      9  C   UNL     1      -5.643  -1.187   0.968  0.00  0.00    +0.035 A 
ATOM     10  C   UNL     1      -2.619  -2.131  -1.914  0.00  0.00    +0.046 C 
BRANCH   8  11
ATOM     11  S   UNL     1      -4.190   0.788   2.165  0.00  0.00    +0.142 S 
ATOM     12  O   UNL     1      -3.726   0.149   3.347  0.00  0.00    -0.140 OA
ATOM     13  O   UNL     1      -3.450   1.808   1.509  0.00  0.00    -0.140 OA
ATOM     14  O   UNL     1      -5.551   1.383   2.498  0.00  0.00    -0.043 OA
ENDBRANCH   8  11
ENDBRANCH   1   7
BRANCH   2  15
ATOM     15  C   UNL     1       0.010  -0.029  -0.018  0.00  0.00    +0.093 A 
ATOM     16  C   UNL     1      -0.001   1.369   0.038  0.00  0.00    +0.077 A 
ATOM     17  C   UNL     1       1.191   2.066   0.037  0.00  0.00    +0.143 A 
ATOM     18  C   UNL     1       2.403   1.375  -0.021  0.00  0.00    +0.067 A 
ATOM     19  C   UNL     1       2.413  -0.013  -0.077  0.00  0.00    +0.032 A 
ATOM     20  C   UNL     1       1.228  -0.715  -0.076  0.00  0.00    -0.021 A 
ATOM     21  C   UNL     1       1.242  -2.220  -0.138  0.00  0.00    +0.046 C 
BRANCH  18  22
ATOM     22  N   UNL     1       3.606   2.081  -0.022  0.00  0.00    -0.355 N 
ATOM     23  H   UNL     1       4.449   1.603  -0.063  0.00  0.00    +0.142 HD
ATOM     24  H   UNL     1       3.600   3.050   0.017  0.00  0.00    +0.142 HD
ENDBRANCH  18  22
BRANCH  17  25
ATOM     25  O   UNL     1       1.184   3.425   0.092  0.00  0.00    -0.493 OA
ATOM     26  C   UNL     1      -0.092   4.065   0.149  0.00  0.00    +0.277 C 
ENDBRANCH  17  25
ENDBRANCH   2  15
TORSDOF 5
