REMARK  Name = ZINC00645106
REMARK  8 active torsions:
REMARK  status: ('A' for Active; 'I' for Inactive)
REMARK    1  A    between atoms: C_1  and  C_2
REMARK    2  A    between atoms: C_2  and  S_3
REMARK    3  A    between atoms: S_3  and  N_6
REMARK    4  A    between atoms: N_6  and  C_7
REMARK    5  A    between atoms: C_10  and  C_13
REMARK    6  A    between atoms: N_15  and  S_26
REMARK    7  A    between atoms: C_16  and  C_19
REMARK    8  A    between atoms: S_26  and  C_29
REMARK                            x       y       z     vdW  Elec       q    Type
REMARK                         _______ _______ _______ _____ _____    ______ ____
ROOT
ATOM      1  C   UNL     1      -4.769  -2.418   1.123  0.00  0.00    +0.070 C 
ATOM      2  N   UNL     1      -5.161  -3.518   0.581  0.00  0.00    -0.167 NA
ATOM      3  N   UNL     1      -6.423  -3.939   0.995  0.00  0.00    -0.120 N 
ATOM      4  C   UNL     1      -6.955  -2.968   1.964  0.00  0.00    +0.156 C 
ATOM      5  C   UNL     1      -5.833  -1.916   2.073  0.00  0.00    +0.088 C 
ENDROOT
BRANCH   4   6
ATOM      6  C   UNL     1      -7.194  -3.627   3.298  0.00  0.00    +0.012 A 
ATOM      7  C   UNL     1      -6.504  -4.776   3.635  0.00  0.00    +0.008 A 
ATOM      8  C   UNL     1      -6.719  -5.377   4.861  0.00  0.00    +0.000 A 
ATOM      9  C   UNL     1      -7.632  -4.836   5.747  0.00  0.00    +0.003 A 
ATOM     10  C   UNL     1      -8.327  -3.690   5.410  0.00  0.00    +0.039 A 
ATOM     11  C   UNL     1      -8.108  -3.084   4.185  0.00  0.00    +0.128 A 
ATOM     12  F   UNL     1      -8.786  -1.963   3.854  0.00  0.00    -0.205 F 
ENDBRANCH   4   6
BRANCH   1  16
ATOM     13  C   UNL     1      -1.054  -0.504   0.373  0.00  0.00    +0.048 A 
ATOM     14  C   UNL     1      -1.954   0.058   1.272  0.00  0.00    +0.025 A 
ATOM     15  C   UNL     1      -3.163  -0.558   1.514  0.00  0.00    +0.011 A 
ATOM     16  C   UNL     1      -3.479  -1.753   0.863  0.00  0.00    -0.002 A 
ATOM     17  C   UNL     1      -2.569  -2.317  -0.035  0.00  0.00    +0.011 A 
ATOM     18  C   UNL     1      -1.365  -1.693  -0.276  0.00  0.00    +0.025 A 
BRANCH  13  19
ATOM     19  N   UNL     1       0.167   0.126   0.126  0.00  0.00    -0.221 N 
ATOM     20  H   UNL     1       0.878   0.080   0.784  0.00  0.00    +0.173 HD
BRANCH  19  21
ATOM     21  S   UNL     1       0.402   0.950  -1.291  0.00  0.00    +0.043 S 
ATOM     22  O   UNL     1       1.726   1.458  -1.200  0.00  0.00    -0.155 OA
ATOM     23  O   UNL     1       0.049   0.026  -2.311  0.00  0.00    -0.155 OA
BRANCH  21  25
ATOM     24  C   UNL     1      -0.604   3.204  -2.470  0.00  0.00    +0.030 C 
ATOM     25  C   UNL     1      -0.794   2.313  -1.241  0.00  0.00    +0.185 C 
ENDBRANCH  21  25
ENDBRANCH  19  21
ENDBRANCH  13  19
ENDBRANCH   1  16
BRANCH   3  26
ATOM     26  S   UNL     1      -7.199  -5.309   0.480  0.00  0.00    +0.057 S 
ATOM     27  O   UNL     1      -6.156  -6.234   0.204  0.00  0.00    -0.154 OA
ATOM     28  O   UNL     1      -8.161  -5.582   1.490  0.00  0.00    -0.154 OA
ATOM     29  C   UNL     1      -8.028  -4.825  -1.059  0.00  0.00    +0.220 C 
ENDBRANCH   3  26
TORSDOF 6
