REMARK  Name = ZINC63648731
REMARK  7 active torsions:
REMARK  status: ('A' for Active; 'I' for Inactive)
REMARK    1  A    between atoms: C_4  and  C_7
REMARK    2  A    between atoms: C_9  and  S_18
REMARK    3  A    between atoms: S_18  and  C_19
REMARK    4  A    between atoms: C_19  and  C_20
REMARK    5  A    between atoms: N_22  and  C_23
REMARK    6  A    between atoms: C_23  and  C_24
REMARK    7  A    between atoms: C_24  and  C_25
REMARK                            x       y       z     vdW  Elec       q    Type
REMARK                         _______ _______ _______ _____ _____    ______ ____
ROOT
ATOM      1  S   UNL     1       5.061  -3.778   1.387  0.00  0.00    -0.104 S 
ENDROOT
BRANCH   1   4
ATOM      2  C   UNL     1       3.698  -0.688  -0.038  0.00  0.00    +0.160 C 
ATOM      3  N   UNL     1       3.696  -1.995  -0.051  0.00  0.00    -0.230 NA
ATOM      4  C   UNL     1       4.990  -2.697  -0.068  0.00  0.00    +0.272 C 
ATOM      5  N   UNL     1       6.203  -1.857  -0.071  0.00  0.00    -0.203 N 
ATOM      6  C   UNL     1       6.030  -0.506  -0.056  0.00  0.00    +0.128 C 
ATOM      7  N   UNL     1       4.846   0.027  -0.046  0.00  0.00    -0.215 NA
ATOM      8  C   UNL     1       7.418   0.098  -0.062  0.00  0.00    +0.170 C 
ATOM      9  C   UNL     1       8.342  -1.101  -0.081  0.00  0.00    +0.236 C 
ATOM     10  O   UNL     1       9.555  -1.082  -0.092  0.00  0.00    -0.274 OA
ATOM     11  N   UNL     1       7.555  -2.192  -0.085  0.00  0.00    -0.230 N 
ATOM     12  H   UNL     1       7.889  -3.103  -0.096  0.00  0.00    +0.173 HD
BRANCH   2  16
ATOM     13  C   UNL     1      -0.017   1.379   0.010  0.00  0.00    +0.000 A 
ATOM     14  C   UNL     1       1.169   2.092   0.002  0.00  0.00    +0.001 A 
ATOM     15  C   UNL     1       2.377   1.427  -0.013  0.00  0.00    +0.011 A 
ATOM     16  C   UNL     1       2.402   0.033  -0.021  0.00  0.00    +0.019 A 
ATOM     17  C   UNL     1       1.205  -0.680  -0.013  0.00  0.00    +0.011 A 
ATOM     18  C   UNL     1       0.002  -0.004   0.002  0.00  0.00    +0.001 A 
ENDBRANCH   2  16
ENDBRANCH   1   4
BRANCH   1  19
ATOM     19  C   UNL     1       4.900  -2.637   2.788  0.00  0.00    +0.168 C 
BRANCH  19  20
ATOM     20  C   UNL     1       4.944  -3.416   4.078  0.00  0.00    +0.223 C 
ATOM     21  O   UNL     1       5.071  -4.622   4.054  0.00  0.00    -0.275 OA
ATOM     22  N   UNL     1       4.843  -2.773   5.258  0.00  0.00    -0.315 N 
ATOM     23  H   UNL     1       4.741  -1.808   5.277  0.00  0.00    +0.149 HD
BRANCH  22  24
ATOM     24  C   UNL     1       4.885  -3.530   6.511  0.00  0.00    +0.108 C 
BRANCH  24  25
ATOM     25  C   UNL     1       4.750  -2.568   7.693  0.00  0.00    +0.065 C 
BRANCH  25  26
ATOM     26  C   UNL     1       4.795  -3.359   9.002  0.00  0.00    +0.175 C 
ATOM     27  N   UNL     1       6.135  -3.924   9.204  0.00  0.00    -0.363 N 
ATOM     28  C   UNL     1       6.606  -3.427  10.311  0.00  0.00    +0.060 A 
ATOM     29  C   UNL     1       7.876  -3.609  11.027  0.00  0.00    +0.027 A 
ATOM     30  C   UNL     1       8.090  -2.946  12.181  0.00  0.00    +0.002 A 
ATOM     31  C   UNL     1       7.140  -2.073  12.741  0.00  0.00    +0.002 A 
ATOM     32  C   UNL     1       5.944  -1.834  12.166  0.00  0.00    +0.027 A 
ATOM     33  C   UNL     1       5.601  -2.503  10.903  0.00  0.00    +0.060 A 
ATOM     34  N   UNL     1       4.547  -2.465  10.140  0.00  0.00    -0.363 N 
ATOM     35  H   UNL     1       6.586  -4.553   8.620  0.00  0.00    +0.162 HD
ATOM     36  H   UNL     1       3.745  -1.941  10.294  0.00  0.00    +0.162 HD
ENDBRANCH  25  26
ENDBRANCH  24  25
ENDBRANCH  22  24
ENDBRANCH  19  20
ENDBRANCH   1  19
TORSDOF 7
