REMARK  Name = ZINC03871648
REMARK  16 active torsions:
REMARK  status: ('A' for Active; 'I' for Inactive)
REMARK    1  A    between atoms: C_1  and  C_2
REMARK    2  A    between atoms: C_2  and  C_3
REMARK    3  A    between atoms: C_2  and  C_4
REMARK    4  A    between atoms: C_4  and  C_5
REMARK    5  A    between atoms: C_5  and  C_7
REMARK    6  A    between atoms: C_5  and  C_20
REMARK    7  A    between atoms: C_7  and  C_9
REMARK    8  A    between atoms: C_7  and  C_16
REMARK    9  A    between atoms: C_9  and  S_10
REMARK   10  A    between atoms: S_10  and  C_11
REMARK   11  A    between atoms: N_18  and  O_19
REMARK   12  A    between atoms: N_22  and  C_23
REMARK   13  A    between atoms: C_23  and  C_25
REMARK   14  A    between atoms: C_23  and  C_32
REMARK   15  A    between atoms: C_25  and  C_26
REMARK   16  A    between atoms: N_34  and  C_35
REMARK                            x       y       z     vdW  Elec       q    Type
REMARK                         _______ _______ _______ _____ _____    ______ ____
ROOT
ATOM      1  C   UNL     1      -1.184   5.984  -4.043  0.00  0.00    +0.088 C 
ENDROOT
BRANCH   1   2
ATOM      2  C   UNL     1      -2.100   5.069  -3.271  0.00  0.00    +0.217 C 
ATOM      3  O   UNL     1      -3.047   4.551  -3.825  0.00  0.00    -0.275 OA
ATOM      4  N   UNL     1      -1.867   4.826  -1.966  0.00  0.00    -0.303 N 
ATOM      5  H   UNL     1      -1.065   5.173  -1.544  0.00  0.00    +0.149 HD
BRANCH   4   6
ATOM      6  C   UNL     1      -2.823   4.037  -1.185  0.00  0.00    +0.163 C 
BRANCH   6   7
ATOM      7  C   UNL     1      -3.917   4.938  -0.674  0.00  0.00    +0.233 C 
ATOM      8  O   UNL     1      -3.900   6.122  -0.935  0.00  0.00    -0.274 OA
ATOM      9  N   UNL     1      -4.915   4.428   0.075  0.00  0.00    -0.317 N 
ATOM     10  C   UNL     1      -5.979   5.304   0.572  0.00  0.00    +0.128 C 
ATOM     11  H   UNL     1      -4.930   3.481   0.284  0.00  0.00    +0.148 HD
ENDBRANCH   6   7
BRANCH   6  12
ATOM     12  C   UNL     1      -2.103   3.387  -0.003  0.00  0.00    +0.067 C 
BRANCH  12  13
ATOM     13  C   UNL     1      -1.092   2.394  -0.515  0.00  0.00    -0.045 A 
ATOM     14  C   UNL     1      -1.460   1.078  -0.723  0.00  0.00    +0.004 A 
ATOM     15  C   UNL     1      -0.531   0.166  -1.188  0.00  0.00    +0.000 A 
ATOM     16  C   UNL     1       0.763   0.572  -1.455  0.00  0.00    +0.000 A 
ATOM     17  C   UNL     1       1.130   1.889  -1.251  0.00  0.00    +0.000 A 
ATOM     18  C   UNL     1       0.202   2.800  -0.781  0.00  0.00    +0.004 A 
ENDBRANCH  12  13
ENDBRANCH   6  12
ENDBRANCH   4   6
ENDBRANCH   1   2
BRANCH   1  19
ATOM     19  C   UNL     1      -1.482   7.437  -3.669  0.00  0.00    +0.016 C 
BRANCH  19  21
ATOM     20  C   UNL     1       0.397   7.519  -2.024  0.00  0.00    +0.007 C 
ATOM     21  C   UNL     1      -1.115   7.673  -2.203  0.00  0.00    -0.016 C 
ATOM     22  C   UNL     1      -1.536   9.085  -1.792  0.00  0.00    +0.007 C 
ENDBRANCH  19  21
ENDBRANCH   1  19
BRANCH   1  23
ATOM     23  C   UNL     1      -1.410   5.786  -5.543  0.00  0.00    +0.099 C 
BRANCH  23  24
ATOM     24  C   UNL     1      -1.117   4.354  -5.910  0.00  0.00    +0.240 C 
ATOM     25  O   UNL     1      -0.761   3.569  -5.057  0.00  0.00    -0.273 OA
ATOM     26  N   UNL     1      -1.249   3.946  -7.188  0.00  0.00    -0.197 N 
ATOM     27  H   UNL     1      -1.534   4.573  -7.871  0.00  0.00    +0.182 HD
BRANCH  26  28
ATOM     28  O   UNL     1      -0.973   2.600  -7.534  0.00  0.00    -0.295 OA
ATOM     29  H   UNL     1      -1.097   2.402  -8.472  0.00  0.00    +0.241 HD
ENDBRANCH  26  28
ENDBRANCH  23  24
BRANCH  23  30
ATOM     30  C   UNL     1      -0.480   6.715  -6.326  0.00  0.00    +0.088 C 
BRANCH  30  31
ATOM     31  S   UNL     1      -0.851   6.588  -8.097  0.00  0.00    -0.117 S 
BRANCH  31  32
ATOM     32  C   UNL     1       0.287   7.701  -8.851  0.00  0.00    +0.045 A 
ATOM     33  C   UNL     1       0.449   8.001 -10.171  0.00  0.00    +0.022 A 
ATOM     34  C   UNL     1       1.420   8.918 -10.532  0.00  0.00    +0.009 A 
ATOM     35  C   UNL     1       2.178   9.488  -9.566  0.00  0.00    +0.046 A 
ATOM     36  S   UNL     1       1.524   8.736  -8.085  0.00  0.00    -0.090 S 
ENDBRANCH  31  32
ENDBRANCH  30  31
ENDBRANCH  23  30
ENDBRANCH   1  23
TORSDOF 13
