REMARK  Name = ZINC46842674
REMARK  8 active torsions:
REMARK  status: ('A' for Active; 'I' for Inactive)
REMARK    1  A    between atoms: C_1  and  C_2
REMARK    2  A    between atoms: C_7  and  C_10
REMARK    3  A    between atoms: C_14  and  C_17
REMARK    4  A    between atoms: C_17  and  N_18
REMARK    5  A    between atoms: C_19  and  C_21
REMARK    6  A    between atoms: C_23  and  N_34
REMARK    7  A    between atoms: C_26  and  N_27
REMARK    8  A    between atoms: C_30  and  C_33
REMARK                            x       y       z     vdW  Elec       q    Type
REMARK                         _______ _______ _______ _____ _____    ______ ____
ROOT
ATOM      1  N   UNL     1      -3.510  -5.486  -4.578  0.00  0.00    -0.307 N 
ATOM      2  C   UNL     1      -3.923  -6.432  -5.445  0.00  0.00    +0.246 C 
ATOM      3  O   UNL     1      -5.013  -6.951  -5.304  0.00  0.00    -0.270 OA
ATOM      4  H   UNL     1      -2.640  -5.072  -4.691  0.00  0.00    +0.149 HD
ENDROOT
BRANCH   2   5
ATOM      5  C   UNL     1      -3.053  -6.836  -6.565  0.00  0.00    +0.060 A 
ATOM      6  C   UNL     1      -1.756  -6.326  -6.667  0.00  0.00    +0.047 A 
ATOM      7  C   UNL     1      -0.949  -6.708  -7.715  0.00  0.00    +0.127 A 
ATOM      8  C   UNL     1      -1.415  -7.596  -8.672  0.00  0.00    +0.034 A 
ATOM      9  C   UNL     1      -2.693  -8.107  -8.585  0.00  0.00    +0.026 A 
ATOM     10  C   UNL     1      -3.521  -7.739  -7.532  0.00  0.00    +0.042 A 
BRANCH  10  11
ATOM     11  N   UNL     1      -4.806  -8.258  -7.439  0.00  0.00    -0.329 N 
ATOM     12  C   UNL     1      -5.055  -9.516  -6.722  0.00  0.00    +0.105 C 
ATOM     13  C   UNL     1      -5.808 -10.473  -7.652  0.00  0.00    +0.022 C 
ATOM     14  C   UNL     1      -7.072  -9.784  -8.170  0.00  0.00    -0.011 C 
ATOM     15  C   UNL     1      -6.685  -8.538  -8.970  0.00  0.00    +0.022 C 
ATOM     16  C   UNL     1      -5.942  -7.556  -8.050  0.00  0.00    +0.105 C 
ATOM     17  C   UNL     1      -7.845 -10.748  -9.072  0.00  0.00    +0.007 C 
ENDBRANCH  10  11
BRANCH   7  18
ATOM     18  N   UNL     1       0.425  -6.166  -7.822  0.00  0.00    +0.056 N 
ATOM     19  O   UNL     1       0.835  -5.391  -6.989  0.00  0.00    -0.126 OA
ATOM     20  O   UNL     1       1.137  -6.499  -8.741  0.00  0.00    -0.126 OA
ENDBRANCH   7  18
ENDBRANCH   2   5
BRANCH   1  21
ATOM     21  C   UNL     1      -4.374  -5.084  -3.466  0.00  0.00    +0.141 C 
BRANCH  21  33
ATOM     22  C   UNL     1      -0.530  -1.023   3.228  0.00  0.00    +0.039 C 
ATOM     23  C   UNL     1      -1.433  -0.755   2.022  0.00  0.00    +0.133 C 
ATOM     24  C   UNL     1      -0.986  -1.628   0.844  0.00  0.00    +0.137 C 
ATOM     25  N   UNL     1      -1.743  -1.219  -0.350  0.00  0.00    -0.312 N 
ATOM     26  C   UNL     1      -1.780   0.212  -0.689  0.00  0.00    +0.137 C 
ATOM     27  C   UNL     1      -2.188   0.995   0.564  0.00  0.00    +0.133 C 
ATOM     28  O   UNL     1      -1.338   0.622   1.651  0.00  0.00    -0.371 OA
ATOM     29  C   UNL     1      -3.642   0.673   0.918  0.00  0.00    +0.039 C 
ATOM     30  C   UNL     1      -2.404  -2.158  -1.134  0.00  0.00    +0.099 A 
ATOM     31  C   UNL     1      -3.204  -1.733  -2.190  0.00  0.00    +0.042 A 
ATOM     32  C   UNL     1      -3.856  -2.678  -2.962  0.00  0.00    +0.010 A 
ATOM     33  C   UNL     1      -3.684  -4.021  -2.652  0.00  0.00    -0.014 A 
ATOM     34  C   UNL     1      -2.874  -4.371  -1.590  0.00  0.00    +0.089 A 
ATOM     35  N   UNL     1      -2.261  -3.448  -0.873  0.00  0.00    -0.349 N 
ATOM     36  H   UNL     1      -1.694  -3.722  -0.135  0.00  0.00    +0.167 HD
ENDBRANCH  21  33
ENDBRANCH   1  21
TORSDOF 5
