REMARK  Name = ZINC08781578
REMARK  3 active torsions:
REMARK  status: ('A' for Active; 'I' for Inactive)
REMARK    1  A    between atoms: C_1  and  N_56
REMARK    2  A    between atoms: C_3  and  C_26
REMARK    3  A    between atoms: C_29  and  C_32
REMARK                            x       y       z     vdW  Elec       q    Type
REMARK                         _______ _______ _______ _____ _____    ______ ____
ROOT
ATOM      1  C   UNL     1       7.956   3.419  -0.615  0.00  0.00    -0.094 C 
ATOM      2  C   UNL     1       6.904   2.071   1.130  0.00  0.00    -0.068 C 
ATOM      3  C   UNL     1       5.589   1.264   1.263  0.00  0.00    +0.019 C 
ATOM      4  C   UNL     1       4.913   1.364  -0.114  0.00  0.00    +0.076 C 
ATOM      5  C   UNL     1       5.933   2.104  -0.990  0.00  0.00    +0.056 C 
ATOM      6  C   UNL     1       5.331   2.889  -2.101  0.00  0.00    -0.027 A 
ATOM      7  C   UNL     1       4.603   4.059  -2.137  0.00  0.00    +0.004 A 
ATOM      8  C   UNL     1       4.167   4.505  -3.380  0.00  0.00    +0.000 A 
ATOM      9  C   UNL     1       4.465   3.817  -4.538  0.00  0.00    +0.002 A 
ATOM     10  C   UNL     1       5.227   2.660  -4.520  0.00  0.00    +0.023 A 
ATOM     11  C   UNL     1       5.691   2.218  -3.281  0.00  0.00    +0.036 A 
ATOM     12  N   UNL     1       6.503   1.135  -2.989  0.00  0.00    -0.286 N 
ATOM     13  C   UNL     1       6.835   1.105  -1.678  0.00  0.00    +0.212 C 
ATOM     14  O   UNL     1       7.681   0.405  -1.167  0.00  0.00    -0.277 OA
ATOM     15  C   UNL     1       4.603   0.004  -0.722  0.00  0.00    +0.243 C 
ATOM     16  O   UNL     1       3.545  -0.638  -0.005  0.00  0.00    -0.490 OA
ATOM     17  C   UNL     1       2.362   0.025   0.044  0.00  0.00    +0.131 A 
ATOM     18  C   UNL     1       1.163  -0.668   0.082  0.00  0.00    +0.046 A 
ATOM     19  C   UNL     1      -0.031   0.025   0.124  0.00  0.00    +0.004 A 
ATOM     20  C   UNL     1      -0.041   1.411   0.126  0.00  0.00    +0.001 A 
ATOM     21  C   UNL     1       1.143   2.118   0.091  0.00  0.00    +0.015 A 
ATOM     22  C   UNL     1       2.357   1.429   0.055  0.00  0.00    +0.060 A 
ATOM     23  C   UNL     1       3.636   2.155   0.035  0.00  0.00    +0.176 C 
ATOM     24  O   UNL     1       3.659   3.361   0.160  0.00  0.00    -0.291 OA
ATOM     25  H   UNL     1       6.814   0.495  -3.645  0.00  0.00    +0.155 HD
ATOM     26  N   UNL     1       6.663   2.925  -0.029  0.00  0.00    +0.391 N 
ATOM     27  H   UNL     1       6.092   3.732   0.245  0.00  0.00    -0.080 HD
ENDROOT
BRANCH   3  28
ATOM     28  C   UNL     1       5.887  -0.152   1.682  0.00  0.00    -0.045 A 
ATOM     29  C   UNL     1       7.062  -0.759   1.282  0.00  0.00    +0.004 A 
ATOM     30  C   UNL     1       7.337  -2.057   1.670  0.00  0.00    +0.012 A 
ATOM     31  C   UNL     1       6.432  -2.751   2.451  0.00  0.00    +0.055 A 
ATOM     32  C   UNL     1       5.254  -2.146   2.847  0.00  0.00    +0.012 A 
ATOM     33  C   UNL     1       4.981  -0.847   2.463  0.00  0.00    +0.004 A 
BRANCH  31  34
ATOM     34  C   UNL     1       6.730  -4.167   2.871  0.00  0.00    +0.417 C 
ATOM     35  F   UNL     1       6.226  -5.054   1.913  0.00  0.00    -0.166 F 
ATOM     36  F   UNL     1       8.114  -4.339   2.983  0.00  0.00    -0.166 F 
ATOM     37  F   UNL     1       6.127  -4.424   4.107  0.00  0.00    -0.166 F 
ENDBRANCH  31  34
ENDBRANCH   3  28
TORSDOF 2
