REMARK  Name = ZINC17004203
REMARK  6 active torsions:
REMARK  status: ('A' for Active; 'I' for Inactive)
REMARK    1  A    between atoms: C_1  and  O_2
REMARK    2  A    between atoms: O_2  and  C_3
REMARK    3  A    between atoms: C_6  and  C_9
REMARK    4  A    between atoms: C_19  and  C_21
REMARK    5  A    between atoms: C_24  and  O_27
REMARK    6  A    between atoms: O_27  and  C_28
REMARK                            x       y       z     vdW  Elec       q    Type
REMARK                         _______ _______ _______ _____ _____    ______ ____
ROOT
ATOM      1  C   UNL     1       1.147   3.593   0.011  0.00  0.00    +0.216 C 
ATOM      2  N   UNL     1      -0.008   4.084   0.776  0.00  0.00    -0.274 N 
ATOM      3  C   UNL     1       0.469   4.805   1.808  0.00  0.00    +0.322 C 
ATOM      4  O   UNL     1      -0.232   5.352   2.638  0.00  0.00    -0.251 OA
ATOM      5  N   UNL     1       1.808   4.849   1.811  0.00  0.00    -0.173 N 
ATOM      6  N   UNL     1       2.320   4.121   0.727  0.00  0.00    -0.173 N 
ATOM      7  C   UNL     1       3.660   4.165   0.729  0.00  0.00    +0.322 C 
ATOM      8  O   UNL     1       4.361   3.617  -0.100  0.00  0.00    -0.251 OA
ATOM      9  N   UNL     1       4.135   4.886   1.759  0.00  0.00    -0.274 N 
ATOM     10  C   UNL     1       2.982   5.377   2.527  0.00  0.00    +0.216 C 
ATOM     11  H   UNL     1      -1.029   3.832   0.453  0.00  0.00    +0.152 HD
ATOM     12  H   UNL     1       5.157   5.138   2.079  0.00  0.00    +0.152 HD
ENDROOT
BRANCH   1  16
ATOM     13  C   UNL     1       1.213  -0.680  -0.013  0.00  0.00    +0.120 A 
ATOM     14  C   UNL     1       0.002  -0.004   0.002  0.00  0.00    +0.046 A 
ATOM     15  C   UNL     1      -0.017   1.377   0.010  0.00  0.00    +0.011 A 
ATOM     16  C   UNL     1       1.171   2.086   0.002  0.00  0.00    -0.007 A 
ATOM     17  C   UNL     1       2.379   1.415  -0.013  0.00  0.00    +0.011 A 
ATOM     18  C   UNL     1       2.403   0.033  -0.021  0.00  0.00    +0.046 A 
BRANCH  13  20
ATOM     19  C   UNL     1       2.518  -2.668  -0.036  0.00  0.00    +0.277 C 
ATOM     20  O   UNL     1       1.234  -2.039  -0.020  0.00  0.00    -0.495 OA
ENDBRANCH  13  20
ENDBRANCH   1  16
BRANCH  10  21
ATOM     21  C   UNL     1       2.958   6.883   2.536  0.00  0.00    -0.007 A 
ATOM     22  C   UNL     1       1.750   7.555   2.510  0.00  0.00    +0.011 A 
ATOM     23  C   UNL     1       1.726   8.936   2.523  0.00  0.00    +0.046 A 
ATOM     24  C   UNL     1       2.915   9.649   2.551  0.00  0.00    +0.120 A 
ATOM     25  C   UNL     1       4.127   8.973   2.571  0.00  0.00    +0.046 A 
ATOM     26  C   UNL     1       4.145   7.592   2.563  0.00  0.00    +0.011 A 
BRANCH  24  27
ATOM     27  O   UNL     1       2.894  11.008   2.559  0.00  0.00    -0.495 OA
ATOM     28  C   UNL     1       1.611  11.637   2.538  0.00  0.00    +0.277 C 
ENDBRANCH  24  27
ENDBRANCH  10  21
TORSDOF 4
