REMARK  Name = ZINC12461855
REMARK  8 active torsions:
REMARK  status: ('A' for Active; 'I' for Inactive)
REMARK    1  A    between atoms: C_1  and  C_2
REMARK    2  A    between atoms: C_2  and  C_4
REMARK    3  A    between atoms: C_2  and  O_20
REMARK    4  A    between atoms: N_6  and  C_7
REMARK    5  A    between atoms: C_7  and  C_8
REMARK    6  A    between atoms: N_10  and  C_11
REMARK    7  A    between atoms: O_20  and  C_21
REMARK    8  A    between atoms: C_21  and  C_23
REMARK                            x       y       z     vdW  Elec       q    Type
REMARK                         _______ _______ _______ _____ _____    ______ ____
ROOT
ATOM      1  C   UNL     1      -0.001  -0.043   0.021  0.00  0.00    +0.062 C 
ATOM      2  C   UNL     1      -0.010   1.487   0.029  0.00  0.00    +0.259 C 
ENDROOT
BRANCH   2   3
ATOM      3  C   UNL     1      -0.717   1.979   1.266  0.00  0.00    +0.254 C 
ATOM      4  O   UNL     1      -0.103   2.599   2.109  0.00  0.00    -0.272 OA
ATOM      5  N   UNL     1      -2.030   1.730   1.436  0.00  0.00    -0.304 N 
ATOM      6  H   UNL     1      -2.521   1.234   0.762  0.00  0.00    +0.149 HD
BRANCH   5   7
ATOM      7  C   UNL     1      -2.717   2.208   2.639  0.00  0.00    +0.200 C 
BRANCH   7   8
ATOM      8  C   UNL     1      -4.167   1.800   2.585  0.00  0.00    +0.234 C 
ATOM      9  O   UNL     1      -4.585   1.173   1.635  0.00  0.00    -0.274 OA
ATOM     10  N   UNL     1      -4.998   2.134   3.592  0.00  0.00    -0.282 N 
ATOM     11  H   UNL     1      -4.651   2.579   4.381  0.00  0.00    +0.155 HD
BRANCH  10  12
ATOM     12  C   UNL     1      -6.365   1.837   3.499  0.00  0.00    +0.072 A 
ATOM     13  C   UNL     1      -6.783   0.681   2.856  0.00  0.00    +0.029 A 
ATOM     14  C   UNL     1      -8.130   0.387   2.769  0.00  0.00    +0.043 A 
ATOM     15  C   UNL     1      -9.066   1.250   3.314  0.00  0.00    +0.161 A 
ATOM     16  C   UNL     1      -8.653   2.409   3.953  0.00  0.00    +0.195 A 
ATOM     17  C   UNL     1      -7.303   2.704   4.047  0.00  0.00    +0.182 A 
ATOM     18  F   UNL     1      -6.899   3.833   4.669  0.00  0.00    -0.200 F 
ATOM     19  F   UNL     1      -9.567   3.250   4.484  0.00  0.00    -0.199 F 
ATOM     20  F   UNL     1     -10.383   0.962   3.223  0.00  0.00    -0.202 F 
ENDBRANCH  10  12
ENDBRANCH   7   8
ENDBRANCH   5   7
ENDBRANCH   2   3
BRANCH   2  21
ATOM     21  O   UNL     1       1.356   1.980   0.023  0.00  0.00    -0.449 OA
BRANCH  21  22
ATOM     22  C   UNL     1       1.924   2.193  -1.179  0.00  0.00    +0.341 C 
ATOM     23  O   UNL     1       1.296   1.974  -2.195  0.00  0.00    -0.245 OA
BRANCH  22  24
ATOM     24  C   UNL     1       3.312   2.694  -1.262  0.00  0.00    +0.073 A 
ATOM     25  C   UNL     1       4.406   1.796  -1.305  0.00  0.00    +0.015 A 
ATOM     26  C   UNL     1       4.219   0.408  -1.299  0.00  0.00    +0.011 A 
ATOM     27  C   UNL     1       5.302  -0.417  -1.339  0.00  0.00    +0.001 A 
ATOM     28  C   UNL     1       6.594   0.102  -1.393  0.00  0.00    +0.002 A 
ATOM     29  C   UNL     1       6.811   1.445  -1.409  0.00  0.00    +0.028 A 
ATOM     30  C   UNL     1       5.717   2.329  -1.372  0.00  0.00    +0.072 A 
ATOM     31  N   UNL     1       5.894   3.648  -1.394  0.00  0.00    -0.251 NA
ATOM     32  C   UNL     1       4.889   4.505  -1.371  0.00  0.00    +0.046 A 
ATOM     33  C   UNL     1       3.578   4.064  -1.294  0.00  0.00    -0.012 A 
ATOM     34  C   UNL     1       2.390   4.992  -1.217  0.00  0.00    +0.038 C 
ATOM     35  C   UNL     1       2.665   6.312  -1.935  0.00  0.00    +0.005 C 
ATOM     36  C   UNL     1       3.234   7.304  -0.919  0.00  0.00    +0.001 C 
ATOM     37  C   UNL     1       4.542   6.765  -0.349  0.00  0.00    +0.006 C 
ATOM     38  C   UNL     1       5.244   5.968  -1.451  0.00  0.00    +0.056 C 
ENDBRANCH  22  24
ENDBRANCH  21  22
ENDBRANCH   2  21
TORSDOF 7
