REMARK  Name = ZINC16612939
REMARK  9 active torsions:
REMARK  status: ('A' for Active; 'I' for Inactive)
REMARK    1  A    between atoms: C_1  and  C_2
REMARK    2  A    between atoms: C_2  and  C_3
REMARK    3  A    between atoms: C_6  and  C_9
REMARK    4  A    between atoms: N_19  and  C_28
REMARK    5  A    between atoms: N_21  and  C_22
REMARK    6  A    between atoms: C_28  and  C_29
REMARK    7  A    between atoms: N_31  and  C_32
REMARK    8  A    between atoms: C_32  and  C_34
REMARK    9  A    between atoms: C_32  and  C_35
REMARK                            x       y       z     vdW  Elec       q    Type
REMARK                         _______ _______ _______ _____ _____    ______ ____
ROOT
ATOM      1  C   UNL     1       0.500  10.129   7.559  0.00  0.00    +0.247 C 
ATOM      2  O   UNL     1      -0.590  10.638   7.383  0.00  0.00    -0.270 OA
ATOM      3  N   UNL     1       0.836   9.007   6.893  0.00  0.00    -0.297 N 
ATOM      4  C   UNL     1      -0.048   8.461   5.854  0.00  0.00    +0.110 C 
ATOM      5  C   UNL     1       0.758   8.288   4.562  0.00  0.00    +0.054 C 
ATOM      6  C   UNL     1       2.001   7.451   4.849  0.00  0.00    +0.115 C 
ATOM      7  C   UNL     1       2.883   8.136   5.889  0.00  0.00    +0.054 C 
ATOM      8  C   UNL     1       2.093   8.308   7.192  0.00  0.00    +0.110 C 
ATOM      9  C   UNL     1       1.609   6.071   5.318  0.00  0.00    +0.241 C 
ATOM     10  O   UNL     1       0.751   5.817   6.137  0.00  0.00    -0.273 OA
ATOM     11  N   UNL     1       2.376   5.168   4.671  0.00  0.00    -0.275 N 
ATOM     12  C   UNL     1       3.309   5.866   3.778  0.00  0.00    +0.217 C 
ATOM     13  N   UNL     1       2.765   7.234   3.602  0.00  0.00    -0.300 N 
ENDROOT
BRANCH   1  17
ATOM     14  C   UNL     1       3.249  11.887  10.279  0.00  0.00    -0.048 A 
ATOM     15  C   UNL     1       1.890  11.957  10.531  0.00  0.00    +0.004 A 
ATOM     16  C   UNL     1       0.992  11.388   9.652  0.00  0.00    +0.013 A 
ATOM     17  C   UNL     1       1.457  10.741   8.506  0.00  0.00    +0.037 A 
ATOM     18  C   UNL     1       2.829  10.670   8.260  0.00  0.00    +0.013 A 
ATOM     19  C   UNL     1       3.716  11.248   9.144  0.00  0.00    +0.004 A 
BRANCH  14  21
ATOM     20  C   UNL     1       4.627  11.481  12.300  0.00  0.00    +0.009 C 
ATOM     21  C   UNL     1       4.224  12.512  11.243  0.00  0.00    +0.032 C 
ENDBRANCH  14  21
ENDBRANCH   1  17
BRANCH  13  22
ATOM     22  C   UNL     1       3.797   8.168   3.478  0.00  0.00    +0.032 A 
ATOM     23  C   UNL     1       3.509   9.527   3.478  0.00  0.00    +0.023 A 
ATOM     24  C   UNL     1       4.532  10.447   3.361  0.00  0.00    +0.002 A 
ATOM     25  C   UNL     1       5.840  10.017   3.232  0.00  0.00    +0.000 A 
ATOM     26  C   UNL     1       6.129   8.665   3.227  0.00  0.00    +0.002 A 
ATOM     27  C   UNL     1       5.112   7.739   3.349  0.00  0.00    +0.023 A 
ENDBRANCH  13  22
BRANCH  11  28
ATOM     28  C   UNL     1       2.294   3.715   4.840  0.00  0.00    +0.205 C 
BRANCH  28  29
ATOM     29  C   UNL     1       1.306   3.150   3.852  0.00  0.00    +0.231 C 
ATOM     30  O   UNL     1       0.727   3.888   3.083  0.00  0.00    -0.274 OA
ATOM     31  N   UNL     1       1.065   1.824   3.823  0.00  0.00    -0.307 N 
ATOM     32  H   UNL     1       1.528   1.234   4.438  0.00  0.00    +0.149 HD
BRANCH  31  33
ATOM     33  C   UNL     1       0.105   1.275   2.863  0.00  0.00    +0.100 C 
ATOM     34  C   UNL     1       0.805   1.028   1.525  0.00  0.00    +0.033 C 
BRANCH  33  35
ATOM     35  C   UNL     1      -0.444  -0.026   3.390  0.00  0.00    -0.027 A 
ATOM     36  C   UNL     1      -1.784  -0.326   3.232  0.00  0.00    +0.005 A 
ATOM     37  C   UNL     1      -2.287  -1.519   3.715  0.00  0.00    +0.000 A 
ATOM     38  C   UNL     1      -1.450  -2.413   4.356  0.00  0.00    +0.000 A 
ATOM     39  C   UNL     1      -0.110  -2.114   4.514  0.00  0.00    +0.000 A 
ATOM     40  C   UNL     1       0.393  -0.920   4.031  0.00  0.00    +0.005 A 
ENDBRANCH  33  35
ENDBRANCH  31  33
ENDBRANCH  28  29
ENDBRANCH  11  28
TORSDOF 7
