REMARK  Name = ZINC35831038
REMARK  10 active torsions:
REMARK  status: ('A' for Active; 'I' for Inactive)
REMARK    1  A    between atoms: C_1  and  O_2
REMARK    2  A    between atoms: O_2  and  C_3
REMARK    3  A    between atoms: C_5  and  C_11
REMARK    4  A    between atoms: C_7  and  O_9
REMARK    5  A    between atoms: O_9  and  C_10
REMARK    6  A    between atoms: C_11  and  N_12
REMARK    7  A    between atoms: C_15  and  N_18
REMARK    8  A    between atoms: N_18  and  C_19
REMARK    9  A    between atoms: N_18  and  S_26
REMARK   10  A    between atoms: S_26  and  C_29
REMARK                            x       y       z     vdW  Elec       q    Type
REMARK                         _______ _______ _______ _____ _____    ______ ____
ROOT
ATOM      1  N   UNL     1       2.820  -5.275   2.105  0.00  0.00    +0.382 N 
ATOM      2  C   UNL     1       2.573  -4.677   0.788  0.00  0.00    -0.077 C 
ATOM      3  C   UNL     1       3.802  -4.870  -0.103  0.00  0.00    +0.006 C 
ATOM      4  C   UNL     1       4.079  -6.368  -0.264  0.00  0.00    +0.095 C 
ATOM      5  C   UNL     1       4.262  -6.995   1.121  0.00  0.00    +0.006 C 
ATOM      6  C   UNL     1       3.016  -6.723   1.967  0.00  0.00    -0.077 C 
ATOM      7  H   UNL     1       3.647  -4.862   2.510  0.00  0.00    -0.081 HD
ENDROOT
BRANCH   1   8
ATOM      8  C   UNL     1       1.669  -5.019   2.981  0.00  0.00    -0.043 C 
BRANCH   8  11
ATOM      9  C   UNL     1       0.654  -1.399   2.595  0.00  0.00    +0.124 A 
ATOM     10  C   UNL     1       0.774  -2.763   2.374  0.00  0.00    +0.047 A 
ATOM     11  C   UNL     1       1.541  -3.537   3.223  0.00  0.00    -0.057 A 
ATOM     12  C   UNL     1       2.191  -2.955   4.295  0.00  0.00    +0.047 A 
ATOM     13  C   UNL     1       2.075  -1.591   4.520  0.00  0.00    +0.124 A 
ATOM     14  C   UNL     1       1.310  -0.811   3.666  0.00  0.00    +0.091 A 
BRANCH   9  16
ATOM     15  C   UNL     1      -0.175   0.761   2.045  0.00  0.00    +0.277 C 
ATOM     16  O   UNL     1      -0.101  -0.638   1.760  0.00  0.00    -0.495 OA
ENDBRANCH   9  16
BRANCH  13  17
ATOM     17  O   UNL     1       2.715  -1.018   5.573  0.00  0.00    -0.495 OA
ATOM     18  C   UNL     1       2.551   0.391   5.744  0.00  0.00    +0.277 C 
ENDBRANCH  13  17
ENDBRANCH   8  11
ENDBRANCH   1   8
BRANCH   4  19
ATOM     19  N   UNL     1       5.299  -6.559  -1.053  0.00  0.00    -0.200 N 
BRANCH  19  20
ATOM     20  C   UNL     1       6.530  -6.122  -0.553  0.00  0.00    +0.052 A 
ATOM     21  C   UNL     1       6.817  -4.765  -0.499  0.00  0.00    +0.027 A 
ATOM     22  C   UNL     1       8.033  -4.336  -0.005  0.00  0.00    +0.040 A 
ATOM     23  C   UNL     1       8.966  -5.259   0.437  0.00  0.00    +0.124 A 
ATOM     24  C   UNL     1       8.682  -6.613   0.384  0.00  0.00    +0.040 A 
ATOM     25  C   UNL     1       7.465  -7.046  -0.104  0.00  0.00    +0.027 A 
ATOM     26  F   UNL     1      10.155  -4.838   0.920  0.00  0.00    -0.205 F 
ENDBRANCH  19  20
BRANCH  19  27
ATOM     27  S   UNL     1       5.220  -7.290  -2.536  0.00  0.00    +0.075 S 
ATOM     28  O   UNL     1       6.538  -7.719  -2.848  0.00  0.00    -0.150 OA
ATOM     29  O   UNL     1       4.118  -8.187  -2.488  0.00  0.00    -0.150 OA
BRANCH  27  30
ATOM     30  C   UNL     1       4.804  -6.044  -3.710  0.00  0.00    +0.109 A 
ATOM     31  C   UNL     1       3.477  -5.777  -3.993  0.00  0.00    +0.031 A 
ATOM     32  C   UNL     1       3.150  -4.799  -4.913  0.00  0.00    +0.040 A 
ATOM     33  C   UNL     1       4.151  -4.088  -5.552  0.00  0.00    +0.124 A 
ATOM     34  C   UNL     1       5.479  -4.356  -5.268  0.00  0.00    +0.040 A 
ATOM     35  C   UNL     1       5.804  -5.331  -4.344  0.00  0.00    +0.031 A 
ATOM     36  F   UNL     1       3.832  -3.132  -6.453  0.00  0.00    -0.205 F 
ENDBRANCH  27  30
ENDBRANCH  19  27
ENDBRANCH   4  19
TORSDOF 8
