REMARK  Name = ZINC63162788
REMARK  10 active torsions:
REMARK  status: ('A' for Active; 'I' for Inactive)
REMARK    1  A    between atoms: C_1  and  C_2
REMARK    2  A    between atoms: C_6  and  C_39
REMARK    3  A    between atoms: C_7  and  N_8
REMARK    4  A    between atoms: C_9  and  C_11
REMARK    5  A    between atoms: C_11  and  C_13
REMARK    6  A    between atoms: C_11  and  N_23
REMARK    7  A    between atoms: C_13  and  C_14
REMARK    8  A    between atoms: C_24  and  C_26
REMARK    9  A    between atoms: C_26  and  C_27
REMARK   10  A    between atoms: C_26  and  C_33
REMARK                            x       y       z     vdW  Elec       q    Type
REMARK                         _______ _______ _______ _____ _____    ______ ____
ROOT
ATOM      1  C   UNL     1      -1.119  -0.737   4.281  0.00  0.00    +0.163 C 
ENDROOT
BRANCH   1   3
ATOM      2  N   UNL     1      -0.959  -1.456   1.919  0.00  0.00    -0.284 N 
ATOM      3  C   UNL     1      -0.737  -1.736   3.219  0.00  0.00    +0.238 C 
ATOM      4  O   UNL     1      -0.230  -2.792   3.534  0.00  0.00    -0.273 OA
ATOM      5  H   UNL     1      -1.426  -0.643   1.671  0.00  0.00    +0.155 HD
BRANCH   2  12
ATOM      6  C   UNL     1       1.790  -2.192   1.908  0.00  0.00    +0.045 C 
ATOM      7  C   UNL     1       0.819  -2.723   0.886  0.00  0.00    -0.029 A 
ATOM      8  C   UNL     1       1.253  -3.599  -0.090  0.00  0.00    +0.005 A 
ATOM      9  C   UNL     1       0.362  -4.087  -1.028  0.00  0.00    +0.001 A 
ATOM     10  C   UNL     1      -0.965  -3.701  -0.993  0.00  0.00    +0.005 A 
ATOM     11  C   UNL     1      -1.405  -2.826  -0.019  0.00  0.00    -0.029 A 
ATOM     12  C   UNL     1      -0.515  -2.338   0.928  0.00  0.00    +0.039 A 
ATOM     13  C   UNL     1      -2.852  -2.405   0.019  0.00  0.00    +0.045 C 
ENDBRANCH   2  12
ENDBRANCH   1   3
BRANCH   1  14
ATOM     14  N   UNL     1      -0.779  -1.274   5.601  0.00  0.00    -0.303 N 
ATOM     15  C   UNL     1       0.487  -1.190   6.056  0.00  0.00    +0.225 C 
ATOM     16  O   UNL     1       1.320  -0.576   5.423  0.00  0.00    -0.275 OA
ATOM     17  H   UNL     1      -1.465  -1.689   6.147  0.00  0.00    +0.149 HD
BRANCH  15  18
ATOM     18  C   UNL     1       0.867  -1.860   7.351  0.00  0.00    +0.135 C 
BRANCH  18  19
ATOM     19  C   UNL     1       2.357  -1.754   7.553  0.00  0.00    -0.031 A 
ATOM     20  C   UNL     1       2.943  -0.517   7.743  0.00  0.00    +0.005 A 
ATOM     21  C   UNL     1       4.309  -0.420   7.927  0.00  0.00    +0.000 A 
ATOM     22  C   UNL     1       5.090  -1.561   7.922  0.00  0.00    +0.000 A 
ATOM     23  C   UNL     1       4.504  -2.799   7.734  0.00  0.00    +0.000 A 
ATOM     24  C   UNL     1       3.137  -2.896   7.553  0.00  0.00    +0.005 A 
ENDBRANCH  18  19
BRANCH  18  25
ATOM     25  C   UNL     1       0.157  -1.182   8.495  0.00  0.00    -0.031 A 
ATOM     26  C   UNL     1      -0.332  -1.934   9.547  0.00  0.00    +0.005 A 
ATOM     27  C   UNL     1      -0.984  -1.312  10.596  0.00  0.00    +0.000 A 
ATOM     28  C   UNL     1      -1.146   0.060  10.593  0.00  0.00    +0.000 A 
ATOM     29  C   UNL     1      -0.657   0.812   9.541  0.00  0.00    +0.000 A 
ATOM     30  C   UNL     1      -0.001   0.191   8.494  0.00  0.00    +0.005 A 
ENDBRANCH  18  25
ENDBRANCH  15  18
ENDBRANCH   1  14
BRANCH   1  31
ATOM     31  C   UNL     1      -2.624  -0.470   4.211  0.00  0.00    +0.065 C 
BRANCH  31  32
ATOM     32  C   UNL     1      -2.996   0.576   5.230  0.00  0.00    -0.039 C 
ATOM     33  C   UNL     1      -3.119   1.907   5.021  0.00  0.00    -0.001 A 
ATOM     34  C   UNL     1      -2.948   2.746   3.829  0.00  0.00    +0.010 A 
ATOM     35  C   UNL     1      -3.143   4.080   3.932  0.00  0.00    +0.001 A 
ATOM     36  C   UNL     1      -3.503   4.681   5.146  0.00  0.00    +0.002 A 
ATOM     37  C   UNL     1      -3.679   3.976   6.284  0.00  0.00    +0.026 A 
ATOM     38  C   UNL     1      -3.500   2.565   6.291  0.00  0.00    +0.043 A 
ATOM     39  N   UNL     1      -3.609   1.676   7.248  0.00  0.00    -0.380 N 
ATOM     40  C   UNL     1      -3.314   0.351   6.691  0.00  0.00    +0.144 C 
ATOM     41  H   UNL     1      -3.848   1.862   8.169  0.00  0.00    +0.160 HD
ENDBRANCH  31  32
ENDBRANCH   1  31
TORSDOF 8
