REMARK  Name = ZINC18254833
REMARK  4 active torsions:
REMARK  status: ('A' for Active; 'I' for Inactive)
REMARK    1  A    between atoms: C_4  and  C_7
REMARK    2  A    between atoms: C_7  and  N_8
REMARK    3  A    between atoms: C_10  and  C_17
REMARK    4  A    between atoms: N_23  and  C_24
REMARK                            x       y       z     vdW  Elec       q    Type
REMARK                         _______ _______ _______ _____ _____    ______ ____
ROOT
ATOM      1  C   UNL     1       5.169   0.201   5.202  0.00  0.00    +0.030 C 
ATOM      2  C   UNL     1       5.673   1.448   4.993  0.00  0.00    +0.078 C 
ATOM      3  C   UNL     1       5.332   2.404   3.991  0.00  0.00    +0.256 C 
ATOM      4  O   UNL     1       4.477   2.158   3.159  0.00  0.00    -0.269 OA
ATOM      5  N   UNL     1       5.966   3.563   3.988  0.00  0.00    -0.260 N 
ATOM      6  C   UNL     1       6.933   3.827   4.938  0.00  0.00    +0.166 C 
ATOM      7  N   UNL     1       7.662   4.910   5.094  0.00  0.00    -0.224 NA
ATOM      8  S   UNL     1       6.934   2.326   5.906  0.00  0.00    -0.049 S 
ATOM      9  H   UNL     1       5.753   4.230   3.317  0.00  0.00    +0.157 HD
ENDROOT
BRANCH   1  12
ATOM     10  N   UNL     1       3.290  -0.941   2.292  0.00  0.00    -0.342 N 
ATOM     11  C   UNL     1       4.299  -0.235   2.866  0.00  0.00    +0.095 A 
ATOM     12  C   UNL     1       4.258  -0.393   4.222  0.00  0.00    +0.001 A 
ATOM     13  C   UNL     1       3.114  -1.281   4.505  0.00  0.00    +0.007 A 
ATOM     14  C   UNL     1       2.544  -1.586   3.258  0.00  0.00    +0.050 A 
ATOM     15  C   UNL     1       1.428  -2.413   3.203  0.00  0.00    +0.026 A 
ATOM     16  C   UNL     1       0.890  -2.922   4.365  0.00  0.00    +0.002 A 
ATOM     17  C   UNL     1       1.452  -2.617   5.596  0.00  0.00    +0.001 A 
ATOM     18  C   UNL     1       2.563  -1.805   5.671  0.00  0.00    +0.010 A 
BRANCH  10  19
ATOM     19  C   UNL     1       3.026  -1.004   0.853  0.00  0.00    +0.157 C 
BRANCH  19  23
ATOM     20  C   UNL     1       0.105   1.933  -0.192  0.00  0.00    +0.000 A 
ATOM     21  C   UNL     1       1.449   2.255  -0.216  0.00  0.00    +0.000 A 
ATOM     22  C   UNL     1       2.394   1.305   0.122  0.00  0.00    +0.005 A 
ATOM     23  C   UNL     1       1.996   0.032   0.485  0.00  0.00    -0.028 A 
ATOM     24  C   UNL     1       0.652  -0.290   0.510  0.00  0.00    +0.005 A 
ATOM     25  C   UNL     1      -0.293   0.660   0.171  0.00  0.00    +0.000 A 
ENDBRANCH  19  23
ENDBRANCH  10  19
ENDBRANCH   1  12
BRANCH   7  26
ATOM     26  C   UNL     1       8.627   4.950   6.064  0.00  0.00    +0.086 A 
ATOM     27  C   UNL     1       9.559   3.915   6.170  0.00  0.00    +0.029 A 
ATOM     28  C   UNL     1      10.529   3.962   7.149  0.00  0.00    +0.004 A 
ATOM     29  C   UNL     1      10.583   5.032   8.025  0.00  0.00    +0.021 A 
ATOM     30  C   UNL     1       9.663   6.063   7.926  0.00  0.00    +0.061 A 
ATOM     31  C   UNL     1       8.689   6.031   6.947  0.00  0.00    +0.085 A 
ATOM     32 CL   UNL     1       7.541   7.327   6.819  0.00  0.00    -0.080 Cl
ATOM     33 CL   UNL     1       9.739   7.400   9.031  0.00  0.00    -0.082 Cl
ENDBRANCH   7  26
TORSDOF 4
