REMARK  Name = ZINC17086762
REMARK  8 active torsions:
REMARK  status: ('A' for Active; 'I' for Inactive)
REMARK    1  A    between atoms: C_1  and  C_2
REMARK    2  A    between atoms: C_5  and  C_9
REMARK    3  A    between atoms: C_6  and  C_8
REMARK    4  A    between atoms: C_9  and  N_10
REMARK    5  A    between atoms: C_17  and  C_20
REMARK    6  A    between atoms: C_17  and  O_30
REMARK    7  A    between atoms: C_20  and  C_21
REMARK    8  A    between atoms: C_21  and  C_23
REMARK                            x       y       z     vdW  Elec       q    Type
REMARK                         _______ _______ _______ _____ _____    ______ ____
ROOT
ATOM      1  N   UNL     1      -1.106   9.457  -1.851  0.00  0.00    -0.264 N 
ATOM      2  C   UNL     1      -2.308   9.648  -1.168  0.00  0.00    +0.043 A 
ATOM      3  C   UNL     1      -3.417  10.433  -1.477  0.00  0.00    +0.025 A 
ATOM      4  C   UNL     1      -4.506  10.458  -0.631  0.00  0.00    +0.022 A 
ATOM      5  C   UNL     1      -4.508   9.703   0.530  0.00  0.00    +0.041 A 
ATOM      6  C   UNL     1      -3.409   8.920   0.843  0.00  0.00    +0.028 A 
ATOM      7  C   UNL     1      -2.321   8.895  -0.001  0.00  0.00    +0.016 A 
ATOM      8  C   UNL     1      -0.999   8.165   0.049  0.00  0.00    +0.176 C 
ATOM      9  C   UNL     1      -0.286   8.608  -1.211  0.00  0.00    +0.257 C 
ATOM     10  O   UNL     1       0.818   8.261  -1.573  0.00  0.00    -0.272 OA
ATOM     11 CL   UNL     1      -5.882   9.739   1.590  0.00  0.00    -0.084 Cl
ENDROOT
BRANCH   8  12
ATOM     12  O   UNL     1      -0.255   8.550   1.207  0.00  0.00    -0.374 OA
ATOM     13  H   UNL     1       0.615   8.133   1.272  0.00  0.00    +0.211 HD
ENDBRANCH   8  12
BRANCH   1  14
ATOM     14  C   UNL     1      -0.777  10.109  -3.122  0.00  0.00    +0.149 C 
BRANCH  14  19
ATOM     15  C   UNL     1      -2.191   6.614  -7.502  0.00  0.00    +0.044 C 
ATOM     16  C   UNL     1      -1.822   7.526  -6.359  0.00  0.00    -0.050 A 
ATOM     17  C   UNL     1      -2.161   7.182  -5.064  0.00  0.00    +0.004 A 
ATOM     18  C   UNL     1      -1.818   8.015  -4.016  0.00  0.00    +0.006 A 
ATOM     19  C   UNL     1      -1.146   9.198  -4.264  0.00  0.00    -0.027 A 
ATOM     20  C   UNL     1      -0.808   9.542  -5.559  0.00  0.00    -0.046 A 
ATOM     21  C   UNL     1      -1.146   8.706  -6.607  0.00  0.00    +0.007 A 
ATOM     22  C   UNL     1      -0.070  10.828  -5.829  0.00  0.00    +0.044 C 
ENDBRANCH  14  19
ENDBRANCH   1  14
BRANCH   8  23
ATOM     23  C   UNL     1      -1.222   6.651   0.035  0.00  0.00    +0.129 C 
BRANCH  23  24
ATOM     24  C   UNL     1       0.110   5.948  -0.011  0.00  0.00    +0.167 C 
ATOM     25  O   UNL     1       1.136   6.593  -0.031  0.00  0.00    -0.292 OA
BRANCH  24  26
ATOM     26  C   UNL     1       0.165   4.478  -0.032  0.00  0.00    +0.018 A 
ATOM     27  C   UNL     1       1.400   3.822  -0.075  0.00  0.00    +0.013 A 
ATOM     28  C   UNL     1       1.444   2.445  -0.094  0.00  0.00    +0.020 A 
ATOM     29  C   UNL     1       0.269   1.710  -0.071  0.00  0.00    +0.041 A 
ATOM     30  C   UNL     1      -0.958   2.353  -0.035  0.00  0.00    +0.020 A 
ATOM     31  C   UNL     1      -1.017   3.730  -0.009  0.00  0.00    +0.013 A 
ATOM     32 CL   UNL     1       0.334  -0.025  -0.096  0.00  0.00    -0.084 Cl
ENDBRANCH  24  26
ENDBRANCH  23  24
ENDBRANCH   8  23
TORSDOF 6
