REMARK  Name = ZINC04015056
REMARK  7 active torsions:
REMARK  status: ('A' for Active; 'I' for Inactive)
REMARK    1  A    between atoms: C_1  and  C_2
REMARK    2  A    between atoms: C_2  and  C_13
REMARK    3  A    between atoms: N_3  and  N_4
REMARK    4  A    between atoms: C_5  and  C_7
REMARK    5  A    between atoms: C_18  and  C_37
REMARK    6  A    between atoms: C_29  and  C_36
REMARK    7  A    between atoms: C_32  and  O_35
REMARK                            x       y       z     vdW  Elec       q    Type
REMARK                         _______ _______ _______ _____ _____    ______ ____
ROOT
ATOM      1  C   UNL     1       5.871   0.611   0.111  0.00  0.00    -0.023 C 
ATOM      2  C   UNL     1       5.706   1.347   1.228  0.00  0.00    -0.021 C 
ATOM      3  C   UNL     1       4.245   1.819   1.340  0.00  0.00    +0.032 C 
ATOM      4  C   UNL     1       3.803   1.780  -0.129  0.00  0.00    +0.006 C 
ATOM      5  C   UNL     1       4.552   0.490  -0.576  0.00  0.00    -0.002 C 
ATOM      6  C   UNL     1       4.507   0.443  -2.085  0.00  0.00    +0.012 C 
ATOM      7  C   UNL     1       3.030   0.276  -2.486  0.00  0.00    +0.005 C 
ATOM      8  C   UNL     1       2.162   1.389  -1.912  0.00  0.00    -0.001 C 
ATOM      9  C   UNL     1       2.332   1.523  -0.390  0.00  0.00    -0.003 C 
ATOM     10  C   UNL     1       1.488   2.698   0.108  0.00  0.00    +0.004 C 
ATOM     11  C   UNL     1       0.016   2.441  -0.220  0.00  0.00    +0.004 C 
ATOM     12  C   UNL     1      -0.118   1.095  -0.935  0.00  0.00    -0.002 C 
ATOM     13  C   UNL     1       0.691   1.124  -2.233  0.00  0.00    -0.026 C 
ATOM     14  C   UNL     1       0.558  -0.222  -2.948  0.00  0.00    +0.010 C 
ATOM     15  C   UNL     1      -0.914  -0.484  -3.271  0.00  0.00    +0.032 C 
ATOM     16  C   UNL     1      -1.724  -0.513  -1.974  0.00  0.00    +0.115 C 
ATOM     17  C   UNL     1      -1.591   0.833  -1.258  0.00  0.00    +0.035 C 
ATOM     18  C   UNL     1       0.161   2.236  -3.139  0.00  0.00    +0.012 C 
ATOM     19  C   UNL     1       3.812  -0.731  -0.028  0.00  0.00    +0.016 C 
ENDROOT
BRANCH   1  21
ATOM     20  C   UNL     1       7.575  -1.319   0.164  0.00  0.00    +0.067 C 
ATOM     21  C   UNL     1       7.134   0.027  -0.352  0.00  0.00    +0.060 C 
ATOM     22  N   UNL     1       7.874   0.670  -1.206  0.00  0.00    -0.185 NA
BRANCH  22  23
ATOM     23  N   UNL     1       7.523   1.969  -1.598  0.00  0.00    -0.203 N 
ATOM     24  C   UNL     1       8.341   2.672  -2.406  0.00  0.00    +0.263 C 
ATOM     25  O   UNL     1       9.335   2.149  -2.870  0.00  0.00    -0.268 OA
ATOM     26  H   UNL     1       6.693   2.362  -1.287  0.00  0.00    +0.178 HD
BRANCH  24  27
ATOM     27  C   UNL     1       8.027   4.083  -2.730  0.00  0.00    +0.041 A 
ATOM     28  C   UNL     1       6.950   4.737  -2.124  0.00  0.00    +0.033 A 
ATOM     29  C   UNL     1       6.696   6.055  -2.451  0.00  0.00    +0.111 A 
ATOM     30  N   UNL     1       7.447   6.690  -3.329  0.00  0.00    -0.263 NA
ATOM     31  C   UNL     1       8.468   6.110  -3.927  0.00  0.00    +0.111 A 
ATOM     32  C   UNL     1       8.796   4.796  -3.655  0.00  0.00    +0.033 A 
ENDBRANCH  24  27
ENDBRANCH  22  23
ENDBRANCH   1  21
BRANCH  16  33
ATOM     33  O   UNL     1      -3.099  -0.757  -2.276  0.00  0.00    -0.392 OA
ATOM     34  H   UNL     1      -3.259  -1.595  -2.730  0.00  0.00    +0.210 HD
ENDBRANCH  16  33
TORSDOF 4
