REMARK  Name = ZINC33567403
REMARK  11 active torsions:
REMARK  status: ('A' for Active; 'I' for Inactive)
REMARK    1  A    between atoms: C_1  and  N_2
REMARK    2  A    between atoms: C_7  and  O_9
REMARK    3  A    between atoms: O_9  and  C_10
REMARK    4  A    between atoms: C_10  and  C_11
REMARK    5  A    between atoms: C_10  and  C_15
REMARK    6  A    between atoms: N_19  and  C_20
REMARK    7  A    between atoms: C_22  and  O_31
REMARK    8  A    between atoms: C_23  and  N_28
REMARK    9  A    between atoms: C_25  and  O_26
REMARK   10  A    between atoms: O_26  and  C_27
REMARK   11  A    between atoms: O_31  and  C_32
REMARK                            x       y       z     vdW  Elec       q    Type
REMARK                         _______ _______ _______ _____ _____    ______ ____
ROOT
ATOM      1  C   UNL     1      -3.047  -2.328  -0.678  0.00  0.00    +0.128 C 
ATOM      2  N   UNL     1      -3.681  -1.995   0.600  0.00  0.00    -0.316 N 
ATOM      3  C   UNL     1      -3.222  -0.924   1.339  0.00  0.00    +0.222 A 
ATOM      4  N   UNL     1      -3.797  -0.622   2.499  0.00  0.00    -0.181 NA
ATOM      5  C   UNL     1      -3.354   0.410   3.210  0.00  0.00    +0.227 A 
ATOM      6  N   UNL     1      -2.334   1.137   2.762  0.00  0.00    -0.161 NA
ATOM      7  C   UNL     1      -1.764   0.838   1.601  0.00  0.00    +0.325 A 
ATOM      8  N   UNL     1      -2.205  -0.193   0.891  0.00  0.00    -0.161 NA
ATOM      9  N   UNL     1      -3.950   0.725   4.415  0.00  0.00    -0.280 N 
ATOM     10  H   UNL     1      -4.522  -2.600   0.971  0.00  0.00    +0.149 HD
ATOM     11  H   UNL     1      -4.721   0.064   4.837  0.00  0.00    +0.155 HD
ENDROOT
BRANCH   9  12
ATOM     12  C   UNL     1      -3.572   1.887   5.101  0.00  0.00    +0.079 A 
ATOM     13  C   UNL     1      -3.101   2.986   4.399  0.00  0.00    +0.075 A 
ATOM     14  C   UNL     1      -2.734   4.136   5.080  0.00  0.00    +0.152 A 
ATOM     15  C   UNL     1      -2.825   4.184   6.463  0.00  0.00    +0.171 A 
ATOM     16  C   UNL     1      -3.290   3.087   7.166  0.00  0.00    +0.084 A 
ATOM     17  C   UNL     1      -3.664   1.938   6.490  0.00  0.00    +0.144 A 
BRANCH  15  18
ATOM     18  N   UNL     1      -2.426   5.411   7.188  0.00  0.00    +0.060 N 
ATOM     19  O   UNL     1      -2.507   5.454   8.403  0.00  0.00    -0.126 OA
ATOM     20  O   UNL     1      -2.017   6.378   6.571  0.00  0.00    -0.126 OA
ENDBRANCH  15  18
BRANCH  17  21
ATOM     21  O   UNL     1      -4.120   0.859   7.182  0.00  0.00    -0.493 OA
ATOM     22  C   UNL     1      -4.187   0.982   8.604  0.00  0.00    +0.277 C 
ENDBRANCH  17  21
BRANCH  14  23
ATOM     23  O   UNL     1      -2.278   5.217   4.392  0.00  0.00    -0.493 OA
ATOM     24  C   UNL     1      -2.209   5.099   2.969  0.00  0.00    +0.277 C 
ENDBRANCH  14  23
ENDBRANCH   9  12
BRANCH   7  25
ATOM     25  O   UNL     1      -0.729   1.580   1.145  0.00  0.00    -0.441 OA
BRANCH  25  26
ATOM     26  C   UNL     1      -0.160   1.198  -0.109  0.00  0.00    +0.383 C 
BRANCH  26  27
ATOM     27  C   UNL     1       1.325   1.566  -0.128  0.00  0.00    +0.435 C 
ATOM     28  F   UNL     1       1.465   2.947   0.045  0.00  0.00    -0.166 F 
ATOM     29  F   UNL     1       1.985   0.897   0.907  0.00  0.00    -0.166 F 
ATOM     30  F   UNL     1       1.882   1.192  -1.356  0.00  0.00    -0.166 F 
ENDBRANCH  26  27
BRANCH  26  31
ATOM     31  C   UNL     1      -0.882   1.930  -1.241  0.00  0.00    +0.435 C 
ATOM     32  F   UNL     1      -0.325   1.556  -2.469  0.00  0.00    -0.166 F 
ATOM     33  F   UNL     1      -2.240   1.593  -1.224  0.00  0.00    -0.166 F 
ATOM     34  F   UNL     1      -0.742   3.311  -1.067  0.00  0.00    -0.166 F 
ENDBRANCH  26  31
ENDBRANCH  25  26
ENDBRANCH   7  25
TORSDOF 8
