REMARK  Name = ZINC38897844
REMARK  12 active torsions:
REMARK  status: ('A' for Active; 'I' for Inactive)
REMARK    1  A    between atoms: C_1  and  C_2
REMARK    2  A    between atoms: C_2  and  C_3
REMARK    3  A    between atoms: C_2  and  C_4
REMARK    4  A    between atoms: C_2  and  C_5
REMARK    5  A    between atoms: C_8  and  C_11
REMARK    6  A    between atoms: N_17  and  N_18
REMARK    7  A    between atoms: C_19  and  C_20
REMARK    8  A    between atoms: C_22  and  O_29
REMARK    9  A    between atoms: C_23  and  O_28
REMARK   10  A    between atoms: C_24  and  O_26
REMARK   11  A    between atoms: O_26  and  C_27
REMARK   12  A    between atoms: O_29  and  C_30
REMARK                            x       y       z     vdW  Elec       q    Type
REMARK                         _______ _______ _______ _____ _____    ______ ____
ROOT
ATOM      1  C   UNL     1       2.717  -1.881  -4.759  0.00  0.00    +0.264 C 
ATOM      2  N   UNL     1       1.771  -1.972  -5.882  0.00  0.00    -0.189 NA
ATOM      3  N   UNL     1       2.143  -1.192  -6.762  0.00  0.00    -0.219 N 
ATOM      4  C   UNL     1       3.274  -0.510  -6.435  0.00  0.00    +0.174 C 
ATOM      5  S   UNL     1       4.047   0.644  -7.436  0.00  0.00    -0.015 S 
ATOM      6  N   UNL     1       3.703  -0.878  -5.204  0.00  0.00    -0.172 N 
ATOM      7  H   UNL     1       1.676  -1.076  -7.604  0.00  0.00    +0.176 HD
ENDROOT
BRANCH   1  11
ATOM      8  C   UNL     1       0.723  -0.556  -1.221  0.00  0.00    -0.042 A 
ATOM      9  C   UNL     1       0.053  -1.345  -2.138  0.00  0.00    +0.004 A 
ATOM     10  C   UNL     1       0.698  -1.774  -3.283  0.00  0.00    +0.008 A 
ATOM     11  C   UNL     1       2.013  -1.413  -3.511  0.00  0.00    -0.002 A 
ATOM     12  C   UNL     1       2.682  -0.623  -2.595  0.00  0.00    +0.008 A 
ATOM     13  C   UNL     1       2.035  -0.191  -1.452  0.00  0.00    +0.004 A 
BRANCH   8  15
ATOM     14  C   UNL     1      -0.013   1.440   0.052  0.00  0.00    +0.015 C 
ATOM     15  C   UNL     1       0.019  -0.089   0.027  0.00  0.00    -0.013 C 
ATOM     16  C   UNL     1       0.768  -0.604   1.258  0.00  0.00    +0.015 C 
ATOM     17  C   UNL     1      -1.412  -0.629   0.038  0.00  0.00    +0.015 C 
ENDBRANCH   8  15
ENDBRANCH   1  11
BRANCH   6  18
ATOM     18  N   UNL     1       4.826  -0.413  -4.509  0.00  0.00    -0.183 NA
ATOM     19  C   UNL     1       5.661   0.394  -5.090  0.00  0.00    +0.138 C 
BRANCH  19  20
ATOM     20  C   UNL     1       6.900   0.796  -4.400  0.00  0.00    +0.002 A 
ATOM     21  C   UNL     1       7.180   0.304  -3.122  0.00  0.00    +0.059 A 
ATOM     22  C   UNL     1       8.343   0.683  -2.477  0.00  0.00    +0.166 A 
ATOM     23  C   UNL     1       9.234   1.552  -3.098  0.00  0.00    +0.201 A 
ATOM     24  C   UNL     1       8.958   2.043  -4.371  0.00  0.00    +0.166 A 
ATOM     25  C   UNL     1       7.799   1.664  -5.024  0.00  0.00    +0.059 A 
BRANCH  24  26
ATOM     26  O   UNL     1       9.831   2.893  -4.975  0.00  0.00    -0.491 OA
ATOM     27  C   UNL     1       9.485   3.358  -6.281  0.00  0.00    +0.277 C 
ENDBRANCH  24  26
BRANCH  23  28
ATOM     28  O   UNL     1      10.377   1.923  -2.461  0.00  0.00    -0.501 OA
ATOM     29  H   UNL     1      11.130   1.342  -2.634  0.00  0.00    +0.292 HD
ENDBRANCH  23  28
BRANCH  22  30
ATOM     30  O   UNL     1       8.616   0.205  -1.233  0.00  0.00    -0.491 OA
ATOM     31  C   UNL     1       7.658  -0.682  -0.654  0.00  0.00    +0.277 C 
ENDBRANCH  22  30
ENDBRANCH  19  20
ENDBRANCH   6  18
TORSDOF 7
