REMARK  Name = ZINC62728373
REMARK  6 active torsions:
REMARK  status: ('A' for Active; 'I' for Inactive)
REMARK    1  A    between atoms: C_1  and  C_2
REMARK    2  A    between atoms: C_5  and  C_8
REMARK    3  A    between atoms: C_8  and  O_10
REMARK    4  A    between atoms: O_10  and  C_11
REMARK    5  A    between atoms: C_14  and  C_18
REMARK    6  A    between atoms: C_24  and  C_30
REMARK                            x       y       z     vdW  Elec       q    Type
REMARK                         _______ _______ _______ _____ _____    ______ ____
ROOT
ATOM      1  C   UNL     1      -0.626  -6.324   0.484  0.00  0.00    +0.146 A 
ATOM      2  C   UNL     1      -0.720  -7.048  -0.699  0.00  0.00    +0.048 A 
ATOM      3  C   UNL     1      -0.462  -8.399  -0.705  0.00  0.00    +0.011 A 
ATOM      4  C   UNL     1      -0.104  -9.047   0.486  0.00  0.00    -0.023 A 
ATOM      5  C   UNL     1      -0.010  -8.312   1.676  0.00  0.00    +0.027 A 
ATOM      6  C   UNL     1      -0.265  -6.960   1.669  0.00  0.00    +0.061 A 
ATOM      7 BR   UNL     1      -0.132  -5.965   3.271  0.00  0.00    -0.046 Br
ENDROOT
BRANCH   4   8
ATOM      8  C   UNL     1       0.172 -10.486   0.486  0.00  0.00    +0.024 C 
ATOM      9  C   UNL     1       0.909 -11.046  -0.532  0.00  0.00    +0.081 C 
ATOM     10  C   UNL     1       1.048 -12.522  -0.683  0.00  0.00    +0.144 C 
ATOM     11  N   UNL     1       1.100 -13.346   0.331  0.00  0.00    -0.282 NA
ATOM     12  N   UNL     1       1.119 -12.943  -2.026  0.00  0.00    -0.285 N 
ATOM     13  C   UNL     1       0.686 -14.098  -2.408  0.00  0.00    +0.082 C 
ATOM     14  C   UNL     1       0.815 -14.428  -3.888  0.00  0.00    +0.091 C 
ATOM     15  S   UNL     1       1.846 -12.994  -4.420  0.00  0.00    -0.081 S 
ATOM     16  C   UNL     1       1.634 -12.039  -2.933  0.00  0.00    +0.167 C 
ATOM     17  N   UNL     1       1.893 -10.772  -2.736  0.00  0.00    -0.152 NA
ATOM     18  C   UNL     1       1.605 -10.213  -1.543  0.00  0.00    +0.273 C 
ATOM     19  O   UNL     1       1.913  -9.057  -1.303  0.00  0.00    -0.268 OA
ATOM     20  C   UNL     1       1.546 -15.755  -4.104  0.00  0.00    +0.025 C 
ATOM     21  H   UNL     1       1.047 -13.003   1.237  0.00  0.00    +0.188 HD
ENDBRANCH   4   8
BRANCH   1  22
ATOM     22  O   UNL     1      -0.882  -4.991   0.484  0.00  0.00    -0.421 OA
BRANCH  22  23
ATOM     23  C   UNL     1       0.159  -4.147   0.340  0.00  0.00    +0.344 C 
ATOM     24  O   UNL     1       1.293  -4.581   0.308  0.00  0.00    -0.245 OA
BRANCH  23  29
ATOM     25  C   UNL     1      -0.769   1.512  -0.126  0.00  0.00    +0.044 C 
ATOM     26  C   UNL     1      -0.526   0.030  -0.003  0.00  0.00    -0.050 A 
ATOM     27  C   UNL     1       0.767  -0.461  -0.039  0.00  0.00    +0.004 A 
ATOM     28  C   UNL     1       0.997  -1.817   0.072  0.00  0.00    +0.015 A 
ATOM     29  C   UNL     1      -0.079  -2.694   0.221  0.00  0.00    +0.059 A 
ATOM     30  C   UNL     1      -1.381  -2.192   0.257  0.00  0.00    +0.015 A 
ATOM     31  C   UNL     1      -1.596  -0.833   0.150  0.00  0.00    +0.004 A 
ENDBRANCH  23  29
ENDBRANCH  22  23
ENDBRANCH   1  22
TORSDOF 4
