REMARK  Name = ZINC16940374
REMARK  8 active torsions:
REMARK  status: ('A' for Active; 'I' for Inactive)
REMARK    1  A    between atoms: C_1  and  C_2
REMARK    2  A    between atoms: N_4  and  C1*_22
REMARK    3  A    between atoms: N_9  and  C_10
REMARK    4  A    between atoms: C_10  and  C_11
REMARK    5  A    between atoms: C_11  and  C_12
REMARK    6  A    between atoms: C3*_25  and  O3*_32
REMARK    7  A    between atoms: C4*_27  and  C5*_30
REMARK    8  A    between atoms: C5*_30  and  O5*_31
REMARK                            x       y       z     vdW  Elec       q    Type
REMARK                         _______ _______ _______ _____ _____    ______ ____
ROOT
ATOM      1  C   UNL     1       7.170   0.025   1.269  0.00  0.00    +0.049 C 
ATOM      2  C   UNL     1       6.486   0.365   2.568  0.00  0.00    +0.006 A 
ATOM      3  C   UNL     1       7.152   0.264   3.743  0.00  0.00    +0.100 A 
ATOM      4  N   UNL     1       6.508   0.573   4.903  0.00  0.00    -0.272 N 
ATOM      5  C   UNL     1       5.225   0.979   4.881  0.00  0.00    +0.352 A 
ATOM      6  O   UNL     1       4.664   1.251   5.929  0.00  0.00    -0.244 OA
ATOM      7  N   UNL     1       4.558   1.088   3.733  0.00  0.00    -0.178 NA
ATOM      8  C   UNL     1       5.144   0.799   2.579  0.00  0.00    +0.128 A 
ATOM      9  N   UNL     1       4.446   0.915   1.400  0.00  0.00    -0.328 N 
ATOM     10  H   UNL     1       4.903   1.577   0.805  0.00  0.00    +0.147 HD
ENDROOT
BRANCH   4  11
ATOM     11  C1* UNL     1       7.215   0.463   6.181  0.00  0.00    +0.226 C 
ATOM     12  C2* UNL     1       7.258   1.839   6.893  0.00  0.00    +0.088 C 
ATOM     13  C3* UNL     1       8.514   1.668   7.790  0.00  0.00    +0.150 C 
ATOM     14  C4* UNL     1       9.425   0.783   6.913  0.00  0.00    +0.175 C 
ATOM     15  O4* UNL     1       8.591   0.112   5.961  0.00  0.00    -0.348 OA
BRANCH  13  16
ATOM     16  O3* UNL     1       9.129   2.932   8.049  0.00  0.00    -0.389 OA
ATOM     17  H3* UNL     1       8.562   3.556   8.521  0.00  0.00    +0.210 HD
ENDBRANCH  13  16
BRANCH  14  18
ATOM     18  C5* UNL     1      10.148  -0.244   7.787  0.00  0.00    +0.190 C 
BRANCH  18  19
ATOM     19  O5* UNL     1      11.075  -0.981   6.987  0.00  0.00    -0.392 OA
ATOM     20  H5* UNL     1      11.571  -1.652   7.477  0.00  0.00    +0.210 HD
ENDBRANCH  18  19
ENDBRANCH  14  18
ENDBRANCH   4  11
BRANCH   9  21
ATOM     21  C   UNL     1       3.050   1.360   1.416  0.00  0.00    +0.107 C 
BRANCH  21  22
ATOM     22  C   UNL     1       2.512   1.403  -0.015  0.00  0.00    +0.056 C 
BRANCH  22  23
ATOM     23  C   UNL     1       1.076   1.861   0.002  0.00  0.00    -0.021 A 
ATOM     24  C   UNL     1      -0.013   1.076   0.008  0.00  0.00    +0.087 A 
ATOM     25  N   UNL     1      -1.144   1.846   0.017  0.00  0.00    -0.360 N 
ATOM     26  H   UNL     1      -2.051   1.503   0.019  0.00  0.00    +0.165 HD
ATOM     27  C   UNL     1      -0.802   3.180   0.027  0.00  0.00    +0.047 A 
ATOM     28  C   UNL     1       0.604   3.248   0.014  0.00  0.00    +0.003 A 
ATOM     29  C   UNL     1       1.241   4.490   0.014  0.00  0.00    +0.010 A 
ATOM     30  C   UNL     1       0.495   5.635   0.028  0.00  0.00    +0.001 A 
ATOM     31  C   UNL     1      -0.891   5.573   0.041  0.00  0.00    +0.002 A 
ATOM     32  C   UNL     1      -1.541   4.358   0.040  0.00  0.00    +0.026 A 
ENDBRANCH  22  23
ENDBRANCH  21  22
ENDBRANCH   9  21
TORSDOF 7
