REMARK  Name = ZINC37944029
REMARK  4 active torsions:
REMARK  status: ('A' for Active; 'I' for Inactive)
REMARK    1  A    between atoms: C_5  and  N_7
REMARK    2  A    between atoms: N_7  and  C_8
REMARK    3  A    between atoms: C_8  and  C_10
REMARK    4  A    between atoms: C_8  and  C_18
REMARK                            x       y       z     vdW  Elec       q    Type
REMARK                         _______ _______ _______ _____ _____    ______ ____
ROOT
ATOM      1  C   UNL     1      -0.019  -2.831  -0.013  0.00  0.00    +0.187 C 
ENDROOT
BRANCH   1   2
ATOM      2  C   UNL     1       0.205  -4.190  -0.624  0.00  0.00    -0.017 A 
ATOM      3  C   UNL     1       1.363  -4.891  -0.341  0.00  0.00    +0.009 A 
ATOM      4  C   UNL     1       1.570  -6.138  -0.900  0.00  0.00    +0.040 A 
ATOM      5  C   UNL     1       0.618  -6.686  -1.743  0.00  0.00    +0.137 A 
ATOM      6  C   UNL     1      -0.542  -5.982  -2.025  0.00  0.00    +0.053 A 
ATOM      7  C   UNL     1      -0.749  -4.737  -1.460  0.00  0.00    +0.024 A 
ATOM      8 BR   UNL     1      -1.844  -6.728  -3.176  0.00  0.00    -0.047 Br
ATOM      9  F   UNL     1       0.820  -7.904  -2.290  0.00  0.00    -0.204 F 
ENDBRANCH   1   2
BRANCH   1  10
ATOM     10  C   UNL     1      -0.500  -2.991   1.407  0.00  0.00    +0.235 C 
ATOM     11  O   UNL     1       0.145  -2.522   2.321  0.00  0.00    -0.274 OA
ATOM     12  N   UNL     1      -1.645  -3.655   1.660  0.00  0.00    -0.328 N 
ATOM     13  H   UNL     1      -2.160  -4.029   0.928  0.00  0.00    +0.145 HD
ATOM     14  H   UNL     1      -1.954  -3.757   2.573  0.00  0.00    +0.145 HD
ENDBRANCH   1  10
BRANCH   1  15
ATOM     15  N   UNL     1       1.237  -2.078  -0.021  0.00  0.00    -0.329 N 
ATOM     16  H   UNL     1       2.085  -2.549  -0.033  0.00  0.00    +0.147 HD
BRANCH  15  21
ATOM     17  C   UNL     1      -0.017   1.377   0.010  0.00  0.00    +0.002 A 
ATOM     18  C   UNL     1       1.170   2.086   0.002  0.00  0.00    +0.001 A 
ATOM     19  C   UNL     1       2.380   1.417  -0.013  0.00  0.00    +0.017 A 
ATOM     20  C   UNL     1       2.406   0.035  -0.021  0.00  0.00    +0.039 A 
ATOM     21  C   UNL     1       1.215  -0.681  -0.013  0.00  0.00    +0.042 A 
ATOM     22  C   UNL     1       0.002  -0.004   0.002  0.00  0.00    +0.024 A 
ATOM     23 BR   UNL     1       4.061  -0.880  -0.043  0.00  0.00    -0.048 Br
ENDBRANCH  15  21
ENDBRANCH   1  15
TORSDOF 4
