REMARK  Name = ZINC33515385
REMARK  8 active torsions:
REMARK  status: ('A' for Active; 'I' for Inactive)
REMARK    1  A    between atoms: C_1  and  N_2
REMARK    2  A    between atoms: N_2  and  C_3
REMARK    3  A    between atoms: N_2  and  C_4
REMARK    4  A    between atoms: C_4  and  C_5
REMARK    5  A    between atoms: C_5  and  N_6
REMARK    6  A    between atoms: C_7  and  C_25
REMARK    7  A    between atoms: C_9  and  C_10
REMARK    8  A    between atoms: C_10  and  C_11
REMARK                            x       y       z     vdW  Elec       q    Type
REMARK                         _______ _______ _______ _____ _____    ______ ____
ROOT
ATOM      1  N   UNL     1       0.758  -0.201   3.980  0.00  0.00    -0.285 N 
ATOM      2  C   UNL     1       0.046  -0.740   5.142  0.00  0.00    +0.145 C 
ATOM      3  C   UNL     1       1.100  -1.259   6.092  0.00  0.00    +0.076 C 
ATOM      4  C   UNL     1       2.336  -1.014   5.476  0.00  0.00    +0.249 C 
ATOM      5  O   UNL     1       3.430  -1.290   5.934  0.00  0.00    -0.282 OA
ATOM      6  C   UNL     1       2.079  -0.361   4.164  0.00  0.00    +0.288 C 
ATOM      7  O   UNL     1       2.938  -0.020   3.377  0.00  0.00    -0.266 OA
ENDROOT
BRANCH   2   8
ATOM      8  C   UNL     1      -0.864  -1.863   4.715  0.00  0.00    -0.020 A 
ATOM      9  C   UNL     1      -2.123  -1.983   5.274  0.00  0.00    +0.006 A 
ATOM     10  C   UNL     1      -2.958  -3.012   4.884  0.00  0.00    +0.003 A 
ATOM     11  C   UNL     1      -2.536  -3.923   3.934  0.00  0.00    +0.038 A 
ATOM     12  C   UNL     1      -1.275  -3.804   3.374  0.00  0.00    +0.124 A 
ATOM     13  C   UNL     1      -0.441  -2.769   3.761  0.00  0.00    +0.044 A 
ATOM     14  F   UNL     1      -0.862  -4.694   2.445  0.00  0.00    -0.205 F 
ENDBRANCH   2   8
BRANCH   3  15
ATOM     15  C   UNL     1       0.889  -1.855   7.321  0.00  0.00    +0.195 C 
ATOM     16  O   UNL     1      -0.354  -1.899   7.845  0.00  0.00    -0.287 OA
BRANCH  15  17
ATOM     17  C   UNL     1       2.019  -2.441   8.058  0.00  0.00    +0.026 A 
ATOM     18  C   UNL     1       2.877  -3.348   7.423  0.00  0.00    +0.015 A 
ATOM     19  C   UNL     1       3.937  -3.891   8.114  0.00  0.00    +0.050 A 
ATOM     20  C   UNL     1       4.154  -3.550   9.443  0.00  0.00    +0.166 A 
ATOM     21  C   UNL     1       3.300  -2.651  10.084  0.00  0.00    +0.167 A 
ATOM     22  C   UNL     1       2.238  -2.098   9.397  0.00  0.00    +0.061 A 
ATOM     23  O   UNL     1       3.726  -2.488  11.371  0.00  0.00    -0.453 OA
ATOM     24  C   UNL     1       5.081  -2.975  11.391  0.00  0.00    +0.466 C 
ATOM     25  O   UNL     1       5.111  -3.947  10.330  0.00  0.00    -0.453 OA
ENDBRANCH  15  17
ENDBRANCH   3  15
BRANCH   1  26
ATOM     26  C   UNL     1       0.130   0.408   2.805  0.00  0.00    +0.090 C 
BRANCH  26  27
ATOM     27  C   UNL     1      -0.027   1.913   3.033  0.00  0.00    -0.060 C 
BRANCH  27  29
ATOM     28  C   UNL     1       0.225   2.438   0.682  0.00  0.00    -0.097 C 
ATOM     29  N   UNL     1      -0.657   2.524   1.854  0.00  0.00    +0.377 N 
ATOM     30  C   UNL     1      -1.040   3.916   2.124  0.00  0.00    -0.097 C 
ATOM     31  H   UNL     1      -1.574   1.959   1.630  0.00  0.00    -0.083 HD
ENDBRANCH  27  29
ENDBRANCH  26  27
ENDBRANCH   1  26
TORSDOF 6
