REMARK  Name = ZINC19354507
REMARK  12 active torsions:
REMARK  status: ('A' for Active; 'I' for Inactive)
REMARK    1  A    between atoms: C_1  and  C_2
REMARK    2  A    between atoms: C_6  and  C_34
REMARK    3  A    between atoms: C_7  and  C_12
REMARK    4  A    between atoms: C_8  and  C_11
REMARK    5  A    between atoms: C_12  and  C_13
REMARK    6  A    between atoms: C_13  and  C_14
REMARK    7  A    between atoms: C_14  and  O_16
REMARK    8  A    between atoms: O_16  and  C_17
REMARK    9  A    between atoms: C_17  and  C_18
REMARK   10  A    between atoms: N_20  and  C_21
REMARK   11  A    between atoms: N_20  and  C_22
REMARK   12  A    between atoms: C_22  and  C_23
REMARK                            x       y       z     vdW  Elec       q    Type
REMARK                         _______ _______ _______ _____ _____    ______ ____
ROOT
ATOM      1  O   UNL     1      -4.216   1.804   0.166  0.00  0.00    -0.455 OA
ENDROOT
BRANCH   1   2
ATOM      2  C   UNL     1      -5.056   1.628  -0.867  0.00  0.00    +0.308 C 
ATOM      3  O   UNL     1      -4.633   1.240  -1.930  0.00  0.00    -0.251 OA
BRANCH   2   4
ATOM      4  C   UNL     1      -6.526   1.913  -0.699  0.00  0.00    +0.125 C 
BRANCH   4   5
ATOM      5  C   UNL     1      -7.254   1.632  -2.015  0.00  0.00    +0.050 C 
BRANCH   5  12
ATOM      6  C   UNL     1     -13.752   5.183  -1.902  0.00  0.00    +0.067 C 
ATOM      7  C   UNL     1     -12.587   4.229  -1.837  0.00  0.00    +0.062 A 
ATOM      8  C   UNL     1     -12.656   2.897  -1.460  0.00  0.00    +0.073 A 
ATOM      9  C   UNL     1     -11.373   2.372  -1.531  0.00  0.00    +0.156 A 
ATOM     10  N   UNL     1     -10.877   1.153  -1.279  0.00  0.00    -0.233 NA
ATOM     11  C   UNL     1      -9.598   0.903  -1.430  0.00  0.00    +0.045 A 
ATOM     12  C   UNL     1      -8.724   1.917  -1.848  0.00  0.00    -0.005 A 
ATOM     13  C   UNL     1      -9.213   3.155  -2.106  0.00  0.00    +0.047 A 
ATOM     14  N   UNL     1     -10.549   3.387  -1.946  0.00  0.00    -0.218 N 
ATOM     15  N   UNL     1     -11.340   4.527  -2.127  0.00  0.00    -0.170 NA
ATOM     16  C   UNL     1      -8.296   4.259  -2.562  0.00  0.00    +0.066 C 
ATOM     17  C   UNL     1      -9.064  -0.477  -1.146  0.00  0.00    +0.066 C 
ENDBRANCH   5  12
ENDBRANCH   4   5
ENDBRANCH   2   4
ENDBRANCH   1   2
BRANCH   1  18
ATOM     18  C   UNL     1      -2.814   1.510  -0.068  0.00  0.00    +0.327 C 
BRANCH  18  19
ATOM     19  C   UNL     1      -2.030   1.765   1.194  0.00  0.00    +0.253 C 
ATOM     20  O   UNL     1      -2.598   2.156   2.192  0.00  0.00    -0.272 OA
ATOM     21  N   UNL     1      -0.698   1.558   1.213  0.00  0.00    -0.298 N 
ATOM     22  C   UNL     1      -0.013   1.086   0.008  0.00  0.00    +0.132 C 
BRANCH  21  23
ATOM     23  C   UNL     1       0.063   1.806   2.440  0.00  0.00    +0.155 C 
BRANCH  23  24
ATOM     24  C   UNL     1       0.546   3.258   2.456  0.00  0.00    +0.228 C 
ATOM     25  C   UNL     1       1.425   3.497   3.691  0.00  0.00    +0.275 C 
ATOM     26  O   UNL     1       1.847   4.865   3.682  0.00  0.00    -0.485 OA
ATOM     27  C   UNL     1       0.891   5.799   3.426  0.00  0.00    +0.162 A 
ATOM     28  C   UNL     1       1.133   7.127   3.747  0.00  0.00    +0.049 A 
ATOM     29  C   UNL     1       0.173   8.088   3.488  0.00  0.00    +0.004 A 
ATOM     30  C   UNL     1      -1.029   7.728   2.908  0.00  0.00    +0.004 A 
ATOM     31  C   UNL     1      -1.277   6.407   2.587  0.00  0.00    +0.049 A 
ATOM     32  C   UNL     1      -0.319   5.438   2.846  0.00  0.00    +0.163 A 
ATOM     33  O   UNL     1      -0.579   4.140   2.527  0.00  0.00    -0.480 OA
ENDBRANCH  23  24
ENDBRANCH  21  23
ENDBRANCH  18  19
ENDBRANCH   1  18
TORSDOF 8
