REMARK  Name = ZINC04996073
REMARK  2 active torsions:
REMARK  status: ('A' for Active; 'I' for Inactive)
REMARK    1  A    between atoms: C_6  and  C_11
REMARK    2  A    between atoms: N_17  and  C_18
REMARK                            x       y       z     vdW  Elec       q    Type
REMARK                         _______ _______ _______ _____ _____    ______ ____
ROOT
ATOM      1  C   UNL     1       4.932  -2.750   1.031  0.00  0.00    +0.028 C 
ATOM      2  C   UNL     1       4.971  -4.099   0.894  0.00  0.00    +0.078 C 
ATOM      3  C   UNL     1       3.874  -5.083   0.999  0.00  0.00    +0.256 C 
ATOM      4  O   UNL     1       2.732  -4.740   1.240  0.00  0.00    -0.269 OA
ATOM      5  N   UNL     1       4.191  -6.354   0.819  0.00  0.00    -0.260 N 
ATOM      6  C   UNL     1       5.491  -6.723   0.547  0.00  0.00    +0.166 C 
ATOM      7  N   UNL     1       5.972  -7.928   0.343  0.00  0.00    -0.224 NA
ATOM      8  S   UNL     1       6.360  -5.163   0.532  0.00  0.00    -0.049 S 
ATOM      9  H   UNL     1       3.502  -7.034   0.879  0.00  0.00    +0.157 HD
ENDROOT
BRANCH   1  15
ATOM     10  C   UNL     1      -0.175   0.940   2.342  0.00  0.00    +0.001 A 
ATOM     11  C   UNL     1       0.590   1.559   1.355  0.00  0.00    +0.001 A 
ATOM     12  C   UNL     1       1.733   0.984   0.892  0.00  0.00    +0.008 A 
ATOM     13  C   UNL     1       2.151  -0.253   1.415  0.00  0.00    -0.017 A 
ATOM     14  C   UNL     1       3.324  -0.873   0.960  0.00  0.00    +0.016 A 
ATOM     15  C   UNL     1       3.705  -2.094   1.502  0.00  0.00    -0.023 A 
ATOM     16  C   UNL     1       2.921  -2.707   2.500  0.00  0.00    +0.008 A 
ATOM     17  C   UNL     1       1.785  -2.120   2.950  0.00  0.00    +0.009 A 
ATOM     18  C   UNL     1       1.373  -0.882   2.421  0.00  0.00    -0.018 A 
ATOM     19  C   UNL     1       0.200  -0.257   2.872  0.00  0.00    +0.008 A 
ENDBRANCH   1  15
BRANCH   7  20
ATOM     20  C   UNL     1       5.126  -9.001   0.280  0.00  0.00    +0.085 A 
ATOM     21  C   UNL     1       4.008  -8.965  -0.557  0.00  0.00    +0.029 A 
ATOM     22  C   UNL     1       3.159 -10.050  -0.616  0.00  0.00    +0.002 A 
ATOM     23  C   UNL     1       3.412 -11.174   0.151  0.00  0.00    +0.002 A 
ATOM     24  C   UNL     1       4.517 -11.218   0.982  0.00  0.00    +0.022 A 
ATOM     25  C   UNL     1       5.379 -10.142   1.047  0.00  0.00    +0.066 A 
ATOM     26 CL   UNL     1       6.769 -10.201   2.086  0.00  0.00    -0.081 Cl
ENDBRANCH   7  20
TORSDOF 2
