REMARK  Name = ZINC43287104
REMARK  8 active torsions:
REMARK  status: ('A' for Active; 'I' for Inactive)
REMARK    1  A    between atoms: C_1  and  C_2
REMARK    2  A    between atoms: C_2  and  C_3
REMARK    3  A    between atoms: C_3  and  C_5
REMARK    4  A    between atoms: C_3  and  N_23
REMARK    5  A    between atoms: C_5  and  C_7
REMARK    6  A    between atoms: C_5  and  N_13
REMARK    7  A    between atoms: C_17  and  C_19
REMARK    8  A    between atoms: N_21  and  C_22
REMARK                            x       y       z     vdW  Elec       q    Type
REMARK                         _______ _______ _______ _____ _____    ______ ____
ROOT
ATOM      1  C   UNL     1       0.631  -2.012  -1.454  0.00  0.00    -0.013 C 
ENDROOT
BRANCH   1   2
ATOM      2  C   UNL     1       1.459  -2.627  -2.553  0.00  0.00    -0.021 A 
ATOM      3  C   UNL     1       2.694  -3.182  -2.484  0.00  0.00    +0.025 A 
ATOM      4  C   UNL     1       3.266  -3.690  -3.635  0.00  0.00    +0.025 A 
ATOM      5  C   UNL     1       2.575  -3.619  -4.799  0.00  0.00    +0.060 A 
ATOM      6  S   UNL     1       1.063  -2.822  -4.283  0.00  0.00    -0.102 S 
ATOM      7 BR   UNL     1       4.987  -4.473  -3.587  0.00  0.00    -0.050 Br
ENDBRANCH   1   2
BRANCH   1   8
ATOM      8  N   UNL     1      -0.774  -2.405  -1.621  0.00  0.00    +0.393 N 
ATOM      9  C   UNL     1      -0.898  -3.885  -1.606  0.00  0.00    -0.077 C 
ATOM     10  C   UNL     1      -2.383  -4.112  -1.224  0.00  0.00    -0.020 C 
ATOM     11  C   UNL     1      -2.651  -2.989  -0.196  0.00  0.00    -0.008 C 
ATOM     12  C   UNL     1      -1.578  -1.921  -0.478  0.00  0.00    +0.020 C 
ATOM     13  H   UNL     1      -1.139  -2.033  -2.485  0.00  0.00    -0.080 HD
BRANCH  12  14
ATOM     14  C   UNL     1      -2.238  -0.612  -0.831  0.00  0.00    +0.199 C 
ATOM     15  O   UNL     1      -2.062  -0.121  -1.926  0.00  0.00    -0.278 OA
ATOM     16  N   UNL     1      -3.022   0.012   0.069  0.00  0.00    -0.320 N 
ATOM     17  C   UNL     1      -3.663   1.284  -0.274  0.00  0.00    +0.128 C 
ATOM     18  H   UNL     1      -3.163  -0.381   0.945  0.00  0.00    +0.148 HD
ENDBRANCH  12  14
ENDBRANCH   1   8
BRANCH   1  19
ATOM     19  C   UNL     1       0.747  -0.488  -1.520  0.00  0.00    +0.042 C 
BRANCH  19  20
ATOM     20  N   UNL     1       0.351  -0.025  -2.857  0.00  0.00    -0.328 NA
ATOM     21  H   UNL     1       0.357   0.983  -2.907  0.00  0.00    +0.118 HD
ATOM     22  H   UNL     1       0.943  -0.426  -3.569  0.00  0.00    +0.118 HD
ENDBRANCH  19  20
BRANCH  19  24
ATOM     23  C   UNL     1       2.283   1.452  -1.177  0.00  0.00    +0.005 C 
ATOM     24  C   UNL     1       2.194  -0.074  -1.245  0.00  0.00    +0.014 C 
ENDBRANCH  19  24
ENDBRANCH   1  19
TORSDOF 6
