REMARK  Name = ZINC36000478
REMARK  8 active torsions:
REMARK  status: ('A' for Active; 'I' for Inactive)
REMARK    1  A    between atoms: C_1  and  C_2
REMARK    2  A    between atoms: C_2  and  C_3
REMARK    3  A    between atoms: C_3  and  N_4
REMARK    4  A    between atoms: N_7  and  C_8
REMARK    5  A    between atoms: C_11  and  N_14
REMARK    6  A    between atoms: C_17  and  C_32
REMARK    7  A    between atoms: N_19  and  C_25
REMARK    8  A    between atoms: C_22  and  C_24
REMARK                            x       y       z     vdW  Elec       q    Type
REMARK                         _______ _______ _______ _____ _____    ______ ____
ROOT
ATOM      1  N   UNL     1       2.402  -7.788   6.575  0.00  0.00    -0.326 N 
ATOM      2  C   UNL     1       2.492  -9.164   6.506  0.00  0.00    +0.134 A 
ATOM      3  C   UNL     1       3.402  -9.869   7.318  0.00  0.00    +0.082 A 
ATOM      4  C   UNL     1       4.354  -9.501   8.292  0.00  0.00    +0.073 A 
ATOM      5  N   UNL     1       4.932 -10.581   8.735  0.00  0.00    -0.169 NA
ATOM      6  N   UNL     1       4.399 -11.702   8.086  0.00  0.00    -0.212 N 
ATOM      7  C   UNL     1       3.449 -11.272   7.204  0.00  0.00    +0.169 A 
ATOM      8  N   UNL     1       2.635 -11.874   6.338  0.00  0.00    -0.213 NA
ATOM      9  C   UNL     1       1.801 -11.173   5.602  0.00  0.00    +0.130 A 
ATOM     10  N   UNL     1       1.718  -9.856   5.677  0.00  0.00    -0.217 NA
ATOM     11  C   UNL     1       0.901 -11.900   4.637  0.00  0.00    +0.088 C 
ATOM     12  C   UNL     1       4.653  -8.094   8.744  0.00  0.00    +0.068 C 
ATOM     13  H   UNL     1       2.913  -7.301   7.240  0.00  0.00    +0.148 HD
ENDROOT
BRANCH   6  14
ATOM     14  C   UNL     1       4.776 -13.034   8.303  0.00  0.00    +0.086 A 
ATOM     15  C   UNL     1       4.169 -14.055   7.584  0.00  0.00    +0.029 A 
ATOM     16  C   UNL     1       4.543 -15.367   7.799  0.00  0.00    +0.002 A 
ATOM     17  C   UNL     1       5.521 -15.665   8.730  0.00  0.00    +0.002 A 
ATOM     18  C   UNL     1       6.127 -14.651   9.449  0.00  0.00    +0.022 A 
ATOM     19  C   UNL     1       5.762 -13.335   9.234  0.00  0.00    +0.066 A 
ATOM     20 CL   UNL     1       6.529 -12.062  10.131  0.00  0.00    -0.081 Cl
ENDBRANCH   6  14
BRANCH   1  24
ATOM     21  C   UNL     1       0.971  -4.711   3.989  0.00  0.00    +0.075 C 
ATOM     22  C   UNL     1       0.213  -4.972   5.292  0.00  0.00    +0.024 C 
ATOM     23  C   UNL     1       1.118  -5.729   6.266  0.00  0.00    +0.024 C 
ATOM     24  C   UNL     1       1.535  -7.063   5.642  0.00  0.00    +0.072 C 
ATOM     25  C   UNL     1       2.293  -6.802   4.339  0.00  0.00    +0.024 C 
ATOM     26  C   UNL     1       1.387  -6.045   3.365  0.00  0.00    +0.024 C 
BRANCH  21  30
ATOM     27  N   UNL     1      -0.781  -1.976   2.265  0.00  0.00    -0.299 N 
ATOM     28  C   UNL     1       0.016  -2.643   3.123  0.00  0.00    +0.300 C 
ATOM     29  O   UNL     1       0.657  -2.033   3.957  0.00  0.00    -0.253 OA
ATOM     30  N   UNL     1       0.104  -3.986   3.056  0.00  0.00    -0.297 N 
ATOM     31  H   UNL     1      -1.292  -2.463   1.600  0.00  0.00    +0.150 HD
ATOM     32  H   UNL     1      -0.407  -4.473   2.391  0.00  0.00    +0.151 HD
BRANCH  27  33
ATOM     33  C   UNL     1      -0.877  -0.516   2.338  0.00  0.00    +0.105 C 
BRANCH  33  35
ATOM     34  C   UNL     1      -1.941   1.511   1.338  0.00  0.00    +0.005 C 
ATOM     35  C   UNL     1      -1.841  -0.014   1.262  0.00  0.00    +0.015 C 
ENDBRANCH  33  35
ENDBRANCH  27  33
ENDBRANCH  21  30
ENDBRANCH   1  24
TORSDOF 5
