REMARK  Name = ZINC27646560
REMARK  11 active torsions:
REMARK  status: ('A' for Active; 'I' for Inactive)
REMARK    1  A    between atoms: C_1  and  C_2
REMARK    2  A    between atoms: C_2  and  C_4
REMARK    3  A    between atoms: C_2  and  C_12
REMARK    4  A    between atoms: C_5  and  C_6
REMARK    5  A    between atoms: C_6  and  C_8
REMARK    6  A    between atoms: C_6  and  O_11
REMARK    7  A    between atoms: C_16  and  C_36
REMARK    8  A    between atoms: C_17  and  C_35
REMARK    9  A    between atoms: C_22  and  C_23
REMARK   10  A    between atoms: C_26  and  O_34
REMARK   11  A    between atoms: C_29  and  O_33
REMARK                            x       y       z     vdW  Elec       q    Type
REMARK                         _______ _______ _______ _____ _____    ______ ____
ROOT
ATOM      1  C   UNL     1      -1.002   1.713   0.867  0.00  0.00    +0.002 C 
ATOM      2  C   UNL     1       0.076   1.284  -0.163  0.00  0.00    +0.005 C 
ATOM      3  C   UNL     1      -0.596   1.639  -1.515  0.00  0.00    +0.012 C 
ATOM      4  C   UNL     1      -2.076   1.252  -1.300  0.00  0.00    -0.005 C 
ATOM      5  C   UNL     1      -2.330   1.270   0.195  0.00  0.00    -0.020 C 
ATOM      6  C   UNL     1      -2.781  -0.044   0.794  0.00  0.00    +0.008 C 
ATOM      7  C   UNL     1      -3.758  -0.779  -0.120  0.00  0.00    +0.005 C 
ATOM      8  C   UNL     1      -2.991  -1.221  -1.371  0.00  0.00    +0.031 C 
ATOM      9  C   UNL     1      -2.397  -0.005  -2.019  0.00  0.00    -0.063 C 
ATOM     10  C   UNL     1      -2.141  -0.058  -3.326  0.00  0.00    +0.000 C 
ATOM     11  C   UNL     1      -3.400   2.322   0.495  0.00  0.00    +0.012 C 
ATOM     12  C   UNL     1      -2.929   2.357  -1.925  0.00  0.00    +0.016 C 
ENDROOT
BRANCH  10  13
ATOM     13  C   UNL     1      -2.439  -1.276  -4.082  0.00  0.00    +0.004 C 
ATOM     14  C   UNL     1      -2.180  -1.330  -5.405  0.00  0.00    -0.040 C 
ATOM     15  C   UNL     1      -2.469  -2.574  -6.221  0.00  0.00    +0.067 C 
ATOM     16  C   UNL     1      -3.194  -2.145  -7.506  0.00  0.00    +0.122 C 
ATOM     17  C   UNL     1      -2.327  -1.150  -8.279  0.00  0.00    +0.067 C 
ATOM     18  C   UNL     1      -2.192   0.150  -7.480  0.00  0.00    +0.147 C 
ATOM     19  C   UNL     1      -1.596  -0.181  -6.127  0.00  0.00    -0.023 C 
ATOM     20  C   UNL     1      -0.592   0.530  -5.613  0.00  0.00    +0.015 C 
BRANCH  18  21
ATOM     21  O   UNL     1      -1.333   1.055  -8.176  0.00  0.00    -0.387 OA
ATOM     22  H   UNL     1      -1.118   2.047  -7.751  0.00  0.00    +0.210 HD
ENDBRANCH  18  21
BRANCH  16  23
ATOM     23  O   UNL     1      -3.436  -3.296  -8.318  0.00  0.00    -0.391 OA
ATOM     24  H   UNL     1      -3.948  -3.188  -9.286  0.00  0.00    +0.210 HD
ENDBRANCH  16  23
ENDBRANCH  10  13
BRANCH   1  26
ATOM     25  C   UNL     1      -1.774   1.539   3.237  0.00  0.00    +0.012 C 
ATOM     26  C   UNL     1      -0.796   0.987   2.198  0.00  0.00    +0.012 C 
BRANCH  26  27
ATOM     27  C   UNL     1       0.618   1.203   2.674  0.00  0.00    -0.025 C 
ATOM     28  C   UNL     1       1.411   0.176   2.857  0.00  0.00    +0.000 C 
BRANCH  28  29
ATOM     29  C   UNL     1       2.824   0.392   3.334  0.00  0.00    +0.140 C 
BRANCH  29  30
ATOM     30  C   UNL     1       3.068  -0.434   4.598  0.00  0.00    +0.022 C 
ATOM     31  C   UNL     1       3.255   0.325   5.913  0.00  0.00    +0.007 C 
ATOM     32  C   UNL     1       4.454  -0.349   5.241  0.00  0.00    +0.007 C 
ENDBRANCH  29  30
BRANCH  29  33
ATOM     33  O   UNL     1       3.023   1.777   3.624  0.00  0.00    -0.387 OA
ATOM     34  H   UNL     1       4.000   2.128   3.987  0.00  0.00    +0.210 HD
ENDBRANCH  29  33
ENDBRANCH  28  29
ENDBRANCH  26  27
ENDBRANCH   1  26
TORSDOF 8
