REMARK  Name = ZINC27676398
REMARK  8 active torsions:
REMARK  status: ('A' for Active; 'I' for Inactive)
REMARK    1  A    between atoms: C_1  and  N_2
REMARK    2  A    between atoms: N_2  and  C_3
REMARK    3  A    between atoms: N_2  and  C_4
REMARK    4  A    between atoms: C_4  and  C_6
REMARK    5  A    between atoms: C_4  and  C_18
REMARK    6  A    between atoms: C_6  and  N_7
REMARK    7  A    between atoms: C_8  and  C_10
REMARK    8  A    between atoms: C_15  and  O_16
REMARK                            x       y       z     vdW  Elec       q    Type
REMARK                         _______ _______ _______ _____ _____    ______ ____
ROOT
ATOM      1  N   UNL     1       0.203   0.182   0.041  0.00  0.00    -0.309 N 
ATOM      2  C   UNL     1       0.878  -0.282  -1.030  0.00  0.00    +0.248 C 
ATOM      3  O   UNL     1       1.338   0.497  -1.843  0.00  0.00    -0.270 OA
ATOM      4  H   UNL     1      -0.212  -0.523   0.776  0.00  0.00    +0.149 HD
ENDROOT
BRANCH   2   5
ATOM      5  C   UNL     1       1.060  -1.734  -1.216  0.00  0.00    +0.079 A 
ATOM      6  C   UNL     1       0.534  -2.632  -0.284  0.00  0.00    +0.032 A 
ATOM      7  C   UNL     1       0.706  -3.989  -0.464  0.00  0.00    +0.019 A 
ATOM      8  C   UNL     1       1.400  -4.465  -1.565  0.00  0.00    +0.019 A 
ATOM      9  C   UNL     1       1.925  -3.587  -2.493  0.00  0.00    +0.047 A 
ATOM     10  C   UNL     1       1.756  -2.220  -2.330  0.00  0.00    +0.129 A 
ATOM     11 BR   UNL     1      -0.006  -5.204   0.798  0.00  0.00    -0.050 Br
BRANCH  10  12
ATOM     12  O   UNL     1       2.267  -1.357  -3.244  0.00  0.00    -0.506 OA
ATOM     13  H   UNL     1       2.813  -1.742  -4.118  0.00  0.00    +0.292 HD
ENDBRANCH  10  12
ENDBRANCH   2   5
BRANCH   1  14
ATOM     14  C   UNL     1       0.023   1.624   0.225  0.00  0.00    +0.128 C 
BRANCH  14  15
ATOM     15  C   UNL     1      -0.840   1.876   1.463  0.00  0.00    +0.110 C 
BRANCH  15  16
ATOM     16  C   UNL     1      -0.090   1.439   2.695  0.00  0.00    +0.008 A 
ATOM     17  C   UNL     1       0.604   2.191   3.584  0.00  0.00    +0.013 A 
ATOM     18  C   UNL     1       1.217   1.568   4.655  0.00  0.00    +0.008 A 
ATOM     19  C   UNL     1       1.114   0.222   4.779  0.00  0.00    +0.045 A 
ATOM     20  S   UNL     1       0.121  -0.205   3.358  0.00  0.00    -0.100 S 
ENDBRANCH  15  16
BRANCH  15  22
ATOM     21  C   UNL     1      -2.945   1.330   2.526  0.00  0.00    +0.105 C 
ATOM     22  N   UNL     1      -2.089   1.111   1.353  0.00  0.00    -0.300 NA
ATOM     23  C   UNL     1      -2.802   1.443   0.112  0.00  0.00    +0.105 C 
ENDBRANCH  15  22
ENDBRANCH  14  15
ENDBRANCH   1  14
TORSDOF 6
