REMARK  Name = ZINC43736427
REMARK  8 active torsions:
REMARK  status: ('A' for Active; 'I' for Inactive)
REMARK    1  A    between atoms: C_1  and  C_2
REMARK    2  A    between atoms: C_5  and  O_31
REMARK    3  A    between atoms: C_18  and  C_30
REMARK    4  A    between atoms: C_23  and  N_25
REMARK    5  A    between atoms: N_25  and  C_26
REMARK    6  A    between atoms: N_25  and  C_27
REMARK    7  A    between atoms: C_27  and  C_28
REMARK    8  A    between atoms: C_28  and  O_29
REMARK                            x       y       z     vdW  Elec       q    Type
REMARK                         _______ _______ _______ _____ _____    ______ ____
ROOT
ATOM      1  C   UNL     1      -1.255   1.832   2.463  0.00  0.00    +0.012 C 
ATOM      2  C   UNL     1      -1.032   0.327   2.277  0.00  0.00    -0.026 C 
ATOM      3  C   UNL     1       0.113   0.103   1.292  0.00  0.00    +0.010 C 
ATOM      4  C   UNL     1       1.415   0.678   1.851  0.00  0.00    +0.032 C 
ATOM      5  C   UNL     1       1.744   0.054   3.205  0.00  0.00    +0.115 C 
ATOM      6  C   UNL     1       0.592   0.276   4.188  0.00  0.00    +0.035 C 
ATOM      7  C   UNL     1      -0.688  -0.329   3.613  0.00  0.00    -0.002 C 
ATOM      8  C   UNL     1      -1.837  -0.213   4.609  0.00  0.00    +0.004 C 
ATOM      9  C   UNL     1      -3.097  -0.879   4.034  0.00  0.00    +0.004 C 
ATOM     10  C   UNL     1      -2.757  -1.428   2.653  0.00  0.00    -0.004 C 
ATOM     11  C   UNL     1      -2.334  -0.276   1.741  0.00  0.00    -0.001 C 
ATOM     12  C   UNL     1      -2.211  -0.759   0.306  0.00  0.00    +0.005 C 
ATOM     13  C   UNL     1      -3.573  -1.203  -0.255  0.00  0.00    +0.005 C 
ATOM     14  C   UNL     1      -4.535  -1.556   0.845  0.00  0.00    -0.041 C 
ATOM     15  C   UNL     1      -3.833  -2.256   2.023  0.00  0.00    -0.003 C 
ATOM     16  C   UNL     1      -5.021  -2.658   2.910  0.00  0.00    +0.003 C 
ATOM     17  C   UNL     1      -6.102  -3.092   1.883  0.00  0.00    -0.014 C 
ATOM     18  C   UNL     1      -5.612  -2.604   0.495  0.00  0.00    -0.063 C 
ATOM     19  C   UNL     1      -5.307  -0.307   1.299  0.00  0.00    +0.010 C 
ENDROOT
BRANCH  18  20
ATOM     20  N   UNL     1      -5.050  -3.721  -0.264  0.00  0.00    +0.382 N 
ATOM     21  C   UNL     1      -6.138  -4.586  -0.740  0.00  0.00    -0.096 C 
ATOM     22  H   UNL     1      -4.534  -3.365  -1.054  0.00  0.00    -0.082 HD
BRANCH  20  23
ATOM     23  C   UNL     1      -4.150  -4.496   0.600  0.00  0.00    -0.051 C 
BRANCH  23  24
ATOM     24  C   UNL     1      -4.107  -5.948   0.120  0.00  0.00    +0.137 C 
BRANCH  24  25
ATOM     25  O   UNL     1      -3.519  -6.001  -1.182  0.00  0.00    -0.397 OA
ATOM     26  H   UNL     1      -3.459  -6.894  -1.550  0.00  0.00    +0.209 HD
ENDBRANCH  24  25
ENDBRANCH  23  24
ENDBRANCH  20  23
ENDBRANCH  18  20
BRANCH   5  27
ATOM     27  O   UNL     1       1.973  -1.348   3.044  0.00  0.00    -0.392 OA
ATOM     28  H   UNL     1       2.704  -1.561   2.448  0.00  0.00    +0.210 HD
ENDBRANCH   5  27
TORSDOF 5
