REMARK  Name = ZINC20872887
REMARK  12 active torsions:
REMARK  status: ('A' for Active; 'I' for Inactive)
REMARK    1  A    between atoms: C_1  and  C_2
REMARK    2  A    between atoms: C_2  and  C_4
REMARK    3  A    between atoms: C_2  and  N_14
REMARK    4  A    between atoms: N_14  and  C_15
REMARK    5  A    between atoms: C_15  and  C_16
REMARK    6  A    between atoms: C_25  and  O_26
REMARK    7  A    between atoms: O_26  and  C_27
REMARK    8  A    between atoms: C_27  and  C_28
REMARK    9  A    between atoms: N_30  and  C_31
REMARK   10  A    between atoms: C_31  and  C_32
REMARK   11  A    between atoms: C_31  and  C_33
REMARK   12  A    between atoms: C_31  and  C_34
REMARK                            x       y       z     vdW  Elec       q    Type
REMARK                         _______ _______ _______ _____ _____    ______ ____
ROOT
ATOM      1  C   UNL     1      -0.112   5.253   0.031  0.00  0.00    -0.015 A 
ATOM      2  C   UNL     1      -0.095   3.849   0.024  0.00  0.00    -0.013 A 
ATOM      3  C   UNL     1      -1.288   3.105   0.031  0.00  0.00    +0.009 A 
ATOM      4  C   UNL     1      -1.235   1.746   0.018  0.00  0.00    +0.001 A 
ATOM      5  C   UNL     1      -0.013   1.076   0.008  0.00  0.00    +0.001 A 
ATOM      6  C   UNL     1       1.163   1.762   0.000  0.00  0.00    +0.008 A 
ATOM      7  C   UNL     1       1.148   3.167   0.008  0.00  0.00    -0.017 A 
ATOM      8  C   UNL     1       2.342   3.909   0.000  0.00  0.00    +0.012 A 
ATOM      9  C   UNL     1       2.292   5.268   0.007  0.00  0.00    +0.046 A 
ATOM     10  C   UNL     1       1.067   5.942   0.023  0.00  0.00    +0.123 A 
ENDROOT
BRANCH   1  11
ATOM     11  C   UNL     1      -1.423   5.995   0.047  0.00  0.00    -0.042 C 
BRANCH  11  12
ATOM     12  N   UNL     1      -1.863   6.244  -1.332  0.00  0.00    +0.384 N 
ATOM     13  H   UNL     1      -1.979   5.278  -1.845  0.00  0.00    -0.085 HD
ATOM     14  H   UNL     1      -1.094   6.841  -1.845  0.00  0.00    -0.085 HD
BRANCH  12  16
ATOM     15  C   UNL     1      -2.879   8.470  -1.238  0.00  0.00    -0.013 C 
ATOM     16  C   UNL     1      -3.141   6.967  -1.355  0.00  0.00    -0.068 C 
BRANCH  16  17
ATOM     17  C   UNL     1      -3.867   6.678  -2.670  0.00  0.00    -0.041 C 
ATOM     18  C   UNL     1      -4.130   5.175  -2.788  0.00  0.00    +0.009 C 
ATOM     19  C   UNL     1      -4.856   4.886  -4.103  0.00  0.00    -0.010 C 
ATOM     20  C   UNL     1      -6.187   5.639  -4.127  0.00  0.00    +0.007 C 
ATOM     21  C   UNL     1      -5.925   7.142  -4.009  0.00  0.00    -0.010 C 
ATOM     22  C   UNL     1      -5.199   7.431  -2.694  0.00  0.00    +0.009 C 
ATOM     23  C   UNL     1      -5.058   7.602  -5.183  0.00  0.00    +0.007 C 
ATOM     24  C   UNL     1      -3.726   6.848  -5.159  0.00  0.00    -0.010 C 
ATOM     25  C   UNL     1      -3.988   5.345  -5.277  0.00  0.00    +0.007 C 
ATOM     26  C   UNL     1      -3.000   7.138  -3.844  0.00  0.00    +0.009 C 
ENDBRANCH  16  17
ENDBRANCH  12  16
ENDBRANCH  11  12
ENDBRANCH   1  11
BRANCH  10  27
ATOM     27  O   UNL     1       1.050   7.301   0.030  0.00  0.00    -0.483 OA
BRANCH  27  28
ATOM     28  C   UNL     1       2.315   7.966   0.021  0.00  0.00    +0.324 C 
BRANCH  28  29
ATOM     29  C   UNL     1       2.098   9.457   0.031  0.00  0.00    +0.251 C 
ATOM     30  O   UNL     1       0.972   9.906   0.044  0.00  0.00    -0.272 OA
ATOM     31  N   UNL     1       3.156  10.292   0.025  0.00  0.00    -0.308 N 
ATOM     32  H   UNL     1       4.178   9.885   0.012  0.00  0.00    +0.149 HD
BRANCH  31  33
ATOM     33  C   UNL     1       2.946  11.742   0.034  0.00  0.00    +0.026 C 
ATOM     34  C   UNL     1       2.171  12.136   1.293  0.00  0.00    +0.031 C 
ATOM     35  C   UNL     1       4.300  12.454   0.024  0.00  0.00    +0.031 C 
ATOM     36  C   UNL     1       2.146  12.149  -1.205  0.00  0.00    +0.031 C 
ENDBRANCH  31  33
ENDBRANCH  28  29
ENDBRANCH  27  28
ENDBRANCH  10  27
TORSDOF 8
