REMARK  Name = ZINC35464494
REMARK  7 active torsions:
REMARK  status: ('A' for Active; 'I' for Inactive)
REMARK    1  A    between atoms: C_1  and  C_2
REMARK    2  A    between atoms: C_5  and  O_28
REMARK    3  A    between atoms: C_7  and  C_10
REMARK    4  A    between atoms: C_11  and  C_12
REMARK    5  A    between atoms: C_13  and  C_14
REMARK    6  A    between atoms: C_18  and  O_24
REMARK    7  A    between atoms: C_20  and  O_23
REMARK                            x       y       z     vdW  Elec       q    Type
REMARK                         _______ _______ _______ _____ _____    ______ ____
ROOT
ATOM      1  C   UNL     1       1.112  -4.851   6.752  0.00  0.00    +0.133 A 
ATOM      2  C   UNL     1       1.817  -5.893   7.281  0.00  0.00    +0.056 A 
ATOM      3  C   UNL     1       1.650  -6.205   8.699  0.00  0.00    +0.018 A 
ATOM      4  C   UNL     1       0.572  -5.583   9.386  0.00  0.00    +0.110 A 
ATOM      5  C   UNL     1       0.359  -5.851  10.740  0.00  0.00    +0.135 A 
ATOM      6  C   UNL     1       1.212  -6.720  11.401  0.00  0.00    +0.093 A 
ATOM      7  C   UNL     1       2.270  -7.325  10.730  0.00  0.00    +0.139 A 
ATOM      8  C   UNL     1       2.494  -7.074   9.384  0.00  0.00    +0.091 A 
ATOM      9 CL   UNL     1       3.818  -7.838   8.560  0.00  0.00    -0.079 Cl
ATOM     10  C   UNL     1      -0.273  -4.669   8.612  0.00  0.00    +0.349 A 
ATOM     11  O   UNL     1      -1.422  -4.433   8.936  0.00  0.00    -0.244 OA
ATOM     12  O   UNL     1       0.292  -4.095   7.519  0.00  0.00    -0.422 OA
ENDROOT
BRANCH   1  14
ATOM     13  C   UNL     1       0.562  -3.510   4.793  0.00  0.00    +0.003 C 
ATOM     14  C   UNL     1       1.249  -4.542   5.330  0.00  0.00    +0.046 C 
BRANCH  13  16
ATOM     15  C   UNL     1       0.020  -2.182   2.839  0.00  0.00    +0.007 C 
ATOM     16  C   UNL     1       0.699  -3.201   3.369  0.00  0.00    -0.002 C 
BRANCH  15  21
ATOM     17  C   UNL     1      -0.019   1.526   0.010  0.00  0.00    +0.038 C 
ATOM     18  C   UNL     1       0.002  -0.004   0.002  0.00  0.00    +0.119 C 
ATOM     19  C   UNL     1      -1.439  -0.570   0.068  0.00  0.00    +0.065 C 
ATOM     20  C   UNL     1      -1.209  -1.974   0.678  0.00  0.00    +0.150 C 
ATOM     21  C   UNL     1       0.162  -1.864   1.373  0.00  0.00    +0.170 C 
ATOM     22  O   UNL     1       0.622  -0.511   1.204  0.00  0.00    -0.367 OA
BRANCH  20  23
ATOM     23  O   UNL     1      -2.232  -2.280   1.628  0.00  0.00    -0.389 OA
ATOM     24  H   UNL     1      -3.122  -2.305   1.253  0.00  0.00    +0.210 HD
ENDBRANCH  20  23
ENDBRANCH  15  21
ENDBRANCH  13  16
ENDBRANCH   1  14
BRANCH   7  25
ATOM     25  O   UNL     1       3.093  -8.171  11.400  0.00  0.00    -0.505 OA
ATOM     26  H   UNL     1       2.808  -9.095  11.381  0.00  0.00    +0.292 HD
ENDBRANCH   7  25
BRANCH   5  27
ATOM     27  O   UNL     1      -0.672  -5.266  11.400  0.00  0.00    -0.506 OA
ATOM     28  H   UNL     1      -1.494  -5.774  11.375  0.00  0.00    +0.292 HD
ENDBRANCH   5  27
TORSDOF 6
