REMARK  Name = ZINC14070227
REMARK  6 active torsions:
REMARK  status: ('A' for Active; 'I' for Inactive)
REMARK    1  A    between atoms: C_1  and  C_2
REMARK    2  A    between atoms: C_11  and  N_28
REMARK    3  A    between atoms: C_13  and  C_15
REMARK    4  A    between atoms: C_15  and  C_16
REMARK    5  A    between atoms: C_16  and  N_57
REMARK    6  A    between atoms: C_19  and  C_22
REMARK                            x       y       z     vdW  Elec       q    Type
REMARK                         _______ _______ _______ _____ _____    ______ ____
ROOT
ATOM      1  C   UNL     1      -1.230  -0.765  -0.660  0.00  0.00    +0.008 C 
ATOM      2  C   UNL     1       0.178  -0.173  -0.763  0.00  0.00    -0.009 C 
ATOM      3  C   UNL     1       1.026  -0.646   0.421  0.00  0.00    +0.008 C 
ATOM      4  C   UNL     1       2.489  -0.268   0.196  0.00  0.00    +0.037 C 
ATOM      5  C   UNL     1       2.572   1.225  -0.114  0.00  0.00    -0.025 A 
ATOM      6  C   UNL     1       1.476   1.904  -0.522  0.00  0.00    -0.004 A 
ATOM      7  S   UNL     1       2.023   3.576  -0.762  0.00  0.00    -0.073 S 
ATOM      8  C   UNL     1       3.717   3.365  -0.318  0.00  0.00    +0.114 A 
ATOM      9  C   UNL     1       3.804   1.987   0.007  0.00  0.00    +0.051 A 
ATOM     10  C   UNL     1       5.080   1.502   0.413  0.00  0.00    +0.128 A 
ATOM     11  N   UNL     1       6.060   2.402   0.444  0.00  0.00    -0.217 NA
ATOM     12  C   UNL     1       5.904   3.672   0.127  0.00  0.00    +0.131 A 
ATOM     13  N   UNL     1       4.744   4.189  -0.259  0.00  0.00    -0.225 NA
ATOM     14  C   UNL     1       0.096   1.359  -0.727  0.00  0.00    +0.046 C 
ENDROOT
BRANCH  10  15
ATOM     15  N   UNL     1       5.288   0.177   0.754  0.00  0.00    -0.343 N 
ATOM     16  H   UNL     1       4.636  -0.496   0.502  0.00  0.00    +0.144 HD
ATOM     17  H   UNL     1       6.085  -0.078   1.244  0.00  0.00    +0.144 HD
ENDBRANCH  10  15
BRANCH  12  18
ATOM     18  C   UNL     1       7.103   4.582   0.207  0.00  0.00    +0.058 C 
BRANCH  18  19
ATOM     19  C   UNL     1       7.187   5.193   1.607  0.00  0.00    -0.071 C 
BRANCH  19  25
ATOM     20  C   UNL     1       8.594   6.518   3.070  0.00  0.00    -0.074 C 
ATOM     21  C   UNL     1       9.979   7.164   3.144  0.00  0.00    +0.017 C 
ATOM     22  C   UNL     1      10.128   8.172   2.039  0.00  0.00    -0.048 C 
ATOM     23  C   UNL     1       9.330   8.204   0.995  0.00  0.00    -0.041 C 
ATOM     24  C   UNL     1       8.191   7.245   0.805  0.00  0.00    -0.051 C 
ATOM     25  N   UNL     1       8.377   6.072   1.679  0.00  0.00    +0.382 N 
ATOM     26  H   UNL     1       9.200   5.545   1.364  0.00  0.00    -0.081 HD
BRANCH  22  27
ATOM     27  C   UNL     1      11.216   9.169   2.131  0.00  0.00    -0.022 A 
ATOM     28  C   UNL     1      12.549   8.757   2.092  0.00  0.00    +0.008 A 
ATOM     29  C   UNL     1      13.559   9.693   2.171  0.00  0.00    +0.001 A 
ATOM     30  C   UNL     1      13.254  11.036   2.302  0.00  0.00    +0.000 A 
ATOM     31  C   UNL     1      11.935  11.450   2.347  0.00  0.00    +0.001 A 
ATOM     32  C   UNL     1      10.915  10.525   2.262  0.00  0.00    +0.008 A 
ENDBRANCH  22  27
ENDBRANCH  19  25
ENDBRANCH  18  19
ENDBRANCH  12  18
TORSDOF 5
