REMARK  Name = ZINC39584670
REMARK  10 active torsions:
REMARK  status: ('A' for Active; 'I' for Inactive)
REMARK    1  A    between atoms: C_1  and  C_2
REMARK    2  A    between atoms: C_2  and  N_3
REMARK    3  A    between atoms: N_3  and  C_4
REMARK    4  A    between atoms: N_3  and  C_6
REMARK    5  A    between atoms: C_4  and  C_5
REMARK    6  A    between atoms: C_9  and  C_13
REMARK    7  A    between atoms: C_10  and  O_12
REMARK    8  A    between atoms: N_14  and  N_15
REMARK    9  A    between atoms: C_16  and  C_18
REMARK   10  A    between atoms: C_21  and  C_24
REMARK                            x       y       z     vdW  Elec       q    Type
REMARK                         _______ _______ _______ _____ _____    ______ ____
ROOT
ATOM      1  N   UNL     1      -2.385  -2.087  -8.162  0.00  0.00    -0.205 N 
ATOM      2  C   UNL     1      -1.759  -2.527  -9.271  0.00  0.00    +0.263 C 
ATOM      3  O   UNL     1      -0.561  -2.718  -9.256  0.00  0.00    -0.271 OA
ATOM      4  H   UNL     1      -3.343  -1.934  -8.174  0.00  0.00    +0.177 HD
ENDROOT
BRANCH   2   5
ATOM      5  C   UNL     1      -2.546  -2.781 -10.531  0.00  0.00    +0.240 C 
ATOM      6  C   UNL     1      -3.203  -4.149 -10.485  0.00  0.00    +0.041 C 
ATOM      7  C   UNL     1      -2.656  -4.804 -11.528  0.00  0.00    +0.092 C 
ATOM      8  N   UNL     1      -1.769  -4.005 -12.178  0.00  0.00    -0.153 NA
ATOM      9  N   UNL     1      -1.650  -2.873 -11.695  0.00  0.00    -0.170 NA
BRANCH   7  10
ATOM     10  C   UNL     1      -2.978  -6.200 -11.913  0.00  0.00    +0.002 A 
ATOM     11  C   UNL     1      -3.910  -6.931 -11.179  0.00  0.00    +0.011 A 
ATOM     12  C   UNL     1      -4.205  -8.229 -11.541  0.00  0.00    +0.020 A 
ATOM     13  C   UNL     1      -3.576  -8.806 -12.631  0.00  0.00    +0.041 A 
ATOM     14  C   UNL     1      -2.650  -8.085 -13.364  0.00  0.00    +0.020 A 
ATOM     15  C   UNL     1      -2.352  -6.783 -13.014  0.00  0.00    +0.011 A 
ATOM     16 CL   UNL     1      -3.951 -10.441 -13.081  0.00  0.00    -0.084 Cl
ENDBRANCH   7  10
ENDBRANCH   2   5
BRANCH   1  18
ATOM     17  C   UNL     1      -2.256  -1.427  -5.922  0.00  0.00    +0.142 C 
ATOM     18  N   UNL     1      -1.653  -1.851  -6.991  0.00  0.00    -0.188 NA
BRANCH  17  22
ATOM     19  C   UNL     1      -0.037  -0.712  -2.371  0.00  0.00    +0.033 A 
ATOM     20  C   UNL     1      -1.412  -0.493  -2.390  0.00  0.00    +0.024 A 
ATOM     21  C   UNL     1      -2.134  -0.723  -3.539  0.00  0.00    +0.015 A 
ATOM     22  C   UNL     1      -1.487  -1.179  -4.691  0.00  0.00    +0.036 A 
ATOM     23  C   UNL     1      -0.102  -1.400  -4.671  0.00  0.00    +0.127 A 
ATOM     24  C   UNL     1       0.615  -1.160  -3.512  0.00  0.00    +0.069 A 
BRANCH  23  25
ATOM     25  O   UNL     1       0.534  -1.843  -5.786  0.00  0.00    -0.506 OA
ATOM     26  H   UNL     1       0.855  -1.137  -6.363  0.00  0.00    +0.292 HD
ENDBRANCH  23  25
BRANCH  19  27
ATOM     27  N   UNL     1       0.688  -0.476  -1.203  0.00  0.00    -0.330 N 
BRANCH  27  29
ATOM     28  C   UNL     1      -0.019   1.526   0.010  0.00  0.00    +0.024 C 
ATOM     29  C   UNL     1       0.002  -0.004   0.002  0.00  0.00    +0.102 C 
ENDBRANCH  27  29
BRANCH  27  30
ATOM     30  C   UNL     1       2.135  -0.701  -1.182  0.00  0.00    +0.102 C 
ATOM     31  C   UNL     1       2.421  -2.145  -0.763  0.00  0.00    +0.024 C 
ENDBRANCH  27  30
ENDBRANCH  19  27
ENDBRANCH  17  22
ENDBRANCH   1  18
TORSDOF 8
