REMARK  Name = ZINC13637023
REMARK  4 active torsions:
REMARK  status: ('A' for Active; 'I' for Inactive)
REMARK    1  A    between atoms: C_3  and  O_32
REMARK    2  A    between atoms: C_6  and  C_7
REMARK    3  A    between atoms: C_18  and  S_23
REMARK    4  A    between atoms: S_23  and  N_26
REMARK                            x       y       z     vdW  Elec       q    Type
REMARK                         _______ _______ _______ _____ _____    ______ ____
ROOT
ATOM      1  C   UNL     1      -0.765   0.799   2.486  0.00  0.00    +0.105 C 
ATOM      2  C   UNL     1      -0.807   1.618   1.208  0.00  0.00    +0.029 C 
ATOM      3  C   UNL     1      -0.013   1.086   0.008  0.00  0.00    +0.033 C 
ATOM      4  C   UNL     1      -0.827   1.629  -1.167  0.00  0.00    -0.030 C 
ATOM      5  C   UNL     1      -2.087   1.821  -0.796  0.00  0.00    -0.023 C 
ATOM      6  C   UNL     1      -2.235   1.399   0.620  0.00  0.00    +0.049 C 
ATOM      7  C   UNL     1      -3.204   2.045   1.532  0.00  0.00    -0.018 A 
ATOM      8  C   UNL     1      -4.354   2.652   1.078  0.00  0.00    +0.034 A 
ATOM      9  C   UNL     1      -5.236   3.232   1.971  0.00  0.00    +0.106 A 
ATOM     10  C   UNL     1      -4.965   3.202   3.327  0.00  0.00    +0.030 A 
ATOM     11  C   UNL     1      -3.811   2.601   3.794  0.00  0.00    +0.025 A 
ATOM     12  C   UNL     1      -2.915   2.021   2.903  0.00  0.00    +0.031 A 
ATOM     13  N   UNL     1      -1.745   1.431   3.396  0.00  0.00    -0.336 N 
ATOM     14  H   UNL     1      -1.573   1.437   4.350  0.00  0.00    +0.147 HD
ENDROOT
BRANCH   1  20
ATOM     15  C   UNL     1       1.006   1.950   3.829  0.00  0.00    +0.009 A 
ATOM     16  C   UNL     1       2.268   1.995   4.389  0.00  0.00    +0.046 A 
ATOM     17  C   UNL     1       3.147   0.939   4.201  0.00  0.00    +0.117 A 
ATOM     18  C   UNL     1       2.754  -0.163   3.455  0.00  0.00    +0.046 A 
ATOM     19  C   UNL     1       1.490  -0.206   2.901  0.00  0.00    +0.009 A 
ATOM     20  C   UNL     1       0.615   0.848   3.090  0.00  0.00    -0.027 A 
BRANCH  17  21
ATOM     21  O   UNL     1       4.391   0.983   4.746  0.00  0.00    -0.507 OA
ATOM     22  H   UNL     1       5.058   1.383   4.172  0.00  0.00    +0.292 HD
ENDBRANCH  17  21
ENDBRANCH   1  20
BRANCH   9  23
ATOM     23  S   UNL     1      -6.705   4.007   1.383  0.00  0.00    +0.061 S 
ATOM     24  O   UNL     1      -7.091   4.950   2.373  0.00  0.00    -0.153 OA
ATOM     25  O   UNL     1      -6.456   4.378   0.034  0.00  0.00    -0.153 OA
BRANCH  23  26
ATOM     26  N   UNL     1      -7.888   2.849   1.345  0.00  0.00    -0.177 NA
ATOM     27  C   UNL     1      -8.105   2.039   0.138  0.00  0.00    +0.109 C 
ATOM     28  C   UNL     1      -8.053   0.555   0.530  0.00  0.00    +0.017 C 
ATOM     29  C   UNL     1      -9.062   0.294   1.651  0.00  0.00    +0.003 C 
ATOM     30  C   UNL     1      -8.690   1.129   2.878  0.00  0.00    +0.017 C 
ATOM     31  C   UNL     1      -8.746   2.616   2.515  0.00  0.00    +0.109 C 
ENDBRANCH  23  26
ENDBRANCH   9  23
TORSDOF 4
