REMARK  Name = ZINC25449294
REMARK  9 active torsions:
REMARK  status: ('A' for Active; 'I' for Inactive)
REMARK    1  A    between atoms: C_1  and  C_2
REMARK    2  A    between atoms: C_2  and  C_4
REMARK    3  A    between atoms: C_2  and  N_22
REMARK    4  A    between atoms: N_6  and  C_7
REMARK    5  A    between atoms: C_10  and  S_13
REMARK    6  A    between atoms: S_13  and  N_16
REMARK    7  A    between atoms: C_25  and  C_28
REMARK    8  A    between atoms: C_28  and  C_30
REMARK    9  A    between atoms: C_33  and  O_36
REMARK                            x       y       z     vdW  Elec       q    Type
REMARK                         _______ _______ _______ _____ _____    ______ ____
ROOT
ATOM      1  C   UNL     1      -8.789   1.195   0.438  0.00  0.00    -0.004 C 
ATOM      2  C   UNL     1      -7.951   2.331   1.028  0.00  0.00    +0.016 C 
ENDROOT
BRANCH   2   3
ATOM      3  N   UNL     1      -6.525   1.997   0.915  0.00  0.00    +0.387 N 
ATOM      4  C   UNL     1      -6.266   0.629   1.381  0.00  0.00    -0.077 C 
ATOM      5  C   UNL     1      -4.758   0.366   1.386  0.00  0.00    -0.007 C 
ATOM      6  C   UNL     1      -4.207   0.557  -0.030  0.00  0.00    +0.057 C 
ATOM      7  C   UNL     1      -4.532   1.975  -0.509  0.00  0.00    -0.007 C 
ATOM      8  C   UNL     1      -6.046   2.190  -0.459  0.00  0.00    -0.077 C 
ATOM      9  H   UNL     1      -5.963   2.684   1.565  0.00  0.00    -0.081 HD
BRANCH   6  10
ATOM     10  C   UNL     1      -2.713   0.359  -0.019  0.00  0.00    +0.166 C 
ATOM     11  O   UNL     1      -2.084   0.542   1.001  0.00  0.00    -0.292 OA
BRANCH  10  12
ATOM     12  C   UNL     1      -2.019  -0.056  -1.245  0.00  0.00    +0.018 A 
ATOM     13  C   UNL     1      -0.631  -0.240  -1.238  0.00  0.00    +0.015 A 
ATOM     14  C   UNL     1       0.012  -0.633  -2.384  0.00  0.00    +0.046 A 
ATOM     15  C   UNL     1      -0.712  -0.843  -3.553  0.00  0.00    +0.117 A 
ATOM     16  C   UNL     1      -2.090  -0.655  -3.567  0.00  0.00    +0.046 A 
ATOM     17  C   UNL     1      -2.742  -0.262  -2.427  0.00  0.00    +0.015 A 
BRANCH  15  18
ATOM     18  O   UNL     1      -0.071  -1.232  -4.684  0.00  0.00    -0.507 OA
ATOM     19  H   UNL     1      -0.642  -1.397  -5.610  0.00  0.00    +0.292 HD
ENDBRANCH  15  18
ENDBRANCH  10  12
ENDBRANCH   6  10
ENDBRANCH   2   3
BRANCH   2  20
ATOM     20  C   UNL     1      -8.310   2.518   2.480  0.00  0.00    +0.203 C 
ATOM     21  O   UNL     1      -7.547   2.145   3.346  0.00  0.00    -0.277 OA
ATOM     22  N   UNL     1      -9.478   3.100   2.816  0.00  0.00    -0.287 N 
ATOM     23  H   UNL     1     -10.208   3.360   2.035  0.00  0.00    +0.155 HD
BRANCH  22  24
ATOM     24  C   UNL     1      -9.762   3.375   4.158  0.00  0.00    +0.033 A 
ATOM     25  C   UNL     1     -11.070   3.310   4.620  0.00  0.00    +0.025 A 
ATOM     26  C   UNL     1     -11.347   3.576   5.946  0.00  0.00    +0.030 A 
ATOM     27  C   UNL     1     -10.325   3.919   6.812  0.00  0.00    +0.106 A 
ATOM     28  C   UNL     1      -9.022   3.990   6.354  0.00  0.00    +0.030 A 
ATOM     29  C   UNL     1      -8.738   3.719   5.030  0.00  0.00    +0.025 A 
BRANCH  27  30
ATOM     30  S   UNL     1     -10.683   4.265   8.502  0.00  0.00    +0.061 S 
ATOM     31  O   UNL     1     -11.901   3.598   8.804  0.00  0.00    -0.153 OA
ATOM     32  O   UNL     1      -9.484   4.029   9.228  0.00  0.00    -0.153 OA
BRANCH  30  33
ATOM     33  N   UNL     1     -10.992   5.888   8.614  0.00  0.00    -0.177 NA
ATOM     34  C   UNL     1      -9.906   6.840   8.886  0.00  0.00    +0.109 C 
ATOM     35  C   UNL     1      -9.923   7.924   7.798  0.00  0.00    +0.017 C 
ATOM     36  C   UNL     1     -11.314   8.559   7.740  0.00  0.00    +0.003 C 
ATOM     37  C   UNL     1     -12.348   7.492   7.372  0.00  0.00    +0.017 C 
ATOM     38  C   UNL     1     -12.358   6.403   8.450  0.00  0.00    +0.109 C 
ENDBRANCH  30  33
ENDBRANCH  27  30
ENDBRANCH  22  24
ENDBRANCH   2  20
TORSDOF 8
