REMARK  Name = ZINC19524580
REMARK  9 active torsions:
REMARK  status: ('A' for Active; 'I' for Inactive)
REMARK    1  A    between atoms: C_1  and  C_2
REMARK    2  A    between atoms: C_2  and  N_3
REMARK    3  A    between atoms: C_5  and  C_9
REMARK    4  A    between atoms: C_6  and  C_8
REMARK    5  A    between atoms: C_9  and  N_10
REMARK    6  A    between atoms: N_13  and  C_16
REMARK    7  A    between atoms: C_16  and  C_17
REMARK    8  A    between atoms: N_19  and  C_20
REMARK    9  A    between atoms: N_19  and  C_21
REMARK                            x       y       z     vdW  Elec       q    Type
REMARK                         _______ _______ _______ _____ _____    ______ ____
ROOT
ATOM      1  N   UNL     1      -1.654  -0.078   2.671  0.00  0.00    -0.302 NA
ATOM      2  C   UNL     1      -2.186   1.108   1.985  0.00  0.00    +0.066 C 
ATOM      3  C   UNL     1      -3.676   1.252   2.302  0.00  0.00    -0.063 C 
ATOM      4  N   UNL     1      -3.857   1.363   3.756  0.00  0.00    +0.387 N 
ATOM      5  C   UNL     1      -3.325   0.177   4.442  0.00  0.00    -0.063 C 
ATOM      6  C   UNL     1      -1.834   0.033   4.125  0.00  0.00    +0.066 C 
ATOM      7  H   UNL     1      -3.289   2.239   4.103  0.00  0.00    -0.081 HD
ENDROOT
BRANCH   1   8
ATOM      8  C   UNL     1      -0.241  -0.294   2.330  0.00  0.00    +0.122 C 
BRANCH   8  11
ATOM      9  N   UNL     1       0.220  -0.819  -1.249  0.00  0.00    -0.271 N 
ATOM     10  C   UNL     1       0.262  -0.029  -0.155  0.00  0.00    +0.113 A 
ATOM     11  C   UNL     1      -0.135  -0.771   0.905  0.00  0.00    +0.007 A 
ATOM     12  C   UNL     1      -0.431  -2.058   0.443  0.00  0.00    +0.064 A 
ATOM     13  N   UNL     1      -0.213  -2.090  -0.846  0.00  0.00    -0.176 NA
ATOM     14  C   UNL     1      -0.911  -3.211   1.287  0.00  0.00    +0.068 C 
BRANCH   9  16
ATOM     15  C   UNL     1       1.635  -1.370  -3.166  0.00  0.00    +0.029 C 
ATOM     16  C   UNL     1       0.570  -0.420  -2.614  0.00  0.00    +0.140 C 
ENDBRANCH   9  16
ENDBRANCH   8  11
ENDBRANCH   1   8
BRANCH   4  17
ATOM     17  C   UNL     1      -5.269   1.579   4.096  0.00  0.00    +0.019 C 
BRANCH  17  18
ATOM     18  C   UNL     1      -5.385   1.937   5.556  0.00  0.00    +0.199 C 
ATOM     19  O   UNL     1      -4.385   2.114   6.218  0.00  0.00    -0.278 OA
ATOM     20  N   UNL     1      -6.601   2.061   6.124  0.00  0.00    -0.301 N 
ATOM     21  C   UNL     1      -7.809   1.847   5.324  0.00  0.00    +0.132 C 
BRANCH  20  22
ATOM     22  C   UNL     1      -6.714   2.409   7.543  0.00  0.00    +0.098 C 
ATOM     23  C   UNL     1      -7.491   3.727   7.694  0.00  0.00    +0.046 C 
ATOM     24  C   UNL     1      -7.892   3.937   9.174  0.00  0.00    +0.168 C 
ATOM     25  S   UNL     1      -8.019   2.214   9.806  0.00  0.00    -0.029 S 
ATOM     26  O   UNL     1      -7.046   2.022  10.824  0.00  0.00    -0.174 OA
ATOM     27  O   UNL     1      -9.383   1.921  10.078  0.00  0.00    -0.174 OA
ATOM     28  C   UNL     1      -7.497   1.296   8.296  0.00  0.00    +0.188 C 
ENDBRANCH  20  22
ENDBRANCH  17  18
ENDBRANCH   4  17
TORSDOF 6
