REMARK  Name = ZINC04724284
REMARK  10 active torsions:
REMARK  status: ('A' for Active; 'I' for Inactive)
REMARK    1  A    between atoms: C_1  and  O_2
REMARK    2  A    between atoms: O_2  and  C_3
REMARK    3  A    between atoms: C_3  and  C_4
REMARK    4  A    between atoms: C_4  and  C_5
REMARK    5  A    between atoms: C_5  and  N_6
REMARK    6  A    between atoms: N_21  and  C_24
REMARK    7  A    between atoms: C_24  and  C_25
REMARK    8  A    between atoms: C_25  and  C_26
REMARK    9  A    between atoms: C_26  and  O_27
REMARK   10  A    between atoms: O_27  and  C_28
REMARK                            x       y       z     vdW  Elec       q    Type
REMARK                         _______ _______ _______ _____ _____    ______ ____
ROOT
ATOM      1  N   UNL     1      -1.238   3.504   0.030  0.00  0.00    -0.234 N 
ATOM      2  C   UNL     1      -1.271   2.158   0.020  0.00  0.00    +0.254 C 
ATOM      3  O   UNL     1      -2.340   1.579   0.022  0.00  0.00    -0.270 OA
ATOM      4  C   UNL     1      -0.017   1.382   0.010  0.00  0.00    +0.046 A 
ATOM      5  C   UNL     1       0.002  -0.004   0.002  0.00  0.00    +0.014 A 
ATOM      6  C   UNL     1       1.208  -0.702  -0.013  0.00  0.00    +0.014 A 
ATOM      7  C   UNL     1       2.418  -0.027  -0.021  0.00  0.00    +0.046 A 
ATOM      8  C   UNL     1       2.421   1.387  -0.013  0.00  0.00    +0.008 A 
ATOM      9  C   UNL     1       1.208   2.089   0.002  0.00  0.00    +0.008 A 
ATOM     10  C   UNL     1       1.211   3.503   0.007  0.00  0.00    +0.046 A 
ATOM     11  C   UNL     1       2.421   4.178  -0.001  0.00  0.00    +0.014 A 
ATOM     12  C   UNL     1       3.627   3.481  -0.015  0.00  0.00    +0.014 A 
ATOM     13  C   UNL     1       3.646   2.095  -0.021  0.00  0.00    +0.046 A 
ATOM     14  C   UNL     1       4.900   1.319  -0.036  0.00  0.00    +0.254 C 
ATOM     15  O   UNL     1       5.969   1.898  -0.044  0.00  0.00    -0.270 OA
ATOM     16  N   UNL     1       4.867  -0.027  -0.042  0.00  0.00    -0.234 N 
ATOM     17  C   UNL     1       3.716  -0.728  -0.036  0.00  0.00    +0.254 C 
ATOM     18  O   UNL     1       3.748  -1.942  -0.043  0.00  0.00    -0.270 OA
ATOM     19  C   UNL     1      -0.087   4.204   0.022  0.00  0.00    +0.254 C 
ATOM     20  O   UNL     1      -0.119   5.419   0.028  0.00  0.00    -0.270 OA
ENDROOT
BRANCH   1  21
ATOM     21  C   UNL     1      -2.506   4.237   0.046  0.00  0.00    +0.119 C 
BRANCH  21  22
ATOM     22  C   UNL     1      -2.961   4.499  -1.391  0.00  0.00    +0.047 C 
BRANCH  22  23
ATOM     23  C   UNL     1      -4.285   5.265  -1.375  0.00  0.00    +0.161 C 
BRANCH  23  25
ATOM     24  C   UNL     1      -5.945   6.223  -2.814  0.00  0.00    +0.193 C 
ATOM     25  O   UNL     1      -4.711   5.509  -2.717  0.00  0.00    -0.383 OA
ENDBRANCH  23  25
ENDBRANCH  22  23
ENDBRANCH  21  22
ENDBRANCH   1  21
BRANCH  16  26
ATOM     26  C   UNL     1       6.135  -0.761  -0.057  0.00  0.00    +0.119 C 
BRANCH  26  27
ATOM     27  C   UNL     1       6.589  -1.023   1.380  0.00  0.00    +0.047 C 
BRANCH  27  28
ATOM     28  C   UNL     1       7.913  -1.789   1.365  0.00  0.00    +0.161 C 
BRANCH  28  29
ATOM     29  O   UNL     1       8.337  -2.034   2.708  0.00  0.00    -0.383 OA
ATOM     30  C   UNL     1       9.571  -2.747   2.806  0.00  0.00    +0.193 C 
ENDBRANCH  28  29
ENDBRANCH  27  28
ENDBRANCH  26  27
ENDBRANCH  16  26
TORSDOF 8
