REMARK  Name = ZINC44511823
REMARK  6 active torsions:
REMARK  status: ('A' for Active; 'I' for Inactive)
REMARK    1  A    between atoms: C_1  and  C_2
REMARK    2  A    between atoms: C_2  and  C_4
REMARK    3  A    between atoms: C_2  and  N_13
REMARK    4  A    between atoms: C_8  and  N_10
REMARK    5  A    between atoms: C_16  and  C_19
REMARK    6  A    between atoms: C_19  and  N_20
REMARK                            x       y       z     vdW  Elec       q    Type
REMARK                         _______ _______ _______ _____ _____    ______ ____
ROOT
ATOM      1  N   UNL     1       0.713  -0.491   1.192  0.00  0.00    +0.384 N 
ATOM      2  C   UNL     1       0.739  -1.958   1.178  0.00  0.00    -0.078 C 
ATOM      3  C   UNL     1       1.548  -2.469   2.373  0.00  0.00    -0.017 C 
ATOM      4  C   UNL     1       0.896  -1.981   3.670  0.00  0.00    -0.032 C 
ATOM      5  C   UNL     1       0.805  -0.452   3.640  0.00  0.00    -0.017 C 
ATOM      6  C   UNL     1       0.025  -0.017   2.399  0.00  0.00    -0.078 C 
ATOM      7  H   UNL     1       1.658  -0.139   1.185  0.00  0.00    -0.081 HD
ENDROOT
BRANCH   1   9
ATOM      8  C   UNL     1      -0.019   1.526   0.010  0.00  0.00    -0.008 C 
ATOM      9  C   UNL     1       0.002  -0.004   0.002  0.00  0.00    -0.041 C 
BRANCH   9  10
ATOM     10  C   UNL     1       0.707  -0.490  -1.238  0.00  0.00    -0.059 A 
ATOM     11  C   UNL     1       2.089  -0.511  -1.284  0.00  0.00    +0.002 A 
ATOM     12  C   UNL     1       2.736  -0.957  -2.421  0.00  0.00    +0.002 A 
ATOM     13  C   UNL     1       2.002  -1.382  -3.512  0.00  0.00    +0.033 A 
ATOM     14  C   UNL     1       0.620  -1.362  -3.466  0.00  0.00    +0.126 A 
ATOM     15  C   UNL     1      -0.027  -0.920  -2.327  0.00  0.00    +0.034 A 
BRANCH  14  16
ATOM     16  N   UNL     1      -0.166  -1.817  -4.635  0.00  0.00    +0.056 N 
ATOM     17  O   UNL     1       0.400  -2.207  -5.630  0.00  0.00    -0.126 OA
ATOM     18  O   UNL     1      -1.374  -1.800  -4.594  0.00  0.00    -0.126 OA
ENDBRANCH  14  16
ENDBRANCH   9  10
ENDBRANCH   1   9
BRANCH   4  19
ATOM     19  C   UNL     1       1.743  -2.421   4.865  0.00  0.00    -0.083 C 
BRANCH  19  20
ATOM     20  N   UNL     1       1.056  -2.057   6.112  0.00  0.00    +0.378 N 
ATOM     21  H   UNL     1       1.615  -2.347   6.901  0.00  0.00    -0.090 HD
ATOM     22  H   UNL     1       0.923  -1.057   6.144  0.00  0.00    -0.090 HD
ATOM     23  H   UNL     1       0.159  -2.517   6.148  0.00  0.00    -0.090 HD
ENDBRANCH  19  20
ENDBRANCH   4  19
TORSDOF 5
