REMARK  Name = ZINC63637698
REMARK  4 active torsions:
REMARK  status: ('A' for Active; 'I' for Inactive)
REMARK    1  A    between atoms: C_1  and  C_2
REMARK    2  A    between atoms: C_2  and  C_30
REMARK    3  A    between atoms: C_6  and  C_18
REMARK    4  A    between atoms: C_23  and  C_24
REMARK                            x       y       z     vdW  Elec       q    Type
REMARK                         _______ _______ _______ _____ _____    ______ ____
ROOT
ATOM      1  C   UNL     1       0.913   5.811   3.029  0.00  0.00    +0.011 C 
ATOM      2  C   UNL     1       0.167   4.936   4.037  0.00  0.00    -0.023 C 
ATOM      3  C   UNL     1      -0.662   3.885   3.295  0.00  0.00    +0.058 C 
ATOM      4  C   UNL     1       0.252   3.002   2.478  0.00  0.00    +0.016 C 
ATOM      5  C   UNL     1       1.510   2.744   2.883  0.00  0.00    +0.021 C 
ATOM      6  C   UNL     1       2.450   1.873   2.082  0.00  0.00    +0.073 C 
ATOM      7  C   UNL     1       1.661   0.961   1.141  0.00  0.00    +0.148 C 
ATOM      8  C   UNL     1       0.596   1.804   0.479  0.00  0.00    +0.106 C 
ATOM      9  N   UNL     1       0.497   1.912  -0.809  0.00  0.00    -0.151 NA
ATOM     10  C   UNL     1       1.345   1.304  -1.652  0.00  0.00    +0.331 C 
ATOM     11  O   UNL     1       1.179   1.426  -2.851  0.00  0.00    -0.250 OA
ATOM     12  N   UNL     1       2.371   0.563  -1.204  0.00  0.00    -0.238 N 
ATOM     13  C   UNL     1       2.577   0.364   0.113  0.00  0.00    +0.231 C 
ATOM     14  O   UNL     1       3.520  -0.305   0.477  0.00  0.00    -0.275 OA
ATOM     15  N   UNL     1      -0.259   2.468   1.316  0.00  0.00    -0.307 N 
ATOM     16  C   UNL     1       2.009   3.289   4.083  0.00  0.00    +0.162 C 
ATOM     17  O   UNL     1       3.137   3.013   4.439  0.00  0.00    -0.292 OA
ATOM     18  C   UNL     1       1.175   4.207   4.933  0.00  0.00    +0.086 C 
ATOM     19  C   UNL     1      -0.752   5.806   4.896  0.00  0.00    +0.011 C 
ATOM     20  H   UNL     1       2.978   0.159  -1.843  0.00  0.00    +0.159 HD
ATOM     21  H   UNL     1      -1.199   2.559   1.096  0.00  0.00    +0.153 HD
ENDROOT
BRANCH   6  22
ATOM     22  C   UNL     1       3.368   2.749   1.268  0.00  0.00    -0.025 A 
ATOM     23  C   UNL     1       2.845   3.614   0.329  0.00  0.00    +0.005 A 
ATOM     24  C   UNL     1       3.686   4.419  -0.419  0.00  0.00    +0.000 A 
ATOM     25  C   UNL     1       5.057   4.361  -0.233  0.00  0.00    +0.001 A 
ATOM     26  C   UNL     1       5.593   3.500   0.701  0.00  0.00    +0.015 A 
ATOM     27  C   UNL     1       4.750   2.689   1.465  0.00  0.00    +0.067 A 
BRANCH  27  28
ATOM     28  C   UNL     1       5.316   1.771   2.471  0.00  0.00    +0.387 C 
ATOM     29  O   UNL     1       5.691   2.204   3.552  0.00  0.00    -0.241 OA
ATOM     30  O   UNL     1       5.410   0.577   2.225  0.00  0.00    -0.241 OA
ENDBRANCH  27  28
ENDBRANCH   6  22
TORSDOF 2
