REMARK  Name = ZINC34749487
REMARK  8 active torsions:
REMARK  status: ('A' for Active; 'I' for Inactive)
REMARK    1  A    between atoms: C_1  and  C_2
REMARK    2  A    between atoms: C_2  and  C_3
REMARK    3  A    between atoms: C_4  and  C_35
REMARK    4  A    between atoms: N_10  and  C_33
REMARK    5  A    between atoms: N_16  and  C_19
REMARK    6  A    between atoms: C_19  and  C_20
REMARK    7  A    between atoms: N_22  and  C_23
REMARK    8  A    between atoms: C_33  and  C_34
REMARK                            x       y       z     vdW  Elec       q    Type
REMARK                         _______ _______ _______ _____ _____    ______ ____
ROOT
ATOM      1  C   UNL     1       0.750  -0.295  -1.027  0.00  0.00    -0.023 A 
ATOM      2  C   UNL     1       0.464   0.987  -1.296  0.00  0.00    -0.007 A 
ATOM      3  S   UNL     1       2.039   1.670  -1.776  0.00  0.00    -0.073 S 
ATOM      4  C   UNL     1       3.036   0.213  -1.602  0.00  0.00    +0.117 A 
ATOM      5  C   UNL     1       2.118  -0.762  -1.169  0.00  0.00    +0.076 A 
ATOM      6  C   UNL     1       2.659  -2.067  -0.938  0.00  0.00    +0.264 A 
ATOM      7  O   UNL     1       1.938  -2.977  -0.567  0.00  0.00    -0.267 OA
ATOM      8  N   UNL     1       3.973  -2.276  -1.137  0.00  0.00    -0.281 N 
ATOM      9  C   UNL     1       4.795  -1.270  -1.553  0.00  0.00    +0.202 A 
ATOM     10  N   UNL     1       4.323  -0.062  -1.783  0.00  0.00    -0.208 NA
ATOM     11  N   UNL     1       6.130  -1.522  -1.744  0.00  0.00    -0.304 N 
ATOM     12  C   UNL     1       7.081  -1.452  -0.624  0.00  0.00    +0.089 C 
ATOM     13  C   UNL     1       8.261  -0.570  -1.044  0.00  0.00    -0.059 C 
ATOM     14  N   UNL     1       8.835  -1.083  -2.294  0.00  0.00    +0.387 N 
ATOM     15  C   UNL     1       7.852  -0.969  -3.379  0.00  0.00    -0.059 C 
ATOM     16  C   UNL     1       6.650  -1.877  -3.074  0.00  0.00    +0.089 C 
ATOM     17  C   UNL     1      -0.869   1.684  -1.212  0.00  0.00    +0.052 C 
ATOM     18  H   UNL     1       9.090  -2.051  -2.173  0.00  0.00    -0.081 HD
ENDROOT
BRANCH   1  20
ATOM     19  C   UNL     1      -0.439  -1.206   0.950  0.00  0.00    +0.009 C 
ATOM     20  C   UNL     1      -0.335  -1.240  -0.576  0.00  0.00    +0.033 C 
ENDBRANCH   1  20
BRANCH   8  21
ATOM     21  C   UNL     1       4.532  -3.610  -0.902  0.00  0.00    +0.125 C 
ATOM     22  C   UNL     1       4.349  -4.467  -2.156  0.00  0.00    +0.027 C 
ENDBRANCH   8  21
BRANCH  14  23
ATOM     23  C   UNL     1      10.032  -0.304  -2.638  0.00  0.00    +0.019 C 
BRANCH  23  24
ATOM     24  C   UNL     1      10.691  -0.905  -3.852  0.00  0.00    +0.201 C 
ATOM     25  O   UNL     1      10.211  -1.886  -4.380  0.00  0.00    -0.278 OA
ATOM     26  N   UNL     1      11.815  -0.353  -4.352  0.00  0.00    -0.287 N 
ATOM     27  H   UNL     1      12.235   0.391  -3.893  0.00  0.00    +0.155 HD
BRANCH  26  28
ATOM     28  C   UNL     1      12.373  -0.852  -5.530  0.00  0.00    +0.041 A 
ATOM     29  C   UNL     1      12.310  -2.199  -5.814  0.00  0.00    +0.024 A 
ATOM     30  C   UNL     1      12.863  -2.706  -6.986  0.00  0.00    +0.002 A 
ATOM     31  C   UNL     1      13.480  -1.889  -7.883  0.00  0.00    +0.008 A 
ATOM     32  C   UNL     1      13.564  -0.509  -7.633  0.00  0.00    -0.016 A 
ATOM     33  C   UNL     1      13.001   0.020  -6.445  0.00  0.00    +0.003 A 
ATOM     34  C   UNL     1      13.082   1.400  -6.198  0.00  0.00    +0.010 A 
ATOM     35  C   UNL     1      13.696   2.211  -7.103  0.00  0.00    +0.001 A 
ATOM     36  C   UNL     1      14.245   1.693  -8.274  0.00  0.00    +0.001 A 
ATOM     37  C   UNL     1      14.195   0.359  -8.541  0.00  0.00    +0.008 A 
ENDBRANCH  26  28
ENDBRANCH  23  24
ENDBRANCH  14  23
TORSDOF 5
