REMARK  Name = ZINC58848023
REMARK  7 active torsions:
REMARK  status: ('A' for Active; 'I' for Inactive)
REMARK    1  A    between atoms: C_1  and  C_2
REMARK    2  A    between atoms: C_7  and  N_8
REMARK    3  A    between atoms: N_8  and  S_9
REMARK    4  A    between atoms: S_9  and  C_12
REMARK    5  A    between atoms: C_25  and  C_28
REMARK    6  A    between atoms: C_33  and  O_34
REMARK    7  A    between atoms: O_34  and  C_35
REMARK                            x       y       z     vdW  Elec       q    Type
REMARK                         _______ _______ _______ _____ _____    ______ ____
ROOT
ATOM      1  C   UNL     1       2.511  -0.688   3.425  0.00  0.00    +0.109 A 
ATOM      2  C   UNL     1       3.138  -1.747   2.795  0.00  0.00    +0.030 A 
ATOM      3  C   UNL     1       4.499  -1.704   2.573  0.00  0.00    +0.025 A 
ATOM      4  C   UNL     1       5.238  -0.598   2.979  0.00  0.00    +0.031 A 
ATOM      5  C   UNL     1       4.609   0.471   3.600  0.00  0.00    -0.018 A 
ATOM      6  C   UNL     1       3.240   0.415   3.820  0.00  0.00    +0.034 A 
ATOM      7  C   UNL     1       5.361   1.690   4.014  0.00  0.00    +0.049 C 
ATOM      8  C   UNL     1       5.601   1.731   5.501  0.00  0.00    -0.023 C 
ATOM      9  C   UNL     1       6.773   2.256   5.757  0.00  0.00    -0.030 C 
ATOM     10  C   UNL     1       7.486   2.635   4.477  0.00  0.00    +0.033 C 
ATOM     11  C   UNL     1       6.748   1.822   3.388  0.00  0.00    +0.029 C 
ATOM     12  C   UNL     1       7.468   0.501   3.215  0.00  0.00    +0.108 C 
ATOM     13  N   UNL     1       6.611  -0.577   2.766  0.00  0.00    -0.336 N 
ATOM     14  H   UNL     1       7.019  -1.332   2.314  0.00  0.00    +0.147 HD
ENDROOT
BRANCH  12  15
ATOM     15  C   UNL     1       8.106   0.128   4.529  0.00  0.00    +0.015 A 
ATOM     16  C   UNL     1       9.430   0.439   4.767  0.00  0.00    +0.009 A 
ATOM     17  C   UNL     1      10.016   0.097   5.972  0.00  0.00    +0.001 A 
ATOM     18  C   UNL     1       9.278  -0.557   6.941  0.00  0.00    +0.004 A 
ATOM     19  C   UNL     1       7.953  -0.871   6.707  0.00  0.00    +0.046 A 
ATOM     20  C   UNL     1       7.362  -0.523   5.501  0.00  0.00    +0.125 A 
BRANCH  20  21
ATOM     21  O   UNL     1       6.056  -0.825   5.272  0.00  0.00    -0.495 OA
ATOM     22  C   UNL     1       5.352  -1.496   6.318  0.00  0.00    +0.277 C 
ENDBRANCH  20  21
ENDBRANCH  12  15
BRANCH   1  23
ATOM     23  S   UNL     1       0.774  -0.743   3.718  0.00  0.00    +0.072 S 
ATOM     24  O   UNL     1       0.518   0.134   4.806  0.00  0.00    -0.150 OA
ATOM     25  O   UNL     1       0.410  -2.116   3.745  0.00  0.00    -0.150 OA
BRANCH  23  26
ATOM     26  N   UNL     1       0.033  -0.083   2.393  0.00  0.00    -0.216 N 
ATOM     27  H   UNL     1      -0.528   0.703   2.491  0.00  0.00    +0.174 HD
BRANCH  26  34
ATOM     28  C   UNL     1       0.149   1.644   0.135  0.00  0.00    +0.046 C 
ATOM     29  C   UNL     1       0.277   0.148   0.003  0.00  0.00    -0.027 A 
ATOM     30  C   UNL     1       0.462  -0.422  -1.242  0.00  0.00    +0.025 A 
ATOM     31  C   UNL     1       0.580  -1.795  -1.364  0.00  0.00    +0.041 A 
ATOM     32  C   UNL     1       0.512  -2.601  -0.241  0.00  0.00    +0.022 A 
ATOM     33  C   UNL     1       0.327  -2.036   1.005  0.00  0.00    +0.026 A 
ATOM     34  C   UNL     1       0.214  -0.658   1.132  0.00  0.00    +0.051 A 
ATOM     35 CL   UNL     1       0.813  -2.509  -2.930  0.00  0.00    -0.084 Cl
ENDBRANCH  26  34
ENDBRANCH  23  26
ENDBRANCH   1  23
TORSDOF 5
