REMARK  Name = ZINC01144735
REMARK  10 active torsions:
REMARK  status: ('A' for Active; 'I' for Inactive)
REMARK    1  A    between atoms: C_1  and  C_2
REMARK    2  A    between atoms: C_2  and  C_3
REMARK    3  A    between atoms: C_6  and  C_8
REMARK    4  A    between atoms: C_10  and  C_26
REMARK    5  A    between atoms: C_11  and  N_25
REMARK    6  A    between atoms: N_12  and  N_22
REMARK    7  A    between atoms: C_18  and  C_20
REMARK    8  A    between atoms: C_18  and  C_21
REMARK    9  A    between atoms: N_22  and  C_23
REMARK   10  A    between atoms: N_22  and  C_24
REMARK                            x       y       z     vdW  Elec       q    Type
REMARK                         _______ _______ _______ _____ _____    ______ ____
ROOT
ATOM      1  C   UNL     1      -2.662   1.876  -1.201  0.00  0.00    +0.104 C 
ATOM      2  C   UNL     1      -2.192   1.469  -2.567  0.00  0.00    +0.078 C 
ATOM      3  C   UNL     1      -0.868   1.393  -2.859  0.00  0.00    +0.117 C 
ATOM      4  N   UNL     1       0.069   1.683  -1.895  0.00  0.00    -0.223 N 
ATOM      5  C   UNL     1      -0.267   1.657  -0.569  0.00  0.00    +0.037 C 
ATOM      6  C   UNL     1      -1.558   1.744  -0.183  0.00  0.00    +0.027 C 
ATOM      7  C   UNL     1      -1.911   1.720   1.177  0.00  0.00    +0.162 C 
ATOM      8  O   UNL     1      -3.084   1.783   1.489  0.00  0.00    -0.292 OA
ATOM      9  C   UNL     1      -0.865   1.617   2.253  0.00  0.00    +0.086 C 
ATOM     10  C   UNL     1       0.438   2.237   1.741  0.00  0.00    -0.023 C 
ATOM     11  C   UNL     1       0.840   1.524   0.448  0.00  0.00    +0.059 C 
ATOM     12  C   UNL     1       1.538   2.060   2.789  0.00  0.00    +0.011 C 
ATOM     13  C   UNL     1       0.225   3.726   1.461  0.00  0.00    +0.011 C 
ENDROOT
BRANCH   1  17
ATOM     14  C   UNL     1      -3.512   5.970  -1.458  0.00  0.00    -0.010 A 
ATOM     15  C   UNL     1      -4.547   5.184  -1.074  0.00  0.00    +0.011 A 
ATOM     16  C   UNL     1      -4.349   3.821  -0.965  0.00  0.00    +0.012 A 
ATOM     17  C   UNL     1      -3.125   3.310  -1.245  0.00  0.00    +0.003 A 
ATOM     18  S   UNL     1      -2.202   4.777  -1.673  0.00  0.00    -0.097 S 
BRANCH  14  20
ATOM     19  C   UNL     1      -3.076   8.137  -0.333  0.00  0.00    +0.009 C 
ATOM     20  C   UNL     1      -3.474   7.465  -1.648  0.00  0.00    +0.039 C 
ENDBRANCH  14  20
ENDBRANCH   1  17
BRANCH   4  21
ATOM     21  N   UNL     1       1.345   2.001  -2.265  0.00  0.00    -0.227 NA
ATOM     22  C   UNL     1       1.730   3.321  -1.747  0.00  0.00    +0.128 C 
ATOM     23  C   UNL     1       2.293   0.967  -1.827  0.00  0.00    +0.128 C 
ENDBRANCH   4  21
BRANCH   3  24
ATOM     24  N   UNL     1      -0.463   1.026  -4.120  0.00  0.00    -0.344 N 
ATOM     25  H   UNL     1       0.478   1.047  -4.352  0.00  0.00    +0.144 HD
ATOM     26  H   UNL     1      -1.119   0.747  -4.777  0.00  0.00    +0.144 HD
ENDBRANCH   3  24
BRANCH   2  27
ATOM     27  C   UNL     1      -3.156   1.154  -3.578  0.00  0.00    +0.099 C 
ATOM     28  N   UNL     1      -3.920   0.905  -4.381  0.00  0.00    -0.191 NA
ENDBRANCH   2  27
TORSDOF 5
