REMARK  Name = ZINC62496758
REMARK  5 active torsions:
REMARK  status: ('A' for Active; 'I' for Inactive)
REMARK    1  A    between atoms: C_1  and  C_2
REMARK    2  A    between atoms: C_2  and  N_3
REMARK    3  A    between atoms: C_7  and  N_23
REMARK    4  A    between atoms: C_11  and  C_15
REMARK    5  A    between atoms: C_15  and  C_16
REMARK                            x       y       z     vdW  Elec       q    Type
REMARK                         _______ _______ _______ _____ _____    ______ ____
ROOT
ATOM      1  N   UNL     1      -1.372  -0.511   0.012  0.00  0.00    -0.265 N 
ATOM      2  C   UNL     1      -2.030  -0.758   1.228  0.00  0.00    +0.078 A 
ATOM      3  C   UNL     1      -1.326  -0.747   2.422  0.00  0.00    +0.029 A 
ATOM      4  C   UNL     1      -1.982  -1.005   3.611  0.00  0.00    +0.025 A 
ATOM      5  C   UNL     1      -3.344  -1.276   3.611  0.00  0.00    +0.028 A 
ATOM      6  C   UNL     1      -4.053  -1.283   2.417  0.00  0.00    +0.070 A 
ATOM      7  C   UNL     1      -3.398  -1.018   1.227  0.00  0.00    +0.145 A 
ATOM      8  O   UNL     1      -4.088  -0.991   0.054  0.00  0.00    -0.477 OA
ATOM      9  C   UNL     1      -3.384  -1.395  -1.122  0.00  0.00    +0.263 C 
ATOM     10  C   UNL     1      -2.024  -0.741  -1.147  0.00  0.00    +0.261 C 
ATOM     11  O   UNL     1      -1.518  -0.428  -2.203  0.00  0.00    -0.271 OA
ENDROOT
BRANCH   5  12
ATOM     12  N   UNL     1      -4.003  -1.544   4.816  0.00  0.00    -0.358 N 
ATOM     13  H   UNL     1      -3.509  -1.540   5.651  0.00  0.00    +0.142 HD
ATOM     14  H   UNL     1      -4.954  -1.733   4.817  0.00  0.00    +0.142 HD
ENDBRANCH   5  12
BRANCH   1  16
ATOM     15  C   UNL     1      -0.019   1.526   0.010  0.00  0.00    +0.025 C 
ATOM     16  C   UNL     1       0.002  -0.004   0.002  0.00  0.00    +0.110 C 
ENDBRANCH   1  16
BRANCH   9  17
ATOM     17  C   UNL     1      -3.222  -2.916  -1.122  0.00  0.00    +0.090 C 
BRANCH  17  18
ATOM     18  C   UNL     1      -4.578  -3.565  -1.226  0.00  0.00    -0.025 A 
ATOM     19  C   UNL     1      -5.245  -3.961  -0.082  0.00  0.00    +0.005 A 
ATOM     20  C   UNL     1      -6.489  -4.556  -0.177  0.00  0.00    +0.000 A 
ATOM     21  C   UNL     1      -7.067  -4.756  -1.417  0.00  0.00    +0.001 A 
ATOM     22  C   UNL     1      -6.401  -4.361  -2.562  0.00  0.00    +0.020 A 
ATOM     23  C   UNL     1      -5.159  -3.760  -2.467  0.00  0.00    +0.044 A 
ATOM     24 CL   UNL     1      -4.325  -3.257  -3.904  0.00  0.00    -0.083 Cl
ENDBRANCH  17  18
ENDBRANCH   9  17
TORSDOF 4
