REMARK  Name = ZINC58603252
REMARK  12 active torsions:
REMARK  status: ('A' for Active; 'I' for Inactive)
REMARK    1  A    between atoms: C_1  and  C_2
REMARK    2  A    between atoms: C_2  and  N_3
REMARK    3  A    between atoms: N_3  and  C_4
REMARK    4  A    between atoms: N_3  and  S_10
REMARK    5  A    between atoms: S_10  and  C_13
REMARK    6  A    between atoms: C_16  and  N_22
REMARK    7  A    between atoms: C_17  and  N_19
REMARK    8  A    between atoms: N_22  and  C_23
REMARK    9  A    between atoms: N_26  and  C_29
REMARK   10  A    between atoms: C_29  and  C_30
REMARK   11  A    between atoms: C_30  and  C_31
REMARK   12  A    between atoms: C_30  and  C_32
REMARK                            x       y       z     vdW  Elec       q    Type
REMARK                         _______ _______ _______ _____ _____    ______ ____
ROOT
ATOM      1  C   UNL     1       3.257  -1.183   2.449  0.00  0.00    +0.111 A 
ATOM      2  C   UNL     1       3.338  -0.038   1.677  0.00  0.00    +0.031 A 
ATOM      3  C   UNL     1       3.907   1.107   2.197  0.00  0.00    +0.027 A 
ATOM      4  C   UNL     1       4.397   1.109   3.497  0.00  0.00    +0.058 A 
ATOM      5  C   UNL     1       4.314  -0.042   4.269  0.00  0.00    +0.149 A 
ATOM      6  C   UNL     1       3.739  -1.183   3.744  0.00  0.00    +0.063 A 
ENDROOT
BRANCH   1   7
ATOM      7  S   UNL     1       2.530  -2.643   1.781  0.00  0.00    +0.075 S 
ATOM      8  O   UNL     1       2.945  -3.719   2.611  0.00  0.00    -0.150 OA
ATOM      9  O   UNL     1       2.781  -2.619   0.383  0.00  0.00    -0.150 OA
BRANCH   7  10
ATOM     10  N   UNL     1       0.891  -2.504   1.970  0.00  0.00    -0.203 N 
BRANCH  10  11
ATOM     11  C   UNL     1       0.274  -3.013   3.116  0.00  0.00    +0.051 A 
ATOM     12  C   UNL     1       0.988  -3.115   4.303  0.00  0.00    +0.025 A 
ATOM     13  C   UNL     1       0.375  -3.618   5.434  0.00  0.00    +0.002 A 
ATOM     14  C   UNL     1      -0.947  -4.021   5.385  0.00  0.00    +0.000 A 
ATOM     15  C   UNL     1      -1.660  -3.921   4.204  0.00  0.00    +0.002 A 
ATOM     16  C   UNL     1      -1.055  -3.413   3.071  0.00  0.00    +0.025 A 
ENDBRANCH  10  11
BRANCH  10  18
ATOM     17  C   UNL     1      -0.113  -0.376   1.304  0.00  0.00    +0.026 C 
ATOM     18  C   UNL     1       0.087  -1.848   0.936  0.00  0.00    +0.128 C 
ENDBRANCH  10  18
ENDBRANCH   7  10
ENDBRANCH   1   7
BRANCH   5  19
ATOM     19  N   UNL     1       4.835  -0.044   5.654  0.00  0.00    +0.058 N 
ATOM     20  O   UNL     1       5.851   0.556   5.919  0.00  0.00    -0.126 OA
ATOM     21  O   UNL     1       4.246  -0.647   6.521  0.00  0.00    -0.126 OA
ENDBRANCH   5  19
BRANCH   4  22
ATOM     22  N   UNL     1       4.974   2.267   4.026  0.00  0.00    -0.339 N 
ATOM     23  H   UNL     1       5.238   2.294   4.959  0.00  0.00    +0.146 HD
BRANCH  22  24
ATOM     24  C   UNL     1       5.179   3.439   3.171  0.00  0.00    +0.067 C 
ATOM     25  C   UNL     1       6.511   3.304   2.428  0.00  0.00    +0.003 C 
ATOM     26  C   UNL     1       6.757   4.566   1.599  0.00  0.00    -0.077 C 
ATOM     27  N   UNL     1       6.806   5.736   2.485  0.00  0.00    +0.380 N 
ATOM     28  C   UNL     1       5.508   5.913   3.147  0.00  0.00    -0.077 C 
ATOM     29  C   UNL     1       5.214   4.703   4.036  0.00  0.00    +0.003 C 
ATOM     30  H   UNL     1       7.522   5.598   3.183  0.00  0.00    -0.082 HD
BRANCH  27  31
ATOM     31  C   UNL     1       7.120   6.934   1.695  0.00  0.00    -0.076 C 
BRANCH  31  32
ATOM     32  C   UNL     1       7.314   8.127   2.634  0.00  0.00    -0.034 C 
ATOM     33  C   UNL     1       8.498   7.857   3.564  0.00  0.00    +0.005 C 
ATOM     34  C   UNL     1       7.590   9.385   1.808  0.00  0.00    +0.005 C 
ENDBRANCH  31  32
ENDBRANCH  27  31
ENDBRANCH  22  24
ENDBRANCH   4  22
TORSDOF 9
