REMARK  Name = ZINC56806717
REMARK  5 active torsions:
REMARK  status: ('A' for Active; 'I' for Inactive)
REMARK    1  A    between atoms: C_6  and  C_7
REMARK    2  A    between atoms: C_7  and  C_8
REMARK    3  A    between atoms: N_10  and  N_11
REMARK    4  A    between atoms: N_14  and  C_15
REMARK    5  A    between atoms: N_24  and  C_26
REMARK                            x       y       z     vdW  Elec       q    Type
REMARK                         _______ _______ _______ _____ _____    ______ ____
ROOT
ATOM      1  N   UNL     1      -3.293  -1.932  -2.965  0.00  0.00    -0.218 N 
ATOM      2  C   UNL     1      -4.434  -2.608  -3.204  0.00  0.00    +0.316 C 
ATOM      3  O   UNL     1      -4.794  -2.809  -4.348  0.00  0.00    -0.251 OA
ATOM      4  N   UNL     1      -5.177  -3.062  -2.175  0.00  0.00    -0.295 N 
ATOM      5  H   UNL     1      -2.759  -1.606  -3.706  0.00  0.00    +0.174 HD
ATOM      6  H   UNL     1      -4.891  -2.901  -1.262  0.00  0.00    +0.151 HD
ENDROOT
BRANCH   4   7
ATOM      7  C   UNL     1      -6.415  -3.795  -2.434  0.00  0.00    +0.077 C 
ATOM      8  C   UNL     1      -6.120  -5.284  -2.627  0.00  0.00    -0.007 C 
ATOM      9  C   UNL     1      -7.407  -6.008  -3.008  0.00  0.00    +0.003 C 
ATOM     10  C   UNL     1      -8.522  -5.797  -1.997  0.00  0.00    +0.001 C 
ATOM     11  C   UNL     1      -8.692  -4.344  -1.582  0.00  0.00    +0.003 C 
ATOM     12  C   UNL     1      -7.367  -3.669  -1.243  0.00  0.00    -0.007 C 
ATOM     13  C   UNL     1      -6.735  -4.268   0.004  0.00  0.00    -0.073 C 
ATOM     14  N   UNL     1      -6.310  -5.652  -0.171  0.00  0.00    +0.382 N 
ATOM     15  C   UNL     1      -5.501  -5.867  -1.366  0.00  0.00    -0.073 C 
ATOM     16  H   UNL     1      -7.109  -6.266  -0.175  0.00  0.00    -0.081 HD
BRANCH  14  17
ATOM     17  C   UNL     1      -5.504  -6.032   0.997  0.00  0.00    -0.069 C 
ATOM     18  C   UNL     1      -5.885  -7.321   1.729  0.00  0.00    -0.017 C 
ATOM     19  C   UNL     1      -6.176  -5.963   2.370  0.00  0.00    -0.017 C 
ENDBRANCH  14  17
ENDBRANCH   4   7
BRANCH   1  22
ATOM     20  C   UNL     1      -1.738  -1.024  -1.408  0.00  0.00    +0.233 C 
ATOM     21  O   UNL     1      -1.070  -0.616  -2.334  0.00  0.00    -0.274 OA
ATOM     22  N   UNL     1      -2.879  -1.700  -1.647  0.00  0.00    -0.233 N 
ATOM     23  H   UNL     1      -3.414  -2.026  -0.906  0.00  0.00    +0.173 HD
BRANCH  20  24
ATOM     24  C   UNL     1      -1.293  -0.775   0.010  0.00  0.00    +0.132 C 
BRANCH  24  30
ATOM     25  C   UNL     1      -0.017   1.378   0.010  0.00  0.00    +0.007 A 
ATOM     26  C   UNL     1       1.170   2.086   0.002  0.00  0.00    +0.038 A 
ATOM     27  C   UNL     1       2.379   1.410  -0.013  0.00  0.00    +0.123 A 
ATOM     28  C   UNL     1       2.396   0.026  -0.021  0.00  0.00    +0.038 A 
ATOM     29  C   UNL     1       1.208  -0.680  -0.013  0.00  0.00    +0.007 A 
ATOM     30  C   UNL     1       0.002  -0.004   0.002  0.00  0.00    -0.038 A 
ATOM     31  F   UNL     1       3.540   2.101  -0.021  0.00  0.00    -0.205 F 
ENDBRANCH  24  30
ENDBRANCH  20  24
ENDBRANCH   1  22
TORSDOF 5
