REMARK  Name = ZINC25942255
REMARK  7 active torsions:
REMARK  status: ('A' for Active; 'I' for Inactive)
REMARK    1  A    between atoms: C_1  and  C_2
REMARK    2  A    between atoms: C_2  and  C_4
REMARK    3  A    between atoms: C_2  and  N_14
REMARK    4  A    between atoms: N_10  and  C_11
REMARK    5  A    between atoms: N_10  and  C_12
REMARK    6  A    between atoms: N_17  and  C_20
REMARK    7  A    between atoms: C_20  and  C_21
REMARK                            x       y       z     vdW  Elec       q    Type
REMARK                         _______ _______ _______ _____ _____    ______ ____
ROOT
ATOM      1  N   UNL     1       0.713  -0.491   1.192  0.00  0.00    +0.388 N 
ATOM      2  C   UNL     1       0.026  -0.015   2.400  0.00  0.00    -0.062 C 
ATOM      3  C   UNL     1       0.776  -0.506   3.640  0.00  0.00    +0.066 C 
ATOM      4  N   UNL     1       0.826  -1.975   3.630  0.00  0.00    -0.300 NA
ATOM      5  C   UNL     1       1.489  -2.466   2.414  0.00  0.00    +0.066 C 
ATOM      6  C   UNL     1       0.732  -1.959   1.184  0.00  0.00    -0.062 C 
ATOM      7  H   UNL     1       1.659  -0.142   1.185  0.00  0.00    -0.081 HD
ENDROOT
BRANCH   1   9
ATOM      8  C   UNL     1      -0.019   1.526   0.010  0.00  0.00    -0.005 C 
ATOM      9  C   UNL     1       0.002  -0.004   0.002  0.00  0.00    -0.002 C 
BRANCH   9  10
ATOM     10  C   UNL     1       0.707  -0.490  -1.238  0.00  0.00    +0.123 A 
ATOM     11  N   UNL     1       2.025  -0.417  -1.318  0.00  0.00    -0.201 NA
ATOM     12  C   UNL     1       2.651  -0.846  -2.411  0.00  0.00    +0.217 A 
ATOM     13  N   UNL     1       1.951  -1.347  -3.423  0.00  0.00    -0.181 NA
ATOM     14  C   UNL     1       0.627  -1.419  -3.338  0.00  0.00    +0.222 A 
ATOM     15  N   UNL     1       0.008  -0.993  -2.240  0.00  0.00    -0.201 NA
ATOM     16  N   UNL     1      -0.105  -1.939  -4.386  0.00  0.00    -0.306 N 
ATOM     17  C   UNL     1       0.578  -2.413  -5.593  0.00  0.00    +0.132 C 
ATOM     18  C   UNL     1      -1.565  -2.018  -4.292  0.00  0.00    +0.132 C 
ATOM     19  N   UNL     1       4.027  -0.768  -2.495  0.00  0.00    -0.327 N 
ATOM     20  H   UNL     1       4.537  -0.402  -1.756  0.00  0.00    +0.145 HD
ATOM     21  H   UNL     1       4.482  -1.081  -3.292  0.00  0.00    +0.145 HD
ENDBRANCH   9  10
ENDBRANCH   1   9
BRANCH   4  22
ATOM     22  C   UNL     1       1.490  -2.488   4.835  0.00  0.00    +0.137 C 
BRANCH  22  23
ATOM     23  C   UNL     1       1.308  -3.982   4.912  0.00  0.00    +0.037 A 
ATOM     24  C   UNL     1       2.404  -4.817   4.820  0.00  0.00    +0.093 A 
ATOM     25  C   UNL     1       2.209  -6.201   4.894  0.00  0.00    +0.258 A 
ATOM     26  O   UNL     1       3.158  -6.966   4.816  0.00  0.00    -0.267 OA
ATOM     27  N   UNL     1       0.956  -6.677   5.054  0.00  0.00    -0.270 N 
ATOM     28  C   UNL     1       0.750  -8.021   5.129  0.00  0.00    +0.096 A 
ATOM     29  C   UNL     1      -0.496  -8.522   5.289  0.00  0.00    +0.018 A 
ATOM     30  C   UNL     1      -1.596  -7.657   5.380  0.00  0.00    +0.005 A 
ATOM     31  C   UNL     1      -1.400  -6.311   5.306  0.00  0.00    +0.045 A 
ATOM     32  C   UNL     1      -0.097  -5.809   5.141  0.00  0.00    +0.118 A 
ATOM     33  N   UNL     1       0.097  -4.493   5.074  0.00  0.00    -0.343 N 
ATOM     34  H   UNL     1      -0.665  -3.897   5.142  0.00  0.00    +0.167 HD
ENDBRANCH  22  23
ENDBRANCH   4  22
TORSDOF 4
