REMARK  Name = ZINC03332871
REMARK  7 active torsions:
REMARK  status: ('A' for Active; 'I' for Inactive)
REMARK    1  A    between atoms: C_1  and  C_2
REMARK    2  A    between atoms: C_15  and  C_17
REMARK    3  A    between atoms: C_17  and  S_18
REMARK    4  A    between atoms: S_18  and  C_19
REMARK    5  A    between atoms: C_22  and  C_31
REMARK    6  A    between atoms: N_23  and  C_24
REMARK    7  A    between atoms: C_24  and  C_25
REMARK                            x       y       z     vdW  Elec       q    Type
REMARK                         _______ _______ _______ _____ _____    ______ ____
ROOT
ATOM      1  S   UNL     1      -0.860   1.669   1.497  0.00  0.00    -0.078 S 
ENDROOT
BRANCH   1   2
ATOM      2  C   UNL     1       0.174   0.961   2.735  0.00  0.00    +0.193 A 
ATOM      3  N   UNL     1       1.244   0.226   2.530  0.00  0.00    -0.122 NA
ATOM      4  N   UNL     1       1.761  -0.127   3.652  0.00  0.00    -0.125 NA
ATOM      5  C   UNL     1       1.052   0.361   4.646  0.00  0.00    +0.201 A 
ATOM      6  N   UNL     1       0.016   1.078   4.088  0.00  0.00    -0.295 N 
BRANCH   5   7
ATOM      7  C   UNL     1       1.317   0.181   6.082  0.00  0.00    +0.172 A 
ATOM      8  C   UNL     1       2.478  -0.276   6.630  0.00  0.00    +0.053 A 
ATOM      9  C   UNL     1       2.291  -0.286   8.025  0.00  0.00    +0.042 A 
ATOM     10  C   UNL     1       1.038   0.152   8.260  0.00  0.00    +0.196 A 
ATOM     11  O   UNL     1       0.452   0.433   7.084  0.00  0.00    -0.460 OA
ENDBRANCH   5   7
BRANCH   6  12
ATOM     12  C   UNL     1      -1.037   1.810   4.796  0.00  0.00    +0.161 C 
BRANCH  12  13
ATOM     13  C   UNL     1      -2.206   0.892   5.046  0.00  0.00    -0.028 A 
ATOM     14  C   UNL     1      -3.224   0.800   4.115  0.00  0.00    +0.005 A 
ATOM     15  C   UNL     1      -4.294  -0.045   4.342  0.00  0.00    +0.000 A 
ATOM     16  C   UNL     1      -4.351  -0.791   5.505  0.00  0.00    +0.000 A 
ATOM     17  C   UNL     1      -3.336  -0.695   6.438  0.00  0.00    +0.000 A 
ATOM     18  C   UNL     1      -2.263   0.146   6.208  0.00  0.00    +0.005 A 
ENDBRANCH  12  13
ENDBRANCH   6  12
ENDBRANCH   1   2
BRANCH   1  19
ATOM     19  C   UNL     1      -0.013   1.086   0.008  0.00  0.00    +0.151 C 
BRANCH  19  33
ATOM     20  C   UNL     1      -5.592   4.795  -7.405  0.00  0.00    +0.008 C 
ATOM     21  C   UNL     1      -4.818   3.915  -6.421  0.00  0.00    -0.009 C 
ATOM     22  C   UNL     1      -3.333   3.910  -6.794  0.00  0.00    +0.008 C 
ATOM     23  C   UNL     1      -2.595   2.849  -5.978  0.00  0.00    +0.037 C 
ATOM     24  C   UNL     1      -2.903   3.063  -4.498  0.00  0.00    -0.023 A 
ATOM     25  C   UNL     1      -3.970   3.796  -4.115  0.00  0.00    -0.004 A 
ATOM     26  S   UNL     1      -3.930   3.773  -2.343  0.00  0.00    -0.073 S 
ATOM     27  C   UNL     1      -2.478   2.776  -2.122  0.00  0.00    +0.116 A 
ATOM     28  C   UNL     1      -2.072   2.495  -3.437  0.00  0.00    +0.075 A 
ATOM     29  C   UNL     1      -0.895   1.687  -3.563  0.00  0.00    +0.260 A 
ATOM     30  O   UNL     1      -0.463   1.390  -4.663  0.00  0.00    -0.267 OA
ATOM     31  N   UNL     1      -0.272   1.267  -2.447  0.00  0.00    -0.310 N 
ATOM     32  H   UNL     1       0.528   0.724  -2.525  0.00  0.00    +0.170 HD
ATOM     33  C   UNL     1      -0.742   1.585  -1.213  0.00  0.00    +0.121 A 
ATOM     34  N   UNL     1      -1.811   2.320  -1.066  0.00  0.00    -0.226 NA
ATOM     35  C   UNL     1      -4.968   4.478  -5.000  0.00  0.00    +0.046 C 
ENDBRANCH  19  33
ENDBRANCH   1  19
TORSDOF 6
