REMARK  Name = ZINC09791170
REMARK  12 active torsions:
REMARK  status: ('A' for Active; 'I' for Inactive)
REMARK    1  A    between atoms: C_1  and  C_2
REMARK    2  A    between atoms: C_5  and  C_9
REMARK    3  A    between atoms: C_7  and  C_8
REMARK    4  A    between atoms: C_9  and  C_11
REMARK    5  A    between atoms: C_9  and  N_12
REMARK    6  A    between atoms: C_13  and  C_15
REMARK    7  A    between atoms: C_15  and  O_16
REMARK    8  A    between atoms: O_16  and  C_17
REMARK    9  A    between atoms: C_17  and  C_19
REMARK   10  A    between atoms: C_19  and  N_26
REMARK   11  A    between atoms: C_20  and  C_21
REMARK   12  A    between atoms: C_27  and  C_31
REMARK                            x       y       z     vdW  Elec       q    Type
REMARK                         _______ _______ _______ _____ _____    ______ ____
ROOT
ATOM      1  C   UNL     1       3.618   2.013  -1.054  0.00  0.00    +0.358 C 
ATOM      2  O   UNL     1       4.727   1.593  -1.325  0.00  0.00    -0.243 OA
ENDROOT
BRANCH   1   3
ATOM      3  C   UNL     1       3.379   3.453  -0.978  0.00  0.00    +0.157 C 
ATOM      4  C   UNL     1       4.419   4.324  -1.103  0.00  0.00    +0.081 C 
BRANCH   4   5
ATOM      5  C   UNL     1       4.211   5.708  -0.904  0.00  0.00    +0.130 A 
ATOM      6  C   UNL     1       5.142   6.708  -1.104  0.00  0.00    +0.049 A 
ATOM      7  C   UNL     1       4.504   7.917  -0.786  0.00  0.00    +0.042 A 
ATOM      8  C   UNL     1       3.240   7.616  -0.414  0.00  0.00    +0.195 A 
ATOM      9  O   UNL     1       3.065   6.289  -0.491  0.00  0.00    -0.463 OA
ENDBRANCH   4   5
BRANCH   3  10
ATOM     10  N   UNL     1       2.080   3.939  -0.777  0.00  0.00    -0.186 N 
ATOM     11  C   UNL     1       1.255   4.508  -1.702  0.00  0.00    +0.187 A 
ATOM     12  N   UNL     1       0.134   4.810  -1.080  0.00  0.00    -0.108 NA
ATOM     13  N   UNL     1       0.202   4.476   0.158  0.00  0.00    -0.022 NA
ATOM     14  N   UNL     1       1.347   3.947   0.422  0.00  0.00    -0.038 NA
BRANCH  11  15
ATOM     15  C   UNL     1       1.559   4.738  -3.131  0.00  0.00    +0.021 A 
ATOM     16  C   UNL     1       0.792   5.634  -3.876  0.00  0.00    +0.011 A 
ATOM     17  C   UNL     1       1.081   5.844  -5.208  0.00  0.00    +0.001 A 
ATOM     18  C   UNL     1       2.129   5.169  -5.807  0.00  0.00    +0.000 A 
ATOM     19  C   UNL     1       2.894   4.278  -5.074  0.00  0.00    +0.001 A 
ATOM     20  C   UNL     1       2.615   4.059  -3.741  0.00  0.00    +0.011 A 
ENDBRANCH  11  15
ENDBRANCH   3  10
ENDBRANCH   1   3
BRANCH   1  21
ATOM     21  O   UNL     1       2.607   1.148  -0.824  0.00  0.00    -0.451 OA
BRANCH  21  22
ATOM     22  C   UNL     1       2.934  -0.242  -0.806  0.00  0.00    +0.328 C 
BRANCH  22  24
ATOM     23  N   UNL     1       1.747  -2.391  -0.499  0.00  0.00    -0.306 N 
ATOM     24  C   UNL     1       1.674  -1.053  -0.647  0.00  0.00    +0.251 C 
ATOM     25  O   UNL     1       0.594  -0.502  -0.653  0.00  0.00    -0.272 OA
ATOM     26  H   UNL     1       2.612  -2.823  -0.420  0.00  0.00    +0.149 HD
BRANCH  23  27
ATOM     27  C   UNL     1       0.521  -3.191  -0.457  0.00  0.00    +0.100 C 
ATOM     28  C   UNL     1       0.080  -3.525  -1.883  0.00  0.00    +0.033 C 
BRANCH  27  33
ATOM     29  C   UNL     1       1.517  -8.088   2.446  0.00  0.00    +0.044 C 
ATOM     30  C   UNL     1       1.257  -6.811   1.688  0.00  0.00    -0.048 A 
ATOM     31  C   UNL     1       2.212  -6.317   0.819  0.00  0.00    +0.004 A 
ATOM     32  C   UNL     1       1.972  -5.147   0.122  0.00  0.00    +0.006 A 
ATOM     33  C   UNL     1       0.781  -4.468   0.300  0.00  0.00    -0.027 A 
ATOM     34  C   UNL     1      -0.174  -4.964   1.168  0.00  0.00    +0.009 A 
ATOM     35  C   UNL     1       0.065  -6.135   1.863  0.00  0.00    -0.047 A 
ATOM     36  C   UNL     1      -0.976  -6.675   2.810  0.00  0.00    +0.044 C 
ENDBRANCH  27  33
ENDBRANCH  23  27
ENDBRANCH  22  24
ENDBRANCH  21  22
ENDBRANCH   1  21
TORSDOF 9
