REMARK  Name = ZINC03670520
REMARK  7 active torsions:
REMARK  status: ('A' for Active; 'I' for Inactive)
REMARK    1  A    between atoms: C_1  and  C_2
REMARK    2  A    between atoms: C_2  and  N_55
REMARK    3  A    between atoms: C_6  and  C_8
REMARK    4  A    between atoms: C_8  and  N_9
REMARK    5  A    between atoms: C_10  and  C_12
REMARK    6  A    between atoms: C_12  and  O_31
REMARK    7  A    between atoms: N_22  and  C_23
REMARK                            x       y       z     vdW  Elec       q    Type
REMARK                         _______ _______ _______ _____ _____    ______ ____
ROOT
ATOM      1  C   UNL     1      -3.420  -0.887   1.737  0.00  0.00    +0.247 C 
ATOM      2  C   UNL     1      -2.195  -1.507   1.105  0.00  0.00    +0.034 A 
ATOM      3  C   UNL     1      -1.171  -2.009   1.875  0.00  0.00    +0.025 A 
ATOM      4  C   UNL     1      -0.063  -2.571   1.262  0.00  0.00    +0.018 A 
ATOM      5  C   UNL     1       0.010  -2.627  -0.119  0.00  0.00    +0.017 A 
ATOM      6  C   UNL     1      -1.018  -2.125  -0.892  0.00  0.00    +0.025 A 
ATOM      7  C   UNL     1      -2.130  -1.560  -0.282  0.00  0.00    +0.043 A 
ATOM      8  N   UNL     1      -3.179  -1.047  -1.046  0.00  0.00    -0.269 N 
ATOM      9  C   UNL     1      -4.271  -0.493  -0.506  0.00  0.00    +0.314 C 
ATOM     10  O   UNL     1      -5.136  -0.071  -1.250  0.00  0.00    -0.252 OA
ATOM     11  N   UNL     1      -4.457  -0.381   0.822  0.00  0.00    -0.214 N 
ATOM     12 BR   UNL     1       1.350  -3.262   2.312  0.00  0.00    -0.050 Br
ATOM     13  H   UNL     1      -3.113  -1.094  -2.013  0.00  0.00    +0.156 HD
ENDROOT
BRANCH  11  14
ATOM     14  C   UNL     1      -5.622   0.209   1.327  0.00  0.00    +0.041 A 
ATOM     15  C   UNL     1      -6.564  -0.568   1.988  0.00  0.00    +0.025 A 
ATOM     16  C   UNL     1      -7.710   0.018   2.491  0.00  0.00    +0.022 A 
ATOM     17  C   UNL     1      -7.924   1.375   2.326  0.00  0.00    +0.041 A 
ATOM     18  C   UNL     1      -6.989   2.150   1.663  0.00  0.00    +0.022 A 
ATOM     19  C   UNL     1      -5.839   1.570   1.163  0.00  0.00    +0.025 A 
ATOM     20 CL   UNL     1      -9.368   2.106   2.953  0.00  0.00    -0.084 Cl
ENDBRANCH  11  14
BRANCH   1  22
ATOM     21  N   UNL     1      -2.451   1.370   2.037  0.00  0.00    -0.313 N 
ATOM     22  C   UNL     1      -2.965   0.260   2.603  0.00  0.00    +0.269 C 
ATOM     23  O   UNL     1      -3.062   0.184   3.810  0.00  0.00    -0.270 OA
ATOM     24  H   UNL     1      -2.374   1.431   1.072  0.00  0.00    +0.149 HD
BRANCH  21  25
ATOM     25  C   UNL     1      -2.010   2.484   2.879  0.00  0.00    +0.089 C 
BRANCH  25  29
ATOM     26  C   UNL     1      -1.921   5.944   2.623  0.00  0.00    -0.078 C 
ATOM     27  C   UNL     1      -2.560   5.736   1.227  0.00  0.00    -0.020 C 
ATOM     28  C   UNL     1      -2.801   4.203   1.218  0.00  0.00    -0.016 C 
ATOM     29  C   UNL     1      -1.583   3.656   1.992  0.00  0.00    -0.051 C 
ATOM     30  N   UNL     1      -1.059   4.763   2.812  0.00  0.00    +0.382 N 
ATOM     31  H   UNL     1      -0.104   4.988   2.509  0.00  0.00    -0.081 HD
BRANCH  30  33
ATOM     32  C   UNL     1      -0.385   5.488   5.063  0.00  0.00    -0.017 C 
ATOM     33  C   UNL     1      -1.033   4.369   4.245  0.00  0.00    -0.082 C 
ENDBRANCH  30  33
ENDBRANCH  25  29
ENDBRANCH  21  25
ENDBRANCH   1  22
BRANCH   1  34
ATOM     34  O   UNL     1      -4.021  -1.865   2.587  0.00  0.00    -0.360 OA
ATOM     35  H   UNL     1      -3.426  -2.217   3.264  0.00  0.00    +0.213 HD
ENDBRANCH   1  34
TORSDOF 6
