REMARK  Name = ZINC08821188
REMARK  7 active torsions:
REMARK  status: ('A' for Active; 'I' for Inactive)
REMARK    1  A    between atoms: C_1  and  C_2
REMARK    2  A    between atoms: C_2  and  O_3
REMARK    3  A    between atoms: O_3  and  C_4
REMARK    4  A    between atoms: C_6  and  C_11
REMARK    5  A    between atoms: C_9  and  O_10
REMARK    6  A    between atoms: N_17  and  C_18
REMARK    7  A    between atoms: C_20  and  C_25
REMARK                            x       y       z     vdW  Elec       q    Type
REMARK                         _______ _______ _______ _____ _____    ______ ____
ROOT
ATOM      1  C   UNL     1      -0.208  -4.963   0.442  0.00  0.00    +0.028 C 
ATOM      2  C   UNL     1      -0.190  -6.303   0.225  0.00  0.00    +0.078 C 
ATOM      3  C   UNL     1      -0.783  -7.389   1.029  0.00  0.00    +0.256 C 
ATOM      4  O   UNL     1      -1.400  -7.159   2.053  0.00  0.00    -0.269 OA
ATOM      5  N   UNL     1      -0.615  -8.623   0.586  0.00  0.00    -0.260 N 
ATOM      6  C   UNL     1       0.086  -8.863  -0.576  0.00  0.00    +0.166 C 
ATOM      7  N   UNL     1       0.344 -10.016  -1.152  0.00  0.00    -0.224 NA
ATOM      8  S   UNL     1       0.552  -7.225  -1.113  0.00  0.00    -0.049 S 
ATOM      9  H   UNL     1      -0.989  -9.367   1.083  0.00  0.00    +0.157 HD
ENDROOT
BRANCH   7  10
ATOM     10  C   UNL     1       1.063 -10.054  -2.316  0.00  0.00    +0.085 A 
ATOM     11  C   UNL     1       2.165  -9.213  -2.487  0.00  0.00    +0.041 A 
ATOM     12  C   UNL     1       2.886  -9.257  -3.662  0.00  0.00    +0.057 A 
ATOM     13  C   UNL     1       2.521 -10.131  -4.670  0.00  0.00    +0.014 A 
ATOM     14  C   UNL     1       1.430 -10.967  -4.508  0.00  0.00    +0.022 A 
ATOM     15  C   UNL     1       0.703 -10.939  -3.335  0.00  0.00    +0.066 A 
ATOM     16 CL   UNL     1      -0.660 -11.995  -3.131  0.00  0.00    -0.081 Cl
BRANCH  12  17
ATOM     17  C   UNL     1       4.075  -8.349  -3.849  0.00  0.00    +0.417 C 
ATOM     18  F   UNL     1       5.229  -8.992  -3.389  0.00  0.00    -0.166 F 
ATOM     19  F   UNL     1       4.220  -8.044  -5.206  0.00  0.00    -0.166 F 
ATOM     20  F   UNL     1       3.879  -7.169  -3.123  0.00  0.00    -0.166 F 
ENDBRANCH  12  17
ENDBRANCH   7  10
BRANCH   1  23
ATOM     21  C   UNL     1       1.108  -1.869  -1.221  0.00  0.00    +0.162 A 
ATOM     22  C   UNL     1       0.627  -2.726  -0.251  0.00  0.00    +0.057 A 
ATOM     23  C   UNL     1       0.303  -4.046  -0.586  0.00  0.00    -0.020 A 
ATOM     24  C   UNL     1       0.467  -4.490  -1.904  0.00  0.00    +0.012 A 
ATOM     25  C   UNL     1       0.947  -3.628  -2.865  0.00  0.00    +0.050 A 
ATOM     26  C   UNL     1       1.263  -2.317  -2.532  0.00  0.00    +0.158 A 
BRANCH  26  27
ATOM     27  O   UNL     1       1.731  -1.471  -3.486  0.00  0.00    -0.503 OA
ATOM     28  H   UNL     1       2.694  -1.476  -3.579  0.00  0.00    +0.292 HD
ENDBRANCH  26  27
BRANCH  21  29
ATOM     29  O   UNL     1       1.424  -0.587  -0.899  0.00  0.00    -0.489 OA
BRANCH  29  31
ATOM     30  C   UNL     1       1.645   1.271   0.631  0.00  0.00    +0.048 C 
ATOM     31  C   UNL     1       1.240  -0.195   0.463  0.00  0.00    +0.226 C 
ENDBRANCH  29  31
ENDBRANCH  21  29
ENDBRANCH   1  23
TORSDOF 6
