REMARK  Name = ZINC35682820
REMARK  10 active torsions:
REMARK  status: ('A' for Active; 'I' for Inactive)
REMARK    1  A    between atoms: C_1  and  C_2
REMARK    2  A    between atoms: C_6  and  N_9
REMARK    3  A    between atoms: C_7  and  C_8
REMARK    4  A    between atoms: N_9  and  C_10
REMARK    5  A    between atoms: C_10  and  O_31
REMARK    6  A    between atoms: C_16  and  C_21
REMARK    7  A    between atoms: C_21  and  C_22
REMARK    8  A    between atoms: C_25  and  C_28
REMARK    9  A    between atoms: C_28  and  C_29
REMARK   10  A    between atoms: C_28  and  C_30
REMARK                            x       y       z     vdW  Elec       q    Type
REMARK                         _______ _______ _______ _____ _____    ______ ____
ROOT
ATOM      1  C   UNL     1      -0.040  -4.259   2.382  0.00  0.00    +0.226 C 
ATOM      2  C   UNL     1      -0.112  -4.786   3.827  0.00  0.00    +0.155 C 
ATOM      3  S   UNL     1       1.292  -4.037   4.715  0.00  0.00    -0.078 S 
ATOM      4  C   UNL     1       2.609  -4.207   3.549  0.00  0.00    +0.210 A 
ATOM      5  N   UNL     1       3.858  -4.088   3.976  0.00  0.00    -0.122 NA
ATOM      6  N   UNL     1       4.865  -4.142   3.183  0.00  0.00    -0.146 NA
ATOM      7  C   UNL     1       4.698  -4.286   1.889  0.00  0.00    +0.134 A 
ATOM      8  C   UNL     1       3.395  -4.415   1.369  0.00  0.00    +0.294 A 
ATOM      9  O   UNL     1       3.210  -4.492   0.166  0.00  0.00    -0.264 OA
ATOM     10  N   UNL     1       2.347  -4.453   2.238  0.00  0.00    -0.200 N 
ATOM     11  N   UNL     1       1.142  -4.810   1.734  0.00  0.00    -0.233 N 
ATOM     12  H   UNL     1       1.071  -5.812   1.644  0.00  0.00    +0.171 HD
ENDROOT
BRANCH   1  13
ATOM     13  N   UNL     1       0.047  -2.796   2.398  0.00  0.00    -0.299 N 
ATOM     14  H   UNL     1       0.011  -2.317   3.240  0.00  0.00    +0.150 HD
BRANCH  13  20
ATOM     15  C   UNL     1       0.281   1.497   0.018  0.00  0.00    +0.044 C 
ATOM     16  C   UNL     1       0.298  -0.009   0.016  0.00  0.00    -0.046 A 
ATOM     17  C   UNL     1       0.446  -0.697  -1.176  0.00  0.00    +0.004 A 
ATOM     18  C   UNL     1       0.461  -2.079  -1.183  0.00  0.00    +0.002 A 
ATOM     19  C   UNL     1       0.329  -2.779   0.001  0.00  0.00    +0.023 A 
ATOM     20  C   UNL     1       0.180  -2.092   1.199  0.00  0.00    +0.034 A 
ATOM     21  C   UNL     1       0.171  -0.703   1.203  0.00  0.00    -0.027 A 
ATOM     22  C   UNL     1       0.016   0.047   2.501  0.00  0.00    +0.046 C 
ENDBRANCH  13  20
ENDBRANCH   1  13
BRANCH   1  23
ATOM     23  O   UNL     1      -1.209  -4.661   1.666  0.00  0.00    -0.355 OA
ATOM     24  H   UNL     1      -1.191  -4.436   0.726  0.00  0.00    +0.214 HD
ENDBRANCH   1  23
BRANCH   7  25
ATOM     25  C   UNL     1       5.890  -4.312   0.967  0.00  0.00    +0.098 C 
BRANCH  25  26
ATOM     26  C   UNL     1       7.153  -4.155   1.774  0.00  0.00    -0.041 A 
ATOM     27  C   UNL     1       7.660  -2.894   2.025  0.00  0.00    +0.004 A 
ATOM     28  C   UNL     1       8.818  -2.749   2.766  0.00  0.00    +0.004 A 
ATOM     29  C   UNL     1       9.469  -3.866   3.255  0.00  0.00    -0.045 A 
ATOM     30  C   UNL     1       8.962  -5.128   3.004  0.00  0.00    +0.004 A 
ATOM     31  C   UNL     1       7.801  -5.271   2.268  0.00  0.00    +0.004 A 
BRANCH  29  32
ATOM     32  C   UNL     1      10.733  -3.709   4.061  0.00  0.00    +0.013 C 
ATOM     33  C   UNL     1      10.527  -4.308   5.454  0.00  0.00    +0.012 C 
ATOM     34  C   UNL     1      11.880  -4.437   3.358  0.00  0.00    +0.012 C 
ENDBRANCH  29  32
ENDBRANCH  25  26
ENDBRANCH   7  25
TORSDOF 6
