REMARK  Name = ZINC05385102
REMARK  10 active torsions:
REMARK  status: ('A' for Active; 'I' for Inactive)
REMARK    1  A    between atoms: C_1  and  N_53
REMARK    2  A    between atoms: C_10  and  C_12
REMARK    3  A    between atoms: C_12  and  C_14
REMARK    4  A    between atoms: C_12  and  O_26
REMARK    5  A    between atoms: C_17  and  O_24
REMARK    6  A    between atoms: C_18  and  O_22
REMARK    7  A    between atoms: C_19  and  C_20
REMARK    8  A    between atoms: C_20  and  O_21
REMARK    9  A    between atoms: O_22  and  C_23
REMARK   10  A    between atoms: O_24  and  C_25
REMARK                            x       y       z     vdW  Elec       q    Type
REMARK                         _______ _______ _______ _____ _____    ______ ____
ROOT
ATOM      1  C   UNL     1      -1.858   7.185   2.199  0.00  0.00    +0.136 C 
ENDROOT
BRANCH   1  11
ATOM      2  C   UNL     1      -2.615   5.603  -0.120  0.00  0.00    -0.095 C 
ATOM      3  C   UNL     1      -3.367   7.633  -1.210  0.00  0.00    -0.074 C 
ATOM      4  C   UNL     1      -2.953   9.086  -1.443  0.00  0.00    +0.017 C 
ATOM      5  C   UNL     1      -2.899   9.823  -0.129  0.00  0.00    -0.044 A 
ATOM      6  C   UNL     1      -2.890  11.210  -0.150  0.00  0.00    +0.053 A 
ATOM      7  C   UNL     1      -2.836  11.928   1.031  0.00  0.00    +0.167 A 
ATOM      8  C   UNL     1      -2.791  11.251   2.248  0.00  0.00    +0.166 A 
ATOM      9  C   UNL     1      -2.801   9.868   2.263  0.00  0.00    +0.052 A 
ATOM     10  C   UNL     1      -2.856   9.152   1.075  0.00  0.00    -0.051 A 
ATOM     11  C   UNL     1      -2.868   7.648   1.148  0.00  0.00    -0.004 C 
ATOM     12  O   UNL     1      -2.742  12.170   3.256  0.00  0.00    -0.453 OA
ATOM     13  C   UNL     1      -2.346  13.405   2.632  0.00  0.00    +0.466 C 
ATOM     14  O   UNL     1      -2.816  13.271   1.277  0.00  0.00    -0.453 OA
ATOM     15  N   UNL     1      -2.492   7.077  -0.157  0.00  0.00    +0.385 N 
ATOM     16  H   UNL     1      -1.518   7.326  -0.363  0.00  0.00    -0.081 HD
ENDBRANCH   1  11
BRANCH   1  17
ATOM     17  C   UNL     1      -1.870   5.680   2.280  0.00  0.00    -0.011 A 
ATOM     18  C   UNL     1      -0.719   4.965   2.008  0.00  0.00    +0.010 A 
ATOM     19  C   UNL     1      -0.725   3.584   2.080  0.00  0.00    +0.050 A 
ATOM     20  C   UNL     1      -1.888   2.914   2.425  0.00  0.00    +0.162 A 
ATOM     21  C   UNL     1      -3.049   3.634   2.693  0.00  0.00    +0.167 A 
ATOM     22  C   UNL     1      -3.034   5.018   2.624  0.00  0.00    +0.029 A 
BRANCH  21  23
ATOM     23  O   UNL     1      -4.194   2.980   3.027  0.00  0.00    -0.491 OA
ATOM     24  C   UNL     1      -4.418   2.731   4.416  0.00  0.00    +0.277 C 
ENDBRANCH  21  23
BRANCH  20  25
ATOM     25  O   UNL     1      -1.897   1.556   2.497  0.00  0.00    -0.491 OA
ATOM     26  C   UNL     1      -0.670   0.884   2.203  0.00  0.00    +0.277 C 
ENDBRANCH  20  25
BRANCH  22  27
ATOM     27  C   UNL     1      -4.287   5.800   2.920  0.00  0.00    +0.195 C 
BRANCH  27  28
ATOM     28  O   UNL     1      -5.031   5.981   1.713  0.00  0.00    -0.390 OA
ATOM     29  H   UNL     1      -5.853   6.478   1.828  0.00  0.00    +0.210 HD
ENDBRANCH  27  28
ENDBRANCH  22  27
ENDBRANCH   1  17
BRANCH   1  30
ATOM     30  O   UNL     1      -0.550   7.631   1.833  0.00  0.00    -0.388 OA
ATOM     31  H   UNL     1      -0.246   7.297   0.978  0.00  0.00    +0.210 HD
ENDBRANCH   1  30
TORSDOF 7
