REMARK  Name = ZINC02193729
REMARK  7 active torsions:
REMARK  status: ('A' for Active; 'I' for Inactive)
REMARK    1  A    between atoms: C_1  and  C_2
REMARK    2  A    between atoms: C_2  and  C_3
REMARK    3  A    between atoms: C_2  and  O_4
REMARK    4  A    between atoms: O_4  and  C_5
REMARK    5  A    between atoms: C_5  and  C_7
REMARK    6  A    between atoms: N_18  and  C_21
REMARK    7  A    between atoms: C_19  and  N_20
REMARK                            x       y       z     vdW  Elec       q    Type
REMARK                         _______ _______ _______ _____ _____    ______ ____
ROOT
ATOM      1  C   UNL     1      -1.130  -0.814   0.015  0.00  0.00    +0.126 A 
ATOM      2  C   UNL     1      -0.649  -2.205  -0.004  0.00  0.00    +0.125 A 
ATOM      3  C   UNL     1       0.814  -2.111  -0.017  0.00  0.00    +0.167 A 
ATOM      4  N   UNL     1       1.533  -3.213  -0.030  0.00  0.00    -0.225 NA
ATOM      5  C   UNL     1       0.925  -4.406  -0.030  0.00  0.00    +0.092 A 
ATOM      6  C   UNL     1       1.687  -5.589  -0.044  0.00  0.00    +0.030 A 
ATOM      7  C   UNL     1       1.061  -6.797  -0.044  0.00  0.00    +0.002 A 
ATOM      8  C   UNL     1      -0.330  -6.884  -0.031  0.00  0.00    +0.002 A 
ATOM      9  C   UNL     1      -1.100  -5.763  -0.018  0.00  0.00    +0.030 A 
ATOM     10  C   UNL     1      -0.489  -4.495  -0.017  0.00  0.00    +0.090 A 
ATOM     11  N   UNL     1      -1.237  -3.385  -0.004  0.00  0.00    -0.241 NA
ATOM     12  N   UNL     1       1.131  -0.766  -0.013  0.00  0.00    -0.280 N 
ATOM     13  C   UNL     1       0.002  -0.004   0.002  0.00  0.00    +0.119 A 
ENDROOT
BRANCH  12  14
ATOM     14  C   UNL     1       2.437  -0.256  -0.023  0.00  0.00    +0.053 A 
ATOM     15  C   UNL     1       3.260  -0.475  -1.119  0.00  0.00    +0.046 A 
ATOM     16  C   UNL     1       4.545   0.034  -1.129  0.00  0.00    +0.044 A 
ATOM     17  C   UNL     1       5.015   0.752  -0.043  0.00  0.00    +0.040 A 
ATOM     18  C   UNL     1       4.198   0.966   1.053  0.00  0.00    +0.044 A 
ATOM     19  C   UNL     1       2.910   0.464   1.065  0.00  0.00    +0.046 A 
ATOM     20 CL   UNL     1       4.791   1.866   2.414  0.00  0.00    -0.083 Cl
ATOM     21 CL   UNL     1       5.574  -0.234  -2.502  0.00  0.00    -0.083 Cl
ENDBRANCH  12  14
BRANCH  13  22
ATOM     22  N   UNL     1      -0.017   1.366   0.010  0.00  0.00    -0.343 N 
ATOM     23  H   UNL     1       0.817   1.862   0.004  0.00  0.00    +0.144 HD
ATOM     24  H   UNL     1      -0.863   1.839   0.016  0.00  0.00    +0.144 HD
ENDBRANCH  13  22
BRANCH   1  25
ATOM     25  C   UNL     1      -2.479  -0.384   0.037  0.00  0.00    +0.345 C 
ATOM     26  O   UNL     1      -3.075  -0.193  -1.007  0.00  0.00    -0.245 OA
BRANCH  25  27
ATOM     27  O   UNL     1      -3.104  -0.185   1.217  0.00  0.00    -0.458 OA
BRANCH  27  29
ATOM     28  C   UNL     1      -5.388  -0.971   1.146  0.00  0.00    +0.052 C 
ATOM     29  C   UNL     1      -4.465   0.249   1.165  0.00  0.00    +0.171 C 
ATOM     30  C   UNL     1      -4.774   1.104   2.396  0.00  0.00    +0.052 C 
ENDBRANCH  27  29
ENDBRANCH  25  27
ENDBRANCH   1  25
TORSDOF 5
