REMARK  Name = ZINC19445415
REMARK  8 active torsions:
REMARK  status: ('A' for Active; 'I' for Inactive)
REMARK    1  A    between atoms: C_1  and  C_2
REMARK    2  A    between atoms: C_2  and  C_3
REMARK    3  A    between atoms: C_2  and  C_4
REMARK    4  A    between atoms: C_4  and  C_6
REMARK    5  A    between atoms: C_4  and  N_22
REMARK    6  A    between atoms: C_13  and  C_15
REMARK    7  A    between atoms: N_22  and  C_23
REMARK    8  A    between atoms: C_23  and  C_24
REMARK                            x       y       z     vdW  Elec       q    Type
REMARK                         _______ _______ _______ _____ _____    ______ ____
ROOT
ATOM      1  C   UNL     1      -1.763  -1.778  -0.415  0.00  0.00    +0.009 A 
ATOM      2  C   UNL     1      -2.422  -2.350  -1.448  0.00  0.00    +0.091 A 
ATOM      3  C   UNL     1      -2.406  -3.751  -1.600  0.00  0.00    +0.275 A 
ATOM      4  N   UNL     1      -1.735  -4.514  -0.715  0.00  0.00    -0.180 N 
ATOM      5  C   UNL     1      -1.073  -3.930   0.326  0.00  0.00    +0.138 A 
ATOM      6  N   UNL     1      -1.083  -2.555   0.473  0.00  0.00    -0.345 N 
ATOM      7  C   UNL     1      -0.492  -4.927   1.051  0.00  0.00    +0.071 A 
ATOM      8  C   UNL     1      -0.809  -6.141   0.439  0.00  0.00    +0.069 A 
ATOM      9  N   UNL     1      -1.549  -5.898  -0.614  0.00  0.00    -0.167 NA
ATOM     10  O   UNL     1      -2.998  -4.271  -2.529  0.00  0.00    -0.266 OA
ATOM     11  H   UNL     1      -0.607  -2.144   1.212  0.00  0.00    +0.167 HD
ENDROOT
BRANCH   8  12
ATOM     12  C   UNL     1      -0.371  -7.504   0.910  0.00  0.00    +0.044 C 
ATOM     13  C   UNL     1      -0.317  -7.523   2.441  0.00  0.00    +0.038 C 
ATOM     14  C   UNL     1       0.204  -8.885   2.908  0.00  0.00    +0.160 C 
ATOM     15  O   UNL     1       1.490  -9.125   2.333  0.00  0.00    -0.380 OA
ATOM     16  C   UNL     1       1.492  -9.165   0.904  0.00  0.00    +0.160 C 
ATOM     17  C   UNL     1       1.023  -7.814   0.357  0.00  0.00    +0.038 C 
ENDBRANCH   8  12
BRANCH   1  18
ATOM     18  C   UNL     1      -1.776  -0.280  -0.249  0.00  0.00    -0.021 C 
BRANCH  18  20
ATOM     19  C   UNL     1       0.720  -0.369  -0.179  0.00  0.00    +0.006 C 
ATOM     20  C   UNL     1      -0.488   0.309  -0.829  0.00  0.00    -0.026 C 
ATOM     21  C   UNL     1      -0.455   0.072  -2.340  0.00  0.00    +0.006 C 
ENDBRANCH  18  20
BRANCH  18  22
ATOM     22  N   UNL     1      -1.868   0.054   1.179  0.00  0.00    +0.387 N 
ATOM     23  H   UNL     1      -2.666  -0.414   1.583  0.00  0.00    -0.084 HD
ATOM     24  H   UNL     1      -1.028  -0.246   1.649  0.00  0.00    -0.084 HD
BRANCH  22  25
ATOM     25  C   UNL     1      -2.023   1.507   1.333  0.00  0.00    -0.043 C 
BRANCH  25  26
ATOM     26  C   UNL     1      -2.238   1.837   2.787  0.00  0.00    -0.029 A 
ATOM     27  C   UNL     1      -3.514   2.077   3.260  0.00  0.00    +0.004 A 
ATOM     28  C   UNL     1      -3.712   2.381   4.594  0.00  0.00    +0.000 A 
ATOM     29  C   UNL     1      -2.634   2.445   5.457  0.00  0.00    +0.003 A 
ATOM     30  C   UNL     1      -1.357   2.205   4.986  0.00  0.00    +0.038 A 
ATOM     31  C   UNL     1      -1.158   1.896   3.651  0.00  0.00    +0.125 A 
ATOM     32  F   UNL     1       0.089   1.657   3.191  0.00  0.00    -0.205 F 
ENDBRANCH  25  26
ENDBRANCH  22  25
ENDBRANCH  18  22
ENDBRANCH   1  18
TORSDOF 6
