REMARK  Name = ZINC14082961
REMARK  13 active torsions:
REMARK  status: ('A' for Active; 'I' for Inactive)
REMARK    1  A    between atoms: C_1  and  C_2
REMARK    2  A    between atoms: C_2  and  C_3
REMARK    3  A    between atoms: C_2  and  C_4
REMARK    4  A    between atoms: C_2  and  C_5
REMARK    5  A    between atoms: C_12  and  N_16
REMARK    6  A    between atoms: C_13  and  C_14
REMARK    7  A    between atoms: C_17  and  C_19
REMARK    8  A    between atoms: C_19  and  S_20
REMARK    9  A    between atoms: S_20  and  C_21
REMARK   10  A    between atoms: C_24  and  C_27
REMARK   11  A    between atoms: N_25  and  C_26
REMARK   12  A    between atoms: C_30  and  O_33
REMARK   13  A    between atoms: O_33  and  C_34
REMARK                            x       y       z     vdW  Elec       q    Type
REMARK                         _______ _______ _______ _____ _____    ______ ____
ROOT
ATOM      1  N   UNL     1       5.279  -0.475  -5.645  0.00  0.00    -0.278 N 
ATOM      2  C   UNL     1       6.565  -0.189  -5.357  0.00  0.00    +0.228 C 
ATOM      3  O   UNL     1       6.858   0.257  -4.268  0.00  0.00    -0.275 OA
ATOM      4  H   UNL     1       5.045  -0.832  -6.516  0.00  0.00    +0.155 HD
ENDROOT
BRANCH   1  11
ATOM      5  C   UNL     1       0.796   0.150  -1.167  0.00  0.00    -0.000 C 
ATOM      6  C   UNL     1       0.032   0.463  -2.457  0.00  0.00    +0.009 C 
ATOM      7  C   UNL     1       0.592  -0.373  -3.609  0.00  0.00    +0.037 C 
ATOM      8  C   UNL     1       2.101  -0.183  -3.662  0.00  0.00    -0.018 A 
ATOM      9  C   UNL     1       2.784   0.306  -2.604  0.00  0.00    -0.004 A 
ATOM     10  S   UNL     1       4.470   0.344  -3.138  0.00  0.00    -0.077 S 
ATOM     11  C   UNL     1       4.291  -0.260  -4.694  0.00  0.00    +0.090 A 
ATOM     12  C   UNL     1       2.931  -0.494  -4.812  0.00  0.00    +0.084 A 
ATOM     13  C   UNL     1       2.219   0.716  -1.278  0.00  0.00    +0.047 C 
BRANCH   5  15
ATOM     14  C   UNL     1       0.016   2.310  -0.183  0.00  0.00    +0.011 C 
ATOM     15  C   UNL     1       0.080   0.795   0.022  0.00  0.00    -0.035 C 
ATOM     16  C   UNL     1       0.847   0.486   1.309  0.00  0.00    +0.011 C 
ATOM     17  C   UNL     1      -1.340   0.235   0.128  0.00  0.00    +0.011 C 
ENDBRANCH   5  15
BRANCH  12  18
ATOM     18  C   UNL     1       2.367  -1.023  -6.017  0.00  0.00    +0.102 C 
ATOM     19  N   UNL     1       1.920  -1.442  -6.974  0.00  0.00    -0.191 NA
ENDBRANCH  12  18
ENDBRANCH   1  11
BRANCH   2  20
ATOM     20  C   UNL     1       7.638  -0.422  -6.389  0.00  0.00    +0.173 C 
BRANCH  20  21
ATOM     21  S   UNL     1       9.248   0.057  -5.707  0.00  0.00    -0.077 S 
BRANCH  21  22
ATOM     22  C   UNL     1      10.381  -0.271  -7.016  0.00  0.00    +0.192 A 
ATOM     23  N   UNL     1      10.083  -0.748  -8.203  0.00  0.00    -0.122 NA
ATOM     24  N   UNL     1      11.148  -0.865  -8.912  0.00  0.00    -0.128 NA
ATOM     25  C   UNL     1      12.192  -0.469  -8.221  0.00  0.00    +0.165 A 
ATOM     26  N   UNL     1      11.732  -0.071  -6.987  0.00  0.00    -0.305 N 
ATOM     27  C   UNL     1      12.527   0.454  -5.873  0.00  0.00    +0.153 C 
BRANCH  25  28
ATOM     28  C   UNL     1      13.596  -0.449  -8.684  0.00  0.00    +0.019 A 
ATOM     29  C   UNL     1      14.637  -0.372  -7.757  0.00  0.00    +0.015 A 
ATOM     30  C   UNL     1      15.945  -0.355  -8.193  0.00  0.00    +0.046 A 
ATOM     31  C   UNL     1      16.227  -0.413  -9.551  0.00  0.00    +0.120 A 
ATOM     32  C   UNL     1      15.194  -0.489 -10.476  0.00  0.00    +0.046 A 
ATOM     33  C   UNL     1      13.884  -0.513 -10.049  0.00  0.00    +0.015 A 
BRANCH  31  34
ATOM     34  O   UNL     1      17.518  -0.395  -9.977  0.00  0.00    -0.495 OA
ATOM     35  C   UNL     1      17.737  -0.457 -11.387  0.00  0.00    +0.277 C 
ENDBRANCH  31  34
ENDBRANCH  25  28
ENDBRANCH  21  22
ENDBRANCH  20  21
ENDBRANCH   2  20
TORSDOF 8
