REMARK  Name = ZINC08954693
REMARK  6 active torsions:
REMARK  status: ('A' for Active; 'I' for Inactive)
REMARK    1  A    between atoms: C_3  and  C_6
REMARK    2  A    between atoms: N_11  and  C_13
REMARK    3  A    between atoms: C_13  and  C_14
REMARK    4  A    between atoms: C_14  and  N_15
REMARK    5  A    between atoms: N_15  and  S_16
REMARK    6  A    between atoms: S_16  and  C_19
REMARK                            x       y       z     vdW  Elec       q    Type
REMARK                         _______ _______ _______ _____ _____    ______ ____
ROOT
ATOM      1  N   UNL     1       4.338  -1.074  -1.640  0.00  0.00    -0.188 NA
ATOM      2  H   UNL     1       4.379  -1.972  -2.005  0.00  0.00    +0.148 HD
ENDROOT
BRANCH   1   3
ATOM      3  S   UNL     1       3.931  -0.843  -0.052  0.00  0.00    +0.059 S 
ATOM      4  O   UNL     1       4.904   0.039   0.492  0.00  0.00    -0.153 OA
ATOM      5  O   UNL     1       3.679  -2.130   0.494  0.00  0.00    -0.153 OA
BRANCH   3   6
ATOM      6  C   UNL     1       2.397   0.024  -0.027  0.00  0.00    +0.109 A 
ATOM      7  C   UNL     1       1.207  -0.680  -0.016  0.00  0.00    +0.032 A 
ATOM      8  C   UNL     1       0.002  -0.004   0.002  0.00  0.00    +0.051 A 
ATOM      9  C   UNL     1      -0.017   1.383   0.010  0.00  0.00    +0.162 A 
ATOM     10  C   UNL     1       1.179   2.090   0.002  0.00  0.00    +0.164 A 
ATOM     11  C   UNL     1       2.385   1.406  -0.018  0.00  0.00    +0.078 A 
ATOM     12  O   UNL     1       1.184   3.451   0.018  0.00  0.00    -0.485 OA
ATOM     13  C   UNL     1      -0.040   4.103  -0.340  0.00  0.00    +0.270 C 
ATOM     14  C   UNL     1      -1.189   3.413   0.408  0.00  0.00    +0.270 C 
ATOM     15  O   UNL     1      -1.212   2.035   0.019  0.00  0.00    -0.485 OA
ENDBRANCH   3   6
ENDBRANCH   1   3
BRANCH   1  16
ATOM     16  C   UNL     1       4.635   0.078  -2.495  0.00  0.00    +0.129 C 
BRANCH  16  17
ATOM     17  C   UNL     1       5.330  -0.400  -3.772  0.00  0.00    +0.164 C 
BRANCH  17  23
ATOM     18  C   UNL     1       4.958   2.153  -6.290  0.00  0.00    +0.126 A 
ATOM     19  C   UNL     1       6.168   2.887  -6.216  0.00  0.00    +0.038 A 
ATOM     20  C   UNL     1       7.102   2.499  -5.303  0.00  0.00    +0.074 A 
ATOM     21  C   UNL     1       6.803   1.390  -4.480  0.00  0.00    +0.267 A 
ATOM     22  O   UNL     1       7.608   1.010  -3.645  0.00  0.00    -0.266 OA
ATOM     23  N   UNL     1       5.627   0.752  -4.627  0.00  0.00    -0.228 N 
ATOM     24  N   UNL     1       4.756   1.129  -5.492  0.00  0.00    -0.165 NA
BRANCH  18  27
ATOM     25  C   UNL     1       2.053   2.623  -8.470  0.00  0.00    +0.042 A 
ATOM     26  C   UNL     1       2.721   1.924  -7.445  0.00  0.00    +0.051 A 
ATOM     27  C   UNL     1       3.920   2.542  -7.266  0.00  0.00    +0.155 A 
ATOM     28  O   UNL     1       3.998   3.565  -8.138  0.00  0.00    -0.461 OA
ATOM     29  C   UNL     1       2.872   3.618  -8.867  0.00  0.00    +0.196 A 
ENDBRANCH  18  27
ENDBRANCH  17  23
ENDBRANCH  16  17
ENDBRANCH   1  16
TORSDOF 6
