REMARK  Name = ZINC01320814
REMARK  11 active torsions:
REMARK  status: ('A' for Active; 'I' for Inactive)
REMARK    1  A    between atoms: C_1  and  C_2
REMARK    2  A    between atoms: C_2  and  C_3
REMARK    3  A    between atoms: C_3  and  C_4
REMARK    4  A    between atoms: C_9  and  C_25
REMARK    5  A    between atoms: C_10  and  C_14
REMARK    6  A    between atoms: N_16  and  C_17
REMARK    7  A    between atoms: C_21  and  C_24
REMARK    8  A    between atoms: C_22  and  C_23
REMARK    9  A    between atoms: N_27  and  C_28
REMARK   10  A    between atoms: C_30  and  C_35
REMARK   11  A    between atoms: C_32  and  C_34
REMARK                            x       y       z     vdW  Elec       q    Type
REMARK                         _______ _______ _______ _____ _____    ______ ____
ROOT
ATOM      1  C   UNL     1       1.448   2.174  -1.439  0.00  0.00    +0.049 A 
ATOM      2  C   UNL     1       0.359   1.389  -1.697  0.00  0.00    +0.094 A 
ATOM      3  C   UNL     1      -0.904   1.786  -1.256  0.00  0.00    +0.260 A 
ATOM      4  O   UNL     1      -1.880   1.091  -1.489  0.00  0.00    -0.267 OA
ATOM      5  N   UNL     1      -1.047   2.953  -0.558  0.00  0.00    -0.249 N 
ATOM      6  C   UNL     1      -2.219   3.470  -0.058  0.00  0.00    +0.133 A 
ATOM      7  C   UNL     1      -2.212   4.657   0.619  0.00  0.00    +0.106 A 
ATOM      8  S   UNL     1      -0.481   5.095   0.565  0.00  0.00    -0.044 S 
ATOM      9  C   UNL     1       0.096   3.678  -0.344  0.00  0.00    +0.182 A 
ATOM     10  N   UNL     1       1.280   3.308  -0.762  0.00  0.00    -0.227 NA
ENDROOT
BRANCH   7  11
ATOM     11  C   UNL     1      -3.339   5.386   1.232  0.00  0.00    +0.257 C 
ATOM     12  O   UNL     1      -4.447   4.887   1.253  0.00  0.00    -0.269 OA
ATOM     13  N   UNL     1      -3.139   6.606   1.769  0.00  0.00    -0.281 N 
ATOM     14  H   UNL     1      -2.269   7.030   1.700  0.00  0.00    +0.155 HD
BRANCH  13  15
ATOM     15  C   UNL     1      -4.185   7.260   2.427  0.00  0.00    +0.037 A 
ATOM     16  C   UNL     1      -5.495   7.081   2.001  0.00  0.00    +0.023 A 
ATOM     17  C   UNL     1      -6.526   7.728   2.652  0.00  0.00    +0.002 A 
ATOM     18  C   UNL     1      -6.256   8.555   3.727  0.00  0.00    +0.004 A 
ATOM     19  C   UNL     1      -4.953   8.736   4.154  0.00  0.00    -0.046 A 
ATOM     20  C   UNL     1      -3.918   8.086   3.510  0.00  0.00    -0.026 A 
ATOM     21  C   UNL     1      -2.499   8.279   3.980  0.00  0.00    +0.046 C 
ATOM     22  C   UNL     1      -4.663   9.637   5.326  0.00  0.00    +0.044 C 
ENDBRANCH  13  15
ENDBRANCH   7  11
BRANCH   6  23
ATOM     23  C   UNL     1      -3.484   2.743  -0.252  0.00  0.00    +0.266 C 
ATOM     24  O   UNL     1      -3.809   1.868   0.528  0.00  0.00    -0.268 OA
ATOM     25  N   UNL     1      -4.282   3.046  -1.295  0.00  0.00    -0.280 N 
ATOM     26  H   UNL     1      -3.975   3.663  -1.977  0.00  0.00    +0.155 HD
BRANCH  25  27
ATOM     27  C   UNL     1      -5.552   2.470  -1.394  0.00  0.00    +0.034 A 
ATOM     28  C   UNL     1      -6.263   2.151  -0.244  0.00  0.00    +0.026 A 
ATOM     29  C   UNL     1      -7.520   1.587  -0.345  0.00  0.00    -0.048 A 
ATOM     30  C   UNL     1      -8.066   1.331  -1.589  0.00  0.00    +0.006 A 
ATOM     31  C   UNL     1      -7.359   1.642  -2.736  0.00  0.00    -0.048 A 
ATOM     32  C   UNL     1      -6.104   2.211  -2.642  0.00  0.00    +0.026 A 
ATOM     33  C   UNL     1      -7.959   1.361  -4.090  0.00  0.00    +0.044 C 
ATOM     34  C   UNL     1      -8.295   1.247   0.902  0.00  0.00    +0.044 C 
ENDBRANCH  25  27
ENDBRANCH   6  23
BRANCH   1  35
ATOM     35  C   UNL     1       2.818   1.762  -1.913  0.00  0.00    +0.055 C 
BRANCH  35  37
ATOM     36  C   UNL     1       4.506   2.013  -3.738  0.00  0.00    +0.004 C 
ATOM     37  C   UNL     1       3.115   2.431  -3.257  0.00  0.00    +0.003 C 
ENDBRANCH  35  37
ENDBRANCH   1  35
TORSDOF 6
