REMARK  Name = ZINC35128015
REMARK  6 active torsions:
REMARK  status: ('A' for Active; 'I' for Inactive)
REMARK    1  A    between atoms: C_1  and  C_2
REMARK    2  A    between atoms: C_9  and  C_11
REMARK    3  A    between atoms: C_11  and  S_12
REMARK    4  A    between atoms: S_12  and  C_13
REMARK    5  A    between atoms: C_16  and  C_24
REMARK    6  A    between atoms: N_17  and  C_18
REMARK                            x       y       z     vdW  Elec       q    Type
REMARK                         _______ _______ _______ _____ _____    ______ ____
ROOT
ATOM      1  C   UNL     1      -2.933  -6.796  -1.546  0.00  0.00    +0.197 A 
ATOM      2  N   UNL     1      -2.084  -7.314  -0.686  0.00  0.00    -0.122 NA
ATOM      3  N   UNL     1      -2.159  -8.596  -0.707  0.00  0.00    -0.128 NA
ATOM      4  C   UNL     1      -3.060  -8.979  -1.581  0.00  0.00    +0.171 A 
ATOM      5  N   UNL     1      -3.589  -7.838  -2.143  0.00  0.00    -0.270 N 
ENDROOT
BRANCH   4   6
ATOM      6  C   UNL     1      -3.440 -10.372  -1.899  0.00  0.00    +0.038 A 
ATOM      7  C   UNL     1      -3.531 -10.789  -3.228  0.00  0.00    +0.013 A 
ATOM      8  C   UNL     1      -3.886 -12.090  -3.518  0.00  0.00    +0.001 A 
ATOM      9  C   UNL     1      -4.153 -12.982  -2.494  0.00  0.00    +0.001 A 
ATOM     10  C   UNL     1      -4.066 -12.577  -1.175  0.00  0.00    +0.021 A 
ATOM     11  C   UNL     1      -3.705 -11.279  -0.870  0.00  0.00    +0.052 A 
ATOM     12 CL   UNL     1      -3.588 -10.774   0.787  0.00  0.00    -0.083 Cl
ENDBRANCH   4   6
BRANCH   5  13
ATOM     13  C   UNL     1      -4.589  -7.760  -3.123  0.00  0.00    +0.051 A 
ATOM     14  C   UNL     1      -5.886  -8.157  -2.827  0.00  0.00    +0.026 A 
ATOM     15  C   UNL     1      -6.868  -8.079  -3.794  0.00  0.00    +0.002 A 
ATOM     16  C   UNL     1      -6.561  -7.606  -5.057  0.00  0.00    +0.000 A 
ATOM     17  C   UNL     1      -5.271  -7.210  -5.355  0.00  0.00    +0.002 A 
ATOM     18  C   UNL     1      -4.285  -7.280  -4.390  0.00  0.00    +0.026 A 
ENDBRANCH   5  13
BRANCH   1  19
ATOM     19  S   UNL     1      -3.183  -5.082  -1.865  0.00  0.00    -0.076 S 
BRANCH  19  20
ATOM     20  C   UNL     1      -2.012  -4.253  -0.756  0.00  0.00    +0.173 C 
BRANCH  20  28
ATOM     21  C   UNL     1      -0.079   1.610  -0.595  0.00  0.00    -0.012 C 
ATOM     22  C   UNL     1      -0.025   0.081  -0.567  0.00  0.00    -0.057 C 
ATOM     23  C   UNL     1      -1.437  -0.476  -0.357  0.00  0.00    +0.092 C 
ATOM     24  N   UNL     1      -1.345  -1.936  -0.203  0.00  0.00    -0.304 N 
ATOM     25  C   UNL     1      -0.377  -2.471   0.767  0.00  0.00    +0.089 C 
ATOM     26  C   UNL     1       0.985  -1.820   0.504  0.00  0.00    -0.063 C 
ATOM     27  N   UNL     1       0.842  -0.359   0.533  0.00  0.00    +0.383 N 
ATOM     28  C   UNL     1      -2.125  -2.760  -0.930  0.00  0.00    +0.226 C 
ATOM     29  O   UNL     1      -2.917  -2.301  -1.725  0.00  0.00    -0.275 OA
ATOM     30  H   UNL     1       1.750   0.069   0.435  0.00  0.00    -0.085 HD
ATOM     31  H   UNL     1       0.435  -0.079   1.413  0.00  0.00    -0.085 HD
ENDBRANCH  20  28
ENDBRANCH  19  20
ENDBRANCH   1  19
TORSDOF 5
