REMARK  Name = ZINC13549551
REMARK  6 active torsions:
REMARK  status: ('A' for Active; 'I' for Inactive)
REMARK    1  A    between atoms: N_10  and  C_11
REMARK    2  A    between atoms: C_11  and  C_13
REMARK    3  A    between atoms: C_13  and  S_14
REMARK    4  A    between atoms: S_14  and  C_15
REMARK    5  A    between atoms: C_16  and  C_26
REMARK    6  A    between atoms: C_19  and  C_21
REMARK                            x       y       z     vdW  Elec       q    Type
REMARK                         _______ _______ _______ _____ _____    ______ ____
ROOT
ATOM      1  C   UNL     1       0.003  -0.005   0.014  0.00  0.00    +0.173 C 
ENDROOT
BRANCH   1   2
ATOM      2  C   UNL     1      -1.411  -0.526   0.020  0.00  0.00    +0.249 C 
ATOM      3  O   UNL     1      -2.345   0.252   0.036  0.00  0.00    -0.273 OA
BRANCH   2  13
ATOM      4  C   UNL     1      -7.646  -2.512   0.443  0.00  0.00    +0.002 A 
ATOM      5  C   UNL     1      -7.521  -3.889   0.520  0.00  0.00    +0.001 A 
ATOM      6  C   UNL     1      -6.261  -4.458   0.474  0.00  0.00    +0.017 A 
ATOM      7  C   UNL     1      -5.156  -3.649   0.351  0.00  0.00    +0.039 A 
ATOM      8  C   UNL     1      -5.251  -2.252   0.270  0.00  0.00    +0.055 A 
ATOM      9  C   UNL     1      -6.542  -1.702   0.320  0.00  0.00    +0.027 A 
ATOM     10  N   UNL     1      -4.042  -1.592   0.155  0.00  0.00    -0.335 N 
ATOM     11  H   UNL     1      -4.022  -0.624   0.099  0.00  0.00    +0.168 HD
ATOM     12  C   UNL     1      -2.881  -2.297   0.118  0.00  0.00    +0.164 A 
ATOM     13  N   UNL     1      -1.637  -1.835   0.008  0.00  0.00    -0.156 NA
ATOM     14  S   UNL     1      -3.408  -3.944   0.255  0.00  0.00    -0.052 S 
ENDBRANCH   2  13
ENDBRANCH   1   2
BRANCH   1  15
ATOM     15  S   UNL     1      -0.021   1.805   0.034  0.00  0.00    -0.095 S 
BRANCH  15  16
ATOM     16  C   UNL     1       1.710   2.133   0.023  0.00  0.00    +0.115 A 
ATOM     17  C   UNL     1       2.169   3.464   0.034  0.00  0.00    +0.084 A 
ATOM     18  C   UNL     1       3.550   3.708   0.025  0.00  0.00    +0.023 A 
ATOM     19  C   UNL     1       4.409   2.629   0.007  0.00  0.00    +0.030 A 
ATOM     20  C   UNL     1       3.883   1.334  -0.003  0.00  0.00    +0.079 A 
ATOM     21  N   UNL     1       2.569   1.128   0.011  0.00  0.00    -0.239 NA
BRANCH  20  22
ATOM     22  C   UNL     1       4.799   0.178  -0.022  0.00  0.00    +0.038 A 
ATOM     23  C   UNL     1       4.502  -1.161  -0.034  0.00  0.00    +0.017 A 
ATOM     24  C   UNL     1       5.535  -2.067  -0.052  0.00  0.00    +0.008 A 
ATOM     25  C   UNL     1       6.816  -1.612  -0.058  0.00  0.00    +0.046 A 
ATOM     26  S   UNL     1       6.584   0.158  -0.044  0.00  0.00    -0.095 S 
ENDBRANCH  20  22
BRANCH  17  27
ATOM     27  C   UNL     1       1.239   4.553   0.053  0.00  0.00    +0.102 C 
ATOM     28  N   UNL     1       0.501   5.417   0.069  0.00  0.00    -0.191 NA
ENDBRANCH  17  27
ENDBRANCH  15  16
ENDBRANCH   1  15
TORSDOF 6
