REMARK  Name = ZINC54401560
REMARK  7 active torsions:
REMARK  status: ('A' for Active; 'I' for Inactive)
REMARK    1  A    between atoms: C_1  and  C_2
REMARK    2  A    between atoms: C_2  and  C_3
REMARK    3  A    between atoms: C_3  and  C_4
REMARK    4  A    between atoms: C_3  and  C_5
REMARK    5  A    between atoms: C_3  and  C_6
REMARK    6  A    between atoms: N_8  and  C_9
REMARK    7  A    between atoms: C_12  and  N_16
REMARK                            x       y       z     vdW  Elec       q    Type
REMARK                         _______ _______ _______ _____ _____    ______ ____
ROOT
ATOM      1  C   UNL     1       1.434  -4.062  -2.243  0.00  0.00    +0.062 A 
ATOM      2  C   UNL     1       0.608  -4.800  -1.405  0.00  0.00    +0.042 A 
ATOM      3  C   UNL     1       0.719  -6.176  -1.363  0.00  0.00    +0.040 A 
ATOM      4  C   UNL     1       1.656  -6.822  -2.159  0.00  0.00    +0.027 A 
ATOM      5  C   UNL     1       2.482  -6.084  -2.997  0.00  0.00    +0.040 A 
ATOM      6  C   UNL     1       2.367  -4.708  -3.043  0.00  0.00    +0.042 A 
ATOM      7 BR   UNL     1       3.486  -3.704  -4.191  0.00  0.00    -0.048 Br
ATOM      8 BR   UNL     1      -0.667  -3.921  -0.320  0.00  0.00    -0.048 Br
ENDROOT
BRANCH   1  11
ATOM      9  C   UNL     1       2.072  -1.903  -1.464  0.00  0.00    +0.223 C 
ATOM     10  O   UNL     1       2.776  -2.426  -0.626  0.00  0.00    -0.275 OA
ATOM     11  N   UNL     1       1.322  -2.665  -2.285  0.00  0.00    -0.283 N 
ATOM     12  H   UNL     1       0.704  -2.246  -2.905  0.00  0.00    +0.155 HD
BRANCH   9  13
ATOM     13  C   UNL     1       2.036  -0.402  -1.587  0.00  0.00    +0.041 C 
ATOM     14  C   UNL     1       0.608   0.095  -1.351  0.00  0.00    +0.020 C 
ATOM     15  C   UNL     1       2.492   0.006  -2.989  0.00  0.00    +0.020 C 
BRANCH  13  17
ATOM     16  C   UNL     1       2.934   1.742  -0.671  0.00  0.00    +0.005 C 
ATOM     17  C   UNL     1       2.970   0.218  -0.546  0.00  0.00    +0.012 C 
ENDBRANCH  13  17
ENDBRANCH   9  13
ENDBRANCH   1  11
BRANCH   4  18
ATOM     18  N   UNL     1       1.768  -8.216  -2.117  0.00  0.00    -0.358 N 
ATOM     19  H   UNL     1       1.191  -8.731  -1.531  0.00  0.00    +0.142 HD
ATOM     20  H   UNL     1       2.422  -8.667  -2.673  0.00  0.00    +0.142 HD
ENDBRANCH   4  18
TORSDOF 4
