REMARK  Name = ZINC41022066
REMARK  12 active torsions:
REMARK  status: ('A' for Active; 'I' for Inactive)
REMARK    1  A    between atoms: C_1  and  C_2
REMARK    2  A    between atoms: C_2  and  C_3
REMARK    3  A    between atoms: C_3  and  O_4
REMARK    4  A    between atoms: O_4  and  C_5
REMARK    5  A    between atoms: C_8  and  C_13
REMARK    6  A    between atoms: C_10  and  O_11
REMARK    7  A    between atoms: O_11  and  C_12
REMARK    8  A    between atoms: C_15  and  C_24
REMARK    9  A    between atoms: C_16  and  C_23
REMARK   10  A    between atoms: N_26  and  C_27
REMARK   11  A    between atoms: C_31  and  C_34
REMARK   12  A    between atoms: C_32  and  C_33
REMARK                            x       y       z     vdW  Elec       q    Type
REMARK                         _______ _______ _______ _____ _____    ______ ____
ROOT
ATOM      1  C   UNL     1       2.999  -4.049  -5.102  0.00  0.00    +0.179 C 
ATOM      2  C   UNL     1       4.482  -3.933  -5.339  0.00  0.00    +0.060 C 
ATOM      3  C   UNL     1       5.006  -3.369  -6.437  0.00  0.00    +0.018 C 
ATOM      4  N   UNL     1       4.224  -2.860  -7.445  0.00  0.00    -0.286 N 
ATOM      5  C   UNL     1       2.872  -3.172  -7.423  0.00  0.00    +0.240 A 
ATOM      6  N   UNL     1       2.285  -3.734  -6.333  0.00  0.00    -0.201 N 
ATOM      7  N   UNL     1       0.946  -3.908  -6.678  0.00  0.00    -0.042 NA
ATOM      8  N   UNL     1       0.816  -3.460  -7.884  0.00  0.00    -0.021 NA
ATOM      9  N   UNL     1       1.946  -3.025  -8.327  0.00  0.00    -0.092 NA
ATOM     10  C   UNL     1       6.505  -3.291  -6.570  0.00  0.00    +0.061 C 
ATOM     11  H   UNL     1       4.601  -2.304  -8.145  0.00  0.00    +0.155 HD
ENDROOT
BRANCH   1  15
ATOM     12  C   UNL     1       1.828  -1.306  -2.037  0.00  0.00    +0.162 A 
ATOM     13  C   UNL     1       2.452  -0.843  -3.184  0.00  0.00    +0.050 A 
ATOM     14  C   UNL     1       2.829  -1.732  -4.173  0.00  0.00    +0.010 A 
ATOM     15  C   UNL     1       2.586  -3.084  -4.021  0.00  0.00    -0.015 A 
ATOM     16  C   UNL     1       1.964  -3.553  -2.878  0.00  0.00    +0.055 A 
ATOM     17  C   UNL     1       1.589  -2.668  -1.881  0.00  0.00    +0.162 A 
BRANCH  17  18
ATOM     18  O   UNL     1       0.983  -3.128  -0.754  0.00  0.00    -0.491 OA
ATOM     19  C   UNL     1       0.868  -4.546  -0.611  0.00  0.00    +0.277 C 
ENDBRANCH  17  18
BRANCH  12  20
ATOM     20  O   UNL     1       1.457  -0.433  -1.063  0.00  0.00    -0.488 OA
BRANCH  20  21
ATOM     21  C   UNL     1       1.734   0.950  -1.291  0.00  0.00    +0.229 C 
BRANCH  21  23
ATOM     22  C   UNL     1       1.545   3.253  -0.341  0.00  0.00    +0.007 C 
ATOM     23  C   UNL     1       1.248   1.772  -0.096  0.00  0.00    +0.038 C 
ENDBRANCH  21  23
ENDBRANCH  20  21
ENDBRANCH  12  20
ENDBRANCH   1  15
BRANCH   2  24
ATOM     24  C   UNL     1       5.363  -4.442  -4.357  0.00  0.00    +0.248 C 
ATOM     25  O   UNL     1       5.624  -5.631  -4.330  0.00  0.00    -0.270 OA
ATOM     26  N   UNL     1       5.915  -3.611  -3.451  0.00  0.00    -0.281 N 
ATOM     27  H   UNL     1       5.655  -2.677  -3.428  0.00  0.00    +0.155 HD
BRANCH  26  28
ATOM     28  C   UNL     1       6.863  -4.095  -2.544  0.00  0.00    +0.037 A 
ATOM     29  C   UNL     1       7.534  -5.283  -2.806  0.00  0.00    +0.023 A 
ATOM     30  C   UNL     1       8.470  -5.758  -1.908  0.00  0.00    +0.002 A 
ATOM     31  C   UNL     1       8.740  -5.052  -0.750  0.00  0.00    +0.004 A 
ATOM     32  C   UNL     1       8.074  -3.869  -0.486  0.00  0.00    -0.046 A 
ATOM     33  C   UNL     1       7.141  -3.386  -1.383  0.00  0.00    -0.026 A 
ATOM     34  C   UNL     1       6.420  -2.093  -1.097  0.00  0.00    +0.046 C 
ATOM     35  C   UNL     1       8.372  -3.104   0.777  0.00  0.00    +0.044 C 
ENDBRANCH  26  28
ENDBRANCH   2  24
TORSDOF 7
