REMARK  Name = ZINC16837272
REMARK  5 active torsions:
REMARK  status: ('A' for Active; 'I' for Inactive)
REMARK    1  A    between atoms: N_10  and  S_11
REMARK    2  A    between atoms: S_11  and  C_14
REMARK    3  A    between atoms: C_17  and  C_20
REMARK    4  A    between atoms: N_22  and  C_23
REMARK    5  A    between atoms: C_31  and  C_32
REMARK                            x       y       z     vdW  Elec       q    Type
REMARK                         _______ _______ _______ _____ _____    ______ ____
ROOT
ATOM      1  C   UNL     1      -2.905  -5.032   0.657  0.00  0.00    +0.109 A 
ATOM      2  C   UNL     1      -1.684  -4.598   1.141  0.00  0.00    +0.029 A 
ATOM      3  C   UNL     1      -1.381  -3.252   1.149  0.00  0.00    +0.015 A 
ATOM      4  C   UNL     1      -2.310  -2.328   0.667  0.00  0.00    +0.037 A 
ATOM      5  C   UNL     1      -3.542  -2.772   0.185  0.00  0.00    +0.015 A 
ATOM      6  C   UNL     1      -3.830  -4.122   0.178  0.00  0.00    +0.029 A 
ENDROOT
BRANCH   4   7
ATOM      7  C   UNL     1      -1.992  -0.884   0.672  0.00  0.00    +0.248 C 
ATOM      8  O   UNL     1      -0.920  -0.500   1.096  0.00  0.00    -0.270 OA
ATOM      9  N   UNL     1      -2.891   0.005   0.206  0.00  0.00    -0.278 N 
ATOM     10  H   UNL     1      -3.771  -0.294  -0.070  0.00  0.00    +0.155 HD
BRANCH   9  11
ATOM     11  C   UNL     1      -2.556   1.351   0.122  0.00  0.00    +0.092 A 
ATOM     12  C   UNL     1      -1.655   2.096   1.009  0.00  0.00    +0.042 A 
ATOM     13  C   UNL     1      -0.896   1.756   2.129  0.00  0.00    +0.013 A 
ATOM     14  C   UNL     1      -0.137   2.709   2.749  0.00  0.00    +0.001 A 
ATOM     15  C   UNL     1      -0.117   4.012   2.270  0.00  0.00    +0.004 A 
ATOM     16  C   UNL     1      -0.860   4.367   1.165  0.00  0.00    +0.047 A 
ATOM     17  C   UNL     1      -1.639   3.414   0.519  0.00  0.00    +0.138 A 
ATOM     18  O   UNL     1      -2.445   3.462  -0.560  0.00  0.00    -0.448 OA
ATOM     19  C   UNL     1      -3.000   2.254  -0.806  0.00  0.00    +0.211 A 
BRANCH  19  20
ATOM     20  C   UNL     1      -3.925   1.956  -1.897  0.00  0.00    +0.279 C 
ATOM     21  O   UNL     1      -4.283   0.810  -2.096  0.00  0.00    -0.267 OA
ATOM     22  N   UNL     1      -4.387   2.952  -2.679  0.00  0.00    -0.323 N 
ATOM     23  H   UNL     1      -5.004   2.755  -3.401  0.00  0.00    +0.145 HD
ATOM     24  H   UNL     1      -4.102   3.866  -2.521  0.00  0.00    +0.145 HD
ENDBRANCH  19  20
ENDBRANCH   9  11
ENDBRANCH   4   7
BRANCH   1  25
ATOM     25  S   UNL     1      -3.284  -6.753   0.650  0.00  0.00    +0.075 S 
ATOM     26  O   UNL     1      -4.269  -6.948  -0.355  0.00  0.00    -0.150 OA
ATOM     27  O   UNL     1      -2.041  -7.442   0.643  0.00  0.00    -0.150 OA
BRANCH  25  37
ATOM     28  C   UNL     1      -8.110  -6.525   2.553  0.00  0.00    +0.000 A 
ATOM     29  C   UNL     1      -7.450  -5.987   1.463  0.00  0.00    +0.002 A 
ATOM     30  C   UNL     1      -6.091  -6.179   1.317  0.00  0.00    +0.025 A 
ATOM     31  C   UNL     1      -5.386  -6.914   2.265  0.00  0.00    +0.054 A 
ATOM     32  C   UNL     1      -6.048  -7.450   3.359  0.00  0.00    -0.025 A 
ATOM     33  C   UNL     1      -7.412  -7.253   3.496  0.00  0.00    +0.005 A 
ATOM     34  C   UNL     1      -5.317  -8.245   4.408  0.00  0.00    +0.038 C 
ATOM     35  C   UNL     1      -3.995  -8.775   3.854  0.00  0.00    +0.025 C 
ATOM     36  C   UNL     1      -3.220  -7.615   3.224  0.00  0.00    +0.132 C 
ATOM     37  N   UNL     1      -4.010  -7.100   2.098  0.00  0.00    -0.203 N 
ENDBRANCH  25  37
ENDBRANCH   1  25
TORSDOF 5
