REMARK  Name = ZINC09046352
REMARK  15 active torsions:
REMARK  status: ('A' for Active; 'I' for Inactive)
REMARK    1  A    between atoms: C_1  and  C_2
REMARK    2  A    between atoms: C_2  and  N_65
REMARK    3  A    between atoms: C_3  and  C_4
REMARK    4  A    between atoms: C_3  and  N_65
REMARK    5  A    between atoms: C_5  and  C_6
REMARK    6  A    between atoms: C_5  and  N_65
REMARK    7  A    between atoms: C_6  and  N_7
REMARK    8  A    between atoms: C_8  and  C_24
REMARK    9  A    between atoms: C_11  and  C_12
REMARK   10  A    between atoms: C_11  and  O_19
REMARK   11  A    between atoms: C_15  and  C_18
REMARK   12  A    between atoms: C_28  and  O_32
REMARK   13  A    between atoms: C_29  and  O_30
REMARK   14  A    between atoms: O_30  and  C_31
REMARK   15  A    between atoms: O_32  and  C_33
REMARK                            x       y       z     vdW  Elec       q    Type
REMARK                         _______ _______ _______ _____ _____    ______ ____
ROOT
ATOM      1  N   UNL     1       2.646   3.685  -0.401  0.00  0.00    -0.285 N 
ATOM      2  C   UNL     1       3.337   2.634   0.350  0.00  0.00    +0.148 C 
ATOM      3  C   UNL     1       3.461   3.127   1.774  0.00  0.00    +0.071 C 
ATOM      4  C   UNL     1       4.046   2.464   2.833  0.00  0.00    +0.133 C 
ATOM      5  C   UNL     1       2.860   4.396   1.800  0.00  0.00    +0.249 C 
ATOM      6  O   UNL     1       2.760   5.119   2.775  0.00  0.00    -0.282 OA
ATOM      7  C   UNL     1       2.367   4.704   0.431  0.00  0.00    +0.288 C 
ATOM      8  O   UNL     1       1.797   5.727   0.110  0.00  0.00    -0.266 OA
ENDROOT
BRANCH   4   9
ATOM      9  C   UNL     1       4.207   3.145   4.129  0.00  0.00    +0.017 A 
ATOM     10  C   UNL     1       4.807   4.407   4.191  0.00  0.00    +0.012 A 
ATOM     11  C   UNL     1       4.950   5.040   5.407  0.00  0.00    +0.004 A 
ATOM     12  C   UNL     1       4.512   4.425   6.567  0.00  0.00    -0.050 A 
ATOM     13  C   UNL     1       3.923   3.173   6.515  0.00  0.00    +0.004 A 
ATOM     14  C   UNL     1       3.767   2.530   5.306  0.00  0.00    +0.012 A 
ATOM     15  C   UNL     1       4.677   5.122   7.893  0.00  0.00    +0.044 C 
ENDBRANCH   4   9
BRANCH   2  16
ATOM     16  C   UNL     1       2.534   1.359   0.314  0.00  0.00    +0.023 A 
ATOM     17  C   UNL     1       1.153   1.411   0.353  0.00  0.00    +0.009 A 
ATOM     18  C   UNL     1       0.413   0.244   0.319  0.00  0.00    +0.004 A 
ATOM     19  C   UNL     1       1.050  -0.980   0.246  0.00  0.00    +0.049 A 
ATOM     20  C   UNL     1       2.434  -1.040   0.206  0.00  0.00    +0.162 A 
ATOM     21  C   UNL     1       3.179   0.136   0.240  0.00  0.00    +0.167 A 
BRANCH  21  22
ATOM     22  O   UNL     1       4.537   0.083   0.202  0.00  0.00    -0.491 OA
ATOM     23  C   UNL     1       5.152   0.116  -1.088  0.00  0.00    +0.277 C 
ENDBRANCH  21  22
BRANCH  20  24
ATOM     24  O   UNL     1       3.063  -2.243   0.133  0.00  0.00    -0.491 OA
ATOM     25  C   UNL     1       2.234  -3.407   0.102  0.00  0.00    +0.277 C 
ENDBRANCH  20  24
ENDBRANCH   2  16
BRANCH   4  26
ATOM     26  O   UNL     1       4.470   1.191   2.681  0.00  0.00    -0.506 OA
ATOM     27  H   UNL     1       4.865   0.867   3.541  0.00  0.00    +0.292 HD
ENDBRANCH   4  26
BRANCH   1  28
ATOM     28  C   UNL     1       2.312   3.633  -1.826  0.00  0.00    +0.090 C 
BRANCH  28  29
ATOM     29  C   UNL     1       0.881   3.119  -1.997  0.00  0.00    -0.060 C 
BRANCH  29  30
ATOM     30  N   UNL     1       0.500   3.232  -3.421  0.00  0.00    +0.380 N 
ATOM     31  H   UNL     1       0.689   4.189  -3.741  0.00  0.00    -0.082 HD
BRANCH  30  33
ATOM     32  C   UNL     1       0.996   0.844  -3.826  0.00  0.00    -0.017 C 
ATOM     33  C   UNL     1       1.296   2.288  -4.233  0.00  0.00    -0.082 C 
ENDBRANCH  30  33
BRANCH  30  34
ATOM     34  C   UNL     1      -0.941   2.947  -3.582  0.00  0.00    -0.082 C 
ATOM     35  C   UNL     1      -1.344   3.240  -5.029  0.00  0.00    -0.017 C 
ENDBRANCH  30  34
ENDBRANCH  29  30
ENDBRANCH  28  29
ENDBRANCH   1  28
TORSDOF 10
