REMARK  Name = ZINC12361000
REMARK  10 active torsions:
REMARK  status: ('A' for Active; 'I' for Inactive)
REMARK    1  A    between atoms: C_1  and  C_2
REMARK    2  A    between atoms: C_2  and  O_3
REMARK    3  A    between atoms: O_3  and  C_4
REMARK    4  A    between atoms: C_4  and  C_6
REMARK    5  A    between atoms: C_10  and  N_11
REMARK    6  A    between atoms: C_12  and  C_14
REMARK    7  A    between atoms: N_19  and  S_20
REMARK    8  A    between atoms: S_20  and  C_23
REMARK    9  A    between atoms: C_26  and  C_29
REMARK   10  A    between atoms: C_31  and  C_35
REMARK                            x       y       z     vdW  Elec       q    Type
REMARK                         _______ _______ _______ _____ _____    ______ ____
ROOT
ATOM      1  N   UNL     1      -1.119   2.575   0.022  0.00  0.00    -0.278 N 
ATOM      2  C   UNL     1      -2.365   2.062   0.025  0.00  0.00    +0.236 C 
ATOM      3  O   UNL     1      -2.527   0.860   0.020  0.00  0.00    -0.274 OA
ATOM      4  H   UNL     1      -0.990   3.536   0.026  0.00  0.00    +0.155 HD
ENDROOT
BRANCH   1   9
ATOM      5  C   UNL     1       1.326   2.063   0.001  0.00  0.00    +0.091 A 
ATOM      6  C   UNL     1       2.288   0.973  -0.015  0.00  0.00    -0.021 A 
ATOM      7  C   UNL     1       1.753  -0.266  -0.016  0.00  0.00    -0.004 A 
ATOM      8  S   UNL     1       0.002  -0.004   0.002  0.00  0.00    -0.077 S 
ATOM      9  C   UNL     1      -0.021   1.728   0.011  0.00  0.00    +0.086 A 
ATOM     10  C   UNL     1       2.491  -1.569  -0.028  0.00  0.00    +0.046 C 
ATOM     11  C   UNL     1       3.958  -1.297   0.339  0.00  0.00    -0.009 C 
ATOM     12  C   UNL     1       4.465  -0.118  -0.497  0.00  0.00    +0.008 C 
ATOM     13  C   UNL     1       3.798   1.176  -0.029  0.00  0.00    +0.037 C 
ATOM     14  C   UNL     1       4.802  -2.538   0.041  0.00  0.00    +0.008 C 
BRANCH   5  15
ATOM     15  C   UNL     1       1.762   3.461   0.003  0.00  0.00    +0.342 C 
ATOM     16  O   UNL     1       1.954   4.036   1.058  0.00  0.00    -0.245 OA
BRANCH  15  17
ATOM     17  O   UNL     1       1.951   4.111  -1.163  0.00  0.00    -0.461 OA
BRANCH  17  19
ATOM     18  C   UNL     1       2.544   6.060  -2.497  0.00  0.00    +0.048 C 
ATOM     19  C   UNL     1       2.384   5.495  -1.085  0.00  0.00    +0.229 C 
ENDBRANCH  17  19
ENDBRANCH  15  17
ENDBRANCH   5  15
ENDBRANCH   1   9
BRANCH   2  20
ATOM     20  C   UNL     1      -3.559   2.982   0.036  0.00  0.00    +0.166 C 
ATOM     21  C   UNL     1      -3.561   3.854  -1.237  0.00  0.00    +0.031 C 
ATOM     22  C   UNL     1      -4.536   3.087  -2.176  0.00  0.00    +0.019 C 
ATOM     23  C   UNL     1      -5.580   2.548  -1.167  0.00  0.00    +0.110 C 
ATOM     24  N   UNL     1      -4.799   2.193   0.031  0.00  0.00    -0.165 NA
BRANCH  24  25
ATOM     25  S   UNL     1      -5.244   1.087   1.181  0.00  0.00    +0.062 S 
ATOM     26  O   UNL     1      -6.152   0.192   0.554  0.00  0.00    -0.153 OA
ATOM     27  O   UNL     1      -4.046   0.645   1.805  0.00  0.00    -0.153 OA
BRANCH  25  28
ATOM     28  C   UNL     1      -6.161   1.955   2.410  0.00  0.00    +0.106 A 
ATOM     29  C   UNL     1      -5.510   2.508   3.497  0.00  0.00    +0.029 A 
ATOM     30  C   UNL     1      -6.229   3.192   4.459  0.00  0.00    +0.005 A 
ATOM     31  C   UNL     1      -7.600   3.316   4.339  0.00  0.00    -0.050 A 
ATOM     32  C   UNL     1      -8.252   2.758   3.256  0.00  0.00    +0.005 A 
ATOM     33  C   UNL     1      -7.533   2.077   2.291  0.00  0.00    +0.029 A 
ATOM     34  C   UNL     1      -8.384   4.059   5.390  0.00  0.00    +0.044 C 
ENDBRANCH  25  28
ENDBRANCH  24  25
ENDBRANCH   2  20
TORSDOF 7
