REMARK  Name = ZINC30008709
REMARK  8 active torsions:
REMARK  status: ('A' for Active; 'I' for Inactive)
REMARK    1  A    between atoms: C_1  and  C_2
REMARK    2  A    between atoms: C_2  and  C_3
REMARK    3  A    between atoms: C_3  and  C_5
REMARK    4  A    between atoms: C_3  and  N_6
REMARK    5  A    between atoms: C_7  and  C_9
REMARK    6  A    between atoms: C_9  and  N_10
REMARK    7  A    between atoms: N_13  and  S_16
REMARK    8  A    between atoms: S_16  and  C_19
REMARK                            x       y       z     vdW  Elec       q    Type
REMARK                         _______ _______ _______ _____ _____    ______ ____
ROOT
ATOM      1  N   UNL     1       5.132   0.890   3.656  0.00  0.00    +0.387 N 
ATOM      2  C   UNL     1       4.561   1.029   5.002  0.00  0.00    -0.061 C 
ATOM      3  C   UNL     1       5.143  -0.056   5.914  0.00  0.00    +0.091 C 
ATOM      4  N   UNL     1       6.610   0.017   5.850  0.00  0.00    -0.180 NA
ATOM      5  C   UNL     1       7.250   0.022   4.526  0.00  0.00    +0.091 C 
ATOM      6  C   UNL     1       6.585   1.104   3.668  0.00  0.00    -0.061 C 
ATOM      7  H   UNL     1       4.948  -0.141   3.320  0.00  0.00    -0.081 HD
ENDROOT
BRANCH   4   8
ATOM      8  S   UNL     1       7.519   0.093   7.233  0.00  0.00    +0.062 S 
ATOM      9  O   UNL     1       8.672   0.862   6.920  0.00  0.00    -0.153 OA
ATOM     10  O   UNL     1       6.630   0.447   8.284  0.00  0.00    -0.153 OA
BRANCH   8  11
ATOM     11  C   UNL     1       8.081  -1.541   7.577  0.00  0.00    +0.120 A 
ATOM     12  C   UNL     1       9.428  -1.841   7.494  0.00  0.00    +0.045 A 
ATOM     13  C   UNL     1       9.869  -3.122   7.769  0.00  0.00    +0.020 A 
ATOM     14  C   UNL     1       8.962  -4.106   8.118  0.00  0.00    +0.016 A 
ATOM     15  C   UNL     1       7.615  -3.808   8.197  0.00  0.00    +0.018 A 
ATOM     16  C   UNL     1       7.174  -2.525   7.926  0.00  0.00    +0.044 A 
ATOM     17 BR   UNL     1       5.330  -2.117   8.034  0.00  0.00    -0.048 Br
ATOM     18 BR   UNL     1      11.713  -3.530   7.661  0.00  0.00    -0.050 Br
ENDBRANCH   8  11
ENDBRANCH   4   8
BRANCH   1  19
ATOM     19  C   UNL     1       4.474   1.800   2.708  0.00  0.00    +0.019 C 
BRANCH  19  21
ATOM     20  N   UNL     1       2.229   2.089   1.711  0.00  0.00    -0.314 N 
ATOM     21  C   UNL     1       3.033   1.393   2.539  0.00  0.00    +0.197 C 
ATOM     22  O   UNL     1       2.597   0.438   3.147  0.00  0.00    -0.278 OA
ATOM     23  H   UNL     1       2.624   2.954   1.159  0.00  0.00    +0.149 HD
BRANCH  20  24
ATOM     24  C   UNL     1       0.828   1.693   1.546  0.00  0.00    +0.070 C 
ATOM     25  C   UNL     1      -0.014   2.324   2.657  0.00  0.00    +0.028 C 
BRANCH  24  27
ATOM     26  C   UNL     1       1.078   1.448  -0.927  0.00  0.00    +0.005 C 
ATOM     27  C   UNL     1       0.319   2.173   0.185  0.00  0.00    +0.018 C 
ENDBRANCH  24  27
ENDBRANCH  20  24
ENDBRANCH  19  21
ENDBRANCH   1  19
TORSDOF 6
