REMARK  Name = ZINC21868941
REMARK  12 active torsions:
REMARK  status: ('A' for Active; 'I' for Inactive)
REMARK    1  A    between atoms: C_1  and  C_2
REMARK    2  A    between atoms: C_2  and  N_3
REMARK    3  A    between atoms: N_3  and  S_4
REMARK    4  A    between atoms: S_4  and  C_7
REMARK    5  A    between atoms: C_11  and  C_13
REMARK    6  A    between atoms: C_13  and  O_15
REMARK    7  A    between atoms: O_15  and  C_16
REMARK    8  A    between atoms: C_16  and  C_17
REMARK    9  A    between atoms: N_19  and  N_20
REMARK   10  A    between atoms: C_27  and  C_31
REMARK   11  A    between atoms: C_28  and  C_29
REMARK   12  A    between atoms: C_28  and  C_30
REMARK                            x       y       z     vdW  Elec       q    Type
REMARK                         _______ _______ _______ _____ _____    ______ ____
ROOT
ATOM      1  O   UNL     1       3.553   1.878  -0.022  0.00  0.00    -0.452 OA
ENDROOT
BRANCH   1   2
ATOM      2  C   UNL     1       4.804   1.381  -0.036  0.00  0.00    +0.340 C 
ATOM      3  O   UNL     1       4.980   0.178  -0.044  0.00  0.00    -0.245 OA
BRANCH   2   8
ATOM      4  C   UNL     1       8.340   2.644  -0.064  0.00  0.00    +0.106 A 
ATOM      5  C   UNL     1       8.136   4.013  -0.055  0.00  0.00    +0.028 A 
ATOM      6  C   UNL     1       6.853   4.528  -0.041  0.00  0.00    +0.003 A 
ATOM      7  C   UNL     1       5.765   3.678  -0.039  0.00  0.00    +0.015 A 
ATOM      8  C   UNL     1       5.963   2.296  -0.043  0.00  0.00    +0.061 A 
ATOM      9  C   UNL     1       7.262   1.783  -0.058  0.00  0.00    +0.043 A 
BRANCH   4  10
ATOM     10  S   UNL     1       9.980   1.999  -0.084  0.00  0.00    +0.058 S 
ATOM     11  O   UNL     1      10.819   3.007   0.464  0.00  0.00    -0.153 OA
ATOM     12  O   UNL     1       9.907   0.689   0.461  0.00  0.00    -0.153 OA
BRANCH  10  13
ATOM     13  N   UNL     1      10.420   1.829  -1.671  0.00  0.00    -0.190 NA
ATOM     14  H   UNL     1      10.446   0.823  -2.116  0.00  0.00    +0.148 HD
BRANCH  13  16
ATOM     15  C   UNL     1      11.316   2.636  -3.798  0.00  0.00    +0.022 C 
ATOM     16  C   UNL     1      10.557   3.011  -2.524  0.00  0.00    +0.102 C 
ENDBRANCH  13  16
ENDBRANCH  10  13
ENDBRANCH   4  10
ENDBRANCH   2   8
ENDBRANCH   1   2
BRANCH   1  17
ATOM     17  C   UNL     1       2.462   0.920  -0.017  0.00  0.00    +0.329 C 
BRANCH  17  18
ATOM     18  C   UNL     1       1.147   1.655   0.000  0.00  0.00    +0.270 C 
ATOM     19  O   UNL     1       1.130   2.868   0.007  0.00  0.00    -0.270 OA
ATOM     20  N   UNL     1      -0.011   0.966   0.007  0.00  0.00    -0.204 N 
ATOM     21  H   UNL     1       0.004  -0.134   0.006  0.00  0.00    +0.177 HD
BRANCH  20  22
ATOM     22  N   UNL     1      -1.234   1.650   0.017  0.00  0.00    -0.189 NA
ATOM     23  C   UNL     1      -2.334   0.995   0.018  0.00  0.00    +0.044 C 
ATOM     24  C   UNL     1      -2.507  -0.517   0.012  0.00  0.00    +0.057 C 
ATOM     25  C   UNL     1      -4.050  -0.743   0.025  0.00  0.00    +0.001 C 
ATOM     26  C   UNL     1      -4.519  -0.288  -1.391  0.00  0.00    +0.005 C 
ATOM     27  C   UNL     1      -4.323   1.251  -1.384  0.00  0.00    +0.013 C 
ATOM     28  C   UNL     1      -3.758   1.567   0.035  0.00  0.00    +0.013 C 
ATOM     29  C   UNL     1      -4.504   0.488   0.889  0.00  0.00    -0.021 C 
ATOM     30  C   UNL     1      -6.022   0.680   0.863  0.00  0.00    +0.012 C 
ATOM     31  C   UNL     1      -3.964   0.418   2.318  0.00  0.00    +0.012 C 
ATOM     32  C   UNL     1      -3.890   3.014   0.514  0.00  0.00    +0.018 C 
ENDBRANCH  20  22
ENDBRANCH  17  18
ENDBRANCH   1  17
TORSDOF 8
