REMARK  Name = ZINC22819988
REMARK  10 active torsions:
REMARK  status: ('A' for Active; 'I' for Inactive)
REMARK    1  A    between atoms: C_1  and  C_2
REMARK    2  A    between atoms: C_2  and  O_3
REMARK    3  A    between atoms: O_3  and  C_4
REMARK    4  A    between atoms: C_6  and  C_20
REMARK    5  A    between atoms: C_9  and  O_10
REMARK    6  A    between atoms: O_10  and  C_11
REMARK    7  A    between atoms: C_11  and  C_12
REMARK    8  A    between atoms: C_23  and  C_34
REMARK    9  A    between atoms: C_29  and  N_33
REMARK   10  A    between atoms: C_30  and  C_31
REMARK                            x       y       z     vdW  Elec       q    Type
REMARK                         _______ _______ _______ _____ _____    ______ ____
ROOT
ATOM      1  C   UNL     1       1.812   2.382   1.202  0.00  0.00    +0.163 A 
ATOM      2  C   UNL     1       3.040   3.024   1.188  0.00  0.00    +0.054 A 
ATOM      3  C   UNL     1       3.636   3.351  -0.015  0.00  0.00    -0.030 A 
ATOM      4  C   UNL     1       3.013   3.034  -1.208  0.00  0.00    +0.023 A 
ATOM      5  C   UNL     1       1.789   2.389  -1.202  0.00  0.00    +0.063 A 
ATOM      6  C   UNL     1       1.186   2.059   0.002  0.00  0.00    +0.176 A 
ATOM      7 BR   UNL     1       0.940   1.957  -2.835  0.00  0.00    -0.046 Br
ENDROOT
BRANCH   3   8
ATOM      8  C   UNL     1       4.969   4.055  -0.028  0.00  0.00    +0.101 C 
ATOM      9  C   UNL     1       5.980   3.216  -0.765  0.00  0.00    +0.049 A 
ATOM     10  C   UNL     1       6.598   2.036  -0.372  0.00  0.00    +0.068 A 
ATOM     11  N   UNL     1       7.406   1.659  -1.335  0.00  0.00    -0.176 NA
ATOM     12  N   UNL     1       7.324   2.598  -2.375  0.00  0.00    -0.246 N 
ATOM     13  H   UNL     1       7.928   2.464  -3.285  0.00  0.00    +0.192 HD
ATOM     14  C   UNL     1       6.446   3.544  -2.007  0.00  0.00    +0.222 A 
ATOM     15  O   UNL     1       6.037   4.653  -2.673  0.00  0.00    -0.423 OA
ATOM     16  C   UNL     1       5.359   5.586  -1.974  0.00  0.00    +0.200 C 
ATOM     17  C   UNL     1       4.840   5.376  -0.744  0.00  0.00    +0.098 C 
ATOM     18  C   UNL     1       6.378   1.314   0.932  0.00  0.00    +0.068 C 
BRANCH  16  19
ATOM     19  N   UNL     1       5.186   6.822  -2.546  0.00  0.00    -0.328 N 
ATOM     20  H   UNL     1       4.637   7.607  -2.004  0.00  0.00    +0.145 HD
ATOM     21  H   UNL     1       5.595   7.028  -3.546  0.00  0.00    +0.145 HD
ENDBRANCH  16  19
BRANCH  17  22
ATOM     22  C   UNL     1       4.142   6.446  -0.096  0.00  0.00    +0.101 C 
ATOM     23  N   UNL     1       3.589   7.295   0.417  0.00  0.00    -0.191 NA
ENDBRANCH  17  22
ENDBRANCH   3   8
BRANCH   1  24
ATOM     24  O   UNL     1       1.221   2.065   2.385  0.00  0.00    -0.489 OA
BRANCH  24  26
ATOM     25  C   UNL     1       1.108   1.994   4.798  0.00  0.00    +0.048 C 
ATOM     26  C   UNL     1       1.921   2.428   3.577  0.00  0.00    +0.226 C 
ENDBRANCH  24  26
ENDBRANCH   1  24
BRANCH   6  27
ATOM     27  O   UNL     1      -0.017   1.425   0.010  0.00  0.00    -0.483 OA
BRANCH  27  28
ATOM     28  C   UNL     1       0.002  -0.004   0.002  0.00  0.00    +0.264 C 
BRANCH  28  29
ATOM     29  C   UNL     1      -1.412  -0.526   0.013  0.00  0.00    -0.010 A 
ATOM     30  C   UNL     1      -2.046  -0.777   1.215  0.00  0.00    +0.010 A 
ATOM     31  C   UNL     1      -3.345  -1.250   1.226  0.00  0.00    +0.039 A 
ATOM     32  C   UNL     1      -4.006  -1.484   0.032  0.00  0.00    +0.123 A 
ATOM     33  C   UNL     1      -3.368  -1.237  -1.171  0.00  0.00    +0.039 A 
ATOM     34  C   UNL     1      -2.071  -0.758  -1.180  0.00  0.00    +0.010 A 
ATOM     35  F   UNL     1      -5.273  -1.951   0.042  0.00  0.00    -0.205 F 
ENDBRANCH  28  29
ENDBRANCH  27  28
ENDBRANCH   6  27
TORSDOF 8
