REMARK  Name = ZINC21225368
REMARK  8 active torsions:
REMARK  status: ('A' for Active; 'I' for Inactive)
REMARK    1  A    between atoms: C_1  and  C_2
REMARK    2  A    between atoms: C_2  and  O_3
REMARK    3  A    between atoms: O_3  and  C_4
REMARK    4  A    between atoms: C_6  and  C_12
REMARK    5  A    between atoms: C_9  and  O_10
REMARK    6  A    between atoms: C_17  and  C_22
REMARK    7  A    between atoms: C_26  and  O_28
REMARK    8  A    between atoms: O_28  and  C_29
REMARK                            x       y       z     vdW  Elec       q    Type
REMARK                         _______ _______ _______ _____ _____    ______ ____
ROOT
ATOM      1  C   UNL     1       1.849  -2.701  -1.276  0.00  0.00    +0.136 C 
ATOM      2  C   UNL     1       3.312  -2.390  -1.478  0.00  0.00    +0.036 C 
ATOM      3  C   UNL     1       4.019  -1.457  -0.818  0.00  0.00    +0.017 C 
ATOM      4  C   UNL     1       5.486  -1.229  -1.144  0.00  0.00    +0.059 C 
ATOM      5  C   UNL     1       6.136  -2.548  -1.557  0.00  0.00    +0.032 C 
ATOM      6  C   UNL     1       5.394  -3.068  -2.793  0.00  0.00    +0.088 C 
ATOM      7  C   UNL     1       3.938  -3.194  -2.460  0.00  0.00    +0.163 C 
ATOM      8  O   UNL     1       3.270  -4.016  -3.056  0.00  0.00    -0.292 OA
ATOM      9  N   UNL     1       3.519  -0.651   0.151  0.00  0.00    -0.316 N 
ATOM     10  C   UNL     1       2.318   0.042   0.064  0.00  0.00    +0.052 A 
ATOM     11  C   UNL     1       2.260   1.425   0.077  0.00  0.00    +0.025 A 
ATOM     12  C   UNL     1       1.027   2.054   0.074  0.00  0.00    +0.002 A 
ATOM     13  C   UNL     1      -0.138   1.307   0.057  0.00  0.00    +0.002 A 
ATOM     14  C   UNL     1      -0.082  -0.076   0.027  0.00  0.00    +0.025 A 
ATOM     15  C   UNL     1       1.151  -0.706   0.013  0.00  0.00    +0.049 A 
ATOM     16  N   UNL     1       1.262  -2.092  -0.102  0.00  0.00    -0.331 N 
ATOM     17  H   UNL     1       4.075  -0.509   1.090  0.00  0.00    +0.152 HD
ATOM     18  H   UNL     1       0.893  -2.724   0.720  0.00  0.00    +0.147 HD
ENDROOT
BRANCH   1  21
ATOM     19  C   UNL     1      -0.283  -2.703  -4.395  0.00  0.00    +0.163 A 
ATOM     20  C   UNL     1       0.417  -3.137  -3.281  0.00  0.00    +0.055 A 
ATOM     21  C   UNL     1       1.088  -2.226  -2.487  0.00  0.00    -0.018 A 
ATOM     22  C   UNL     1       1.059  -0.880  -2.800  0.00  0.00    +0.029 A 
ATOM     23  C   UNL     1       0.367  -0.440  -3.913  0.00  0.00    +0.086 A 
ATOM     24  C   UNL     1      -0.309  -1.349  -4.713  0.00  0.00    +0.177 A 
ATOM     25 CL   UNL     1       0.338   1.251  -4.306  0.00  0.00    -0.080 Cl
BRANCH  24  26
ATOM     26  O   UNL     1      -0.994  -0.918  -5.806  0.00  0.00    -0.502 OA
ATOM     27  H   UNL     1      -1.013   0.153  -6.056  0.00  0.00    +0.292 HD
ENDBRANCH  24  26
BRANCH  19  28
ATOM     28  O   UNL     1      -0.945  -3.599  -5.176  0.00  0.00    -0.489 OA
BRANCH  28  30
ATOM     29  C   UNL     1      -1.674  -5.822  -5.780  0.00  0.00    +0.048 C 
ATOM     30  C   UNL     1      -0.875  -4.972  -4.789  0.00  0.00    +0.226 C 
ENDBRANCH  28  30
ENDBRANCH  19  28
ENDBRANCH   1  21
BRANCH   5  31
ATOM     31  C   UNL     1       7.588  -2.320  -1.891  0.00  0.00    -0.040 A 
ATOM     32  C   UNL     1       7.935  -1.428  -2.889  0.00  0.00    +0.004 A 
ATOM     33  C   UNL     1       9.266  -1.212  -3.195  0.00  0.00    +0.004 A 
ATOM     34  C   UNL     1      10.253  -1.897  -2.511  0.00  0.00    +0.045 A 
ATOM     35  C   UNL     1       9.907  -2.796  -1.514  0.00  0.00    +0.120 A 
ATOM     36  C   UNL     1       8.571  -3.007  -1.205  0.00  0.00    +0.049 A 
BRANCH  35  37
ATOM     37  O   UNL     1      10.875  -3.471  -0.840  0.00  0.00    -0.495 OA
ATOM     38  C   UNL     1      12.229  -3.204  -1.211  0.00  0.00    +0.277 C 
ENDBRANCH  35  37
ENDBRANCH   5  31
TORSDOF 6
