REMARK  Name = ZINC07267710
REMARK  7 active torsions:
REMARK  status: ('A' for Active; 'I' for Inactive)
REMARK    1  A    between atoms: C_1  and  C_2
REMARK    2  A    between atoms: C_3  and  O_25
REMARK    3  A    between atoms: C_12  and  C_13
REMARK    4  A    between atoms: C_13  and  N_41
REMARK    5  A    between atoms: C_14  and  C_16
REMARK    6  A    between atoms: C_14  and  C_17
REMARK    7  A    between atoms: C_14  and  N_41
REMARK                            x       y       z     vdW  Elec       q    Type
REMARK                         _______ _______ _______ _____ _____    ______ ____
ROOT
ATOM      1  C   UNL     1       3.490  -2.301  -0.045  0.00  0.00    +0.051 C 
ATOM      2  C   UNL     1       3.530  -0.795  -0.037  0.00  0.00    +0.034 A 
ATOM      3  C   UNL     1       4.747  -0.132  -0.046  0.00  0.00    +0.123 A 
ATOM      4  C   UNL     1       4.795   1.260  -0.038  0.00  0.00    +0.046 A 
ATOM      5  C   UNL     1       3.642   1.992  -0.022  0.00  0.00    +0.015 A 
ATOM      6  C   UNL     1       2.405   1.339  -0.014  0.00  0.00    +0.019 A 
ATOM      7  C   UNL     1       2.350  -0.067  -0.021  0.00  0.00    +0.146 A 
ATOM      8  O   UNL     1       1.154  -0.694  -0.013  0.00  0.00    -0.422 OA
ATOM      9  C   UNL     1       0.002  -0.004   0.002  0.00  0.00    +0.337 A 
ATOM     10  O   UNL     1      -1.053  -0.612   0.009  0.00  0.00    -0.245 OA
ATOM     11  C   UNL     1      -0.017   1.406   0.010  0.00  0.00    +0.094 A 
ATOM     12  C   UNL     1       1.152   2.098   0.002  0.00  0.00    -0.047 A 
ENDROOT
BRANCH   3  13
ATOM     13  O   UNL     1       5.902  -0.845  -0.063  0.00  0.00    -0.506 OA
ATOM     14  H   UNL     1       6.246  -1.057   0.816  0.00  0.00    +0.292 HD
ENDBRANCH   3  13
BRANCH  12  15
ATOM     15  C   UNL     1       1.160   3.604   0.010  0.00  0.00    -0.045 C 
BRANCH  15  16
ATOM     16  N   UNL     1       1.391   4.093  -1.362  0.00  0.00    +0.386 N 
ATOM     17  H   UNL     1       0.642   3.752  -1.975  0.00  0.00    -0.085 HD
ATOM     18  H   UNL     1       2.296   3.742  -1.699  0.00  0.00    -0.085 HD
BRANCH  16  19
ATOM     19  C   UNL     1       1.404   5.568  -1.385  0.00  0.00    -0.042 C 
ATOM     20  C   UNL     1      -0.029   6.090  -1.508  0.00  0.00    -0.009 C 
BRANCH  19  21
ATOM     21  C   UNL     1       2.213   6.038  -2.567  0.00  0.00    -0.043 A 
ATOM     22  C   UNL     1       2.366   5.218  -3.669  0.00  0.00    +0.005 A 
ATOM     23  C   UNL     1       3.102   5.650  -4.756  0.00  0.00    +0.020 A 
ATOM     24  C   UNL     1       3.696   6.900  -4.736  0.00  0.00    +0.042 A 
ATOM     25  C   UNL     1       3.548   7.718  -3.631  0.00  0.00    +0.040 A 
ATOM     26  C   UNL     1       2.806   7.287  -2.546  0.00  0.00    +0.044 A 
ATOM     27 CL   UNL     1       2.620   8.314  -1.159  0.00  0.00    -0.083 Cl
ATOM     28 CL   UNL     1       4.627   7.440  -6.099  0.00  0.00    -0.083 Cl
ENDBRANCH  19  21
ENDBRANCH  16  19
ENDBRANCH  15  16
ENDBRANCH  12  15
TORSDOF 5
