REMARK  Name = ZINC00703642
REMARK  5 active torsions:
REMARK  status: ('A' for Active; 'I' for Inactive)
REMARK    1  A    between atoms: C_1  and  C_2
REMARK    2  A    between atoms: C_9  and  N_29
REMARK    3  A    between atoms: C_10  and  C_27
REMARK    4  A    between atoms: C_11  and  C_13
REMARK    5  A    between atoms: C_16  and  C_18
REMARK                            x       y       z     vdW  Elec       q    Type
REMARK                         _______ _______ _______ _____ _____    ______ ____
ROOT
ATOM      1  C   UNL     1      -4.815  -2.996   1.240  0.00  0.00    +0.068 C 
ATOM      2  C   UNL     1      -4.825  -3.111  -0.263  0.00  0.00    +0.068 A 
ATOM      3  C   UNL     1      -5.258  -2.136  -1.152  0.00  0.00    +0.050 A 
ATOM      4  C   UNL     1      -5.106  -2.624  -2.421  0.00  0.00    +0.222 A 
ATOM      5  N   UNL     1      -4.594  -3.861  -2.322  0.00  0.00    -0.246 N 
ATOM      6  H   UNL     1      -4.372  -4.469  -3.084  0.00  0.00    +0.192 HD
ATOM      7  N   UNL     1      -4.424  -4.149  -0.959  0.00  0.00    -0.176 NA
ATOM      8  O   UNL     1      -5.442  -1.910  -3.524  0.00  0.00    -0.423 OA
ATOM      9  C   UNL     1      -6.191  -0.802  -3.347  0.00  0.00    +0.200 C 
ATOM     10  C   UNL     1      -6.403  -0.222  -2.145  0.00  0.00    +0.099 C 
ATOM     11  C   UNL     1      -5.809  -0.763  -0.869  0.00  0.00    +0.108 C 
ENDROOT
BRANCH  11  12
ATOM     12  C   UNL     1      -4.700   0.143  -0.400  0.00  0.00    +0.003 A 
ATOM     13  C   UNL     1      -4.594   0.827   0.768  0.00  0.00    +0.013 A 
ATOM     14  C   UNL     1      -3.477   1.602   0.993  0.00  0.00    +0.016 A 
ATOM     15  C   UNL     1      -2.512   1.663   0.023  0.00  0.00    +0.022 A 
ATOM     16  S   UNL     1      -3.189   0.593  -1.236  0.00  0.00    -0.092 S 
BRANCH  15  17
ATOM     17  C   UNL     1      -1.239   2.415   0.021  0.00  0.00    +0.025 A 
ATOM     18  C   UNL     1      -1.250   3.812   0.035  0.00  0.00    +0.052 A 
ATOM     19  C   UNL     1      -0.057   4.508   0.028  0.00  0.00    +0.040 A 
ATOM     20  C   UNL     1       1.147   3.824   0.012  0.00  0.00    +0.044 A 
ATOM     21  C   UNL     1       1.164   2.440   0.004  0.00  0.00    +0.040 A 
ATOM     22  C   UNL     1      -0.021   1.732   0.012  0.00  0.00    +0.052 A 
ATOM     23 CL   UNL     1       0.002  -0.004   0.002  0.00  0.00    -0.083 Cl
ATOM     24 CL   UNL     1       2.642   4.707   0.003  0.00  0.00    -0.083 Cl
ATOM     25 CL   UNL     1      -2.758   4.670   0.054  0.00  0.00    -0.083 Cl
ENDBRANCH  15  17
ENDBRANCH  11  12
BRANCH   9  26
ATOM     26  N   UNL     1      -6.771  -0.231  -4.452  0.00  0.00    -0.328 N 
ATOM     27  H   UNL     1      -7.315   0.567  -4.357  0.00  0.00    +0.145 HD
ATOM     28  H   UNL     1      -6.637  -0.625  -5.329  0.00  0.00    +0.145 HD
ENDBRANCH   9  26
BRANCH  10  29
ATOM     29  C   UNL     1      -7.221   0.952  -2.082  0.00  0.00    +0.101 C 
ATOM     30  N   UNL     1      -7.871   1.883  -2.031  0.00  0.00    -0.191 NA
ENDBRANCH  10  29
TORSDOF 4
