REMARK  Name = ZINC11788015
REMARK  11 active torsions:
REMARK  status: ('A' for Active; 'I' for Inactive)
REMARK    1  A    between atoms: C_1  and  C_2
REMARK    2  A    between atoms: C_2  and  C_3
REMARK    3  A    between atoms: C_2  and  C_4
REMARK    4  A    between atoms: C_4  and  N_77
REMARK    5  A    between atoms: C_7  and  C_10
REMARK    6  A    between atoms: C_10  and  N_11
REMARK    7  A    between atoms: C_12  and  C_14
REMARK    8  A    between atoms: C_18  and  N_20
REMARK    9  A    between atoms: C_21  and  C_23
REMARK   10  A    between atoms: N_29  and  C_36
REMARK   11  A    between atoms: C_30  and  C_32
REMARK                            x       y       z     vdW  Elec       q    Type
REMARK                         _______ _______ _______ _____ _____    ______ ____
ROOT
ATOM      1  C   UNL     1       1.696   3.263  -5.969  0.00  0.00    +0.041 A 
ATOM      2  C   UNL     1       1.760   3.049  -4.596  0.00  0.00    +0.043 A 
ATOM      3  C   UNL     1       1.290   1.851  -4.059  0.00  0.00    +0.092 A 
ATOM      4  C   UNL     1       0.755   0.869  -4.911  0.00  0.00    +0.090 A 
ATOM      5  C   UNL     1       0.694   1.092  -6.287  0.00  0.00    +0.060 A 
ATOM      6  C   UNL     1       1.161   2.281  -6.813  0.00  0.00    +0.038 A 
ATOM      7  N   UNL     1       0.388  -0.182  -4.097  0.00  0.00    -0.329 N 
ATOM      8  C   UNL     1       0.688   0.172  -2.818  0.00  0.00    +0.114 A 
ATOM      9  N   UNL     1       1.218   1.359  -2.794  0.00  0.00    -0.232 NA
ATOM     10  C   UNL     1      -0.215  -1.445  -4.529  0.00  0.00    +0.150 C 
ENDROOT
BRANCH   1  12
ATOM     11  N   UNL     1       2.709   5.478  -5.731  0.00  0.00    -0.311 N 
ATOM     12  C   UNL     1       2.194   4.531  -6.540  0.00  0.00    +0.244 C 
ATOM     13  O   UNL     1       2.139   4.721  -7.740  0.00  0.00    -0.270 OA
ATOM     14  H   UNL     1       2.752   5.327  -4.774  0.00  0.00    +0.149 HD
BRANCH  11  15
ATOM     15  C   UNL     1       3.202   6.736  -6.297  0.00  0.00    +0.108 C 
BRANCH  15  18
ATOM     16  C   UNL     1       4.827   9.808  -4.641  0.00  0.00    -0.079 C 
ATOM     17  C   UNL     1       4.356   8.891  -5.773  0.00  0.00    -0.014 C 
ATOM     18  C   UNL     1       3.730   7.629  -5.173  0.00  0.00    +0.003 C 
ATOM     19  C   UNL     1       2.574   8.029  -4.252  0.00  0.00    -0.014 C 
ATOM     20  C   UNL     1       3.096   8.972  -3.166  0.00  0.00    -0.079 C 
ATOM     21  N   UNL     1       3.664  10.177  -3.808  0.00  0.00    +0.380 N 
ATOM     22  H   UNL     1       2.948  10.605  -4.406  0.00  0.00    -0.082 HD
BRANCH  21  23
ATOM     23  C   UNL     1       4.072  11.153  -2.776  0.00  0.00    -0.076 C 
BRANCH  23  25
ATOM     24  C   UNL     1       3.314  12.386  -0.740  0.00  0.00    +0.005 C 
ATOM     25  C   UNL     1       2.883  11.431  -1.855  0.00  0.00    -0.034 C 
ATOM     26  C   UNL     1       1.750  12.068  -2.662  0.00  0.00    +0.005 C 
ENDBRANCH  23  25
ENDBRANCH  21  23
ENDBRANCH  15  18
ENDBRANCH  11  15
ENDBRANCH   1  12
BRANCH   5  27
ATOM     27  N   UNL     1       0.162   0.113  -7.134  0.00  0.00    -0.282 N 
ATOM     28  C   UNL     1       0.628  -0.018  -8.392  0.00  0.00    +0.246 C 
ATOM     29  O   UNL     1       1.439   0.775  -8.823  0.00  0.00    -0.273 OA
ATOM     30  H   UNL     1      -0.544  -0.473  -6.815  0.00  0.00    +0.155 HD
BRANCH  28  31
ATOM     31  C   UNL     1       0.143  -1.148  -9.262  0.00  0.00    +0.204 C 
ATOM     32  C   UNL     1       0.620  -2.504  -8.698  0.00  0.00    +0.043 C 
ATOM     33  C   UNL     1       0.944  -3.341  -9.956  0.00  0.00    +0.031 C 
ATOM     34  C   UNL     1       0.624  -2.391 -11.131  0.00  0.00    +0.161 C 
ATOM     35  O   UNL     1       0.738  -1.062 -10.576  0.00  0.00    -0.367 OA
ENDBRANCH  28  31
ENDBRANCH   5  27
BRANCH   8  36
ATOM     36  C   UNL     1       0.446  -0.690  -1.605  0.00  0.00    +0.055 C 
ATOM     37  C   UNL     1       1.727  -1.031  -0.826  0.00  0.00    +0.011 C 
ATOM     38  C   UNL     1       0.910  -0.822   0.460  0.00  0.00    +0.001 C 
ATOM     39  C   UNL     1      -0.002   0.103  -0.366  0.00  0.00    +0.011 C 
ENDBRANCH   8  36
TORSDOF 8
