REMARK  Name = ZINC66560279
REMARK  5 active torsions:
REMARK  status: ('A' for Active; 'I' for Inactive)
REMARK    1  A    between atoms: C_2  and  C_3
REMARK    2  A    between atoms: C_3  and  N_4
REMARK    3  A    between atoms: N_4  and  C_5
REMARK    4  A    between atoms: N_4  and  C_20
REMARK    5  A    between atoms: C_5  and  C_6
REMARK                            x       y       z     vdW  Elec       q    Type
REMARK                         _______ _______ _______ _____ _____    ______ ____
ROOT
ATOM      1  C   UNL     1      -1.125  -2.034   0.626  0.00  0.00    +0.199 C 
ATOM      2  O   UNL     1      -1.254  -0.848   0.848  0.00  0.00    -0.278 OA
ATOM      3  N   UNL     1      -2.189  -2.769   0.248  0.00  0.00    -0.300 N 
ATOM      4  C   UNL     1      -2.049  -4.207  -0.018  0.00  0.00    +0.126 C 
ATOM      5  C   UNL     1      -3.053  -4.968   0.858  0.00  0.00    +0.125 C 
ATOM      6  N   UNL     1      -4.376  -4.345   0.705  0.00  0.00    -0.314 N 
ATOM      7  C   UNL     1      -4.516  -2.906   0.970  0.00  0.00    +0.125 C 
ATOM      8  C   UNL     1      -3.513  -2.147   0.101  0.00  0.00    +0.126 C 
ATOM      9  C   UNL     1      -5.474  -5.103   0.315  0.00  0.00    +0.099 A 
ATOM     10  C   UNL     1      -5.354  -6.485   0.206  0.00  0.00    +0.042 A 
ATOM     11  C   UNL     1      -6.455  -7.226  -0.183  0.00  0.00    +0.005 A 
ATOM     12  C   UNL     1      -7.643  -6.559  -0.450  0.00  0.00    +0.018 A 
ATOM     13  C   UNL     1      -7.691  -5.186  -0.322  0.00  0.00    +0.084 A 
ATOM     14  N   UNL     1      -6.626  -4.504   0.056  0.00  0.00    -0.350 N 
ATOM     15  H   UNL     1      -6.688  -3.540   0.143  0.00  0.00    +0.166 HD
ENDROOT
BRANCH   1  16
ATOM     16  C   UNL     1       0.226  -2.685   0.773  0.00  0.00    +0.020 C 
BRANCH  16  17
ATOM     17  N   UNL     1       1.237  -1.657   1.057  0.00  0.00    +0.391 N 
ATOM     18  H   UNL     1       0.945  -1.109   1.852  0.00  0.00    -0.080 HD
BRANCH  17  19
ATOM     19  C   UNL     1       2.522  -2.304   1.353  0.00  0.00    -0.045 C 
ATOM     20  C   UNL     1       3.576  -1.227   1.662  0.00  0.00    +0.009 C 
ATOM     21  C   UNL     1       4.823  -1.929   2.271  0.00  0.00    +0.164 C 
ATOM     22  S   UNL     1       4.010  -3.162   3.373  0.00  0.00    -0.033 S 
ATOM     23  O   UNL     1       4.659  -4.417   3.221  0.00  0.00    -0.174 OA
ATOM     24  O   UNL     1       3.869  -2.601   4.670  0.00  0.00    -0.174 OA
ATOM     25  C   UNL     1       2.357  -3.242   2.572  0.00  0.00    +0.151 C 
ENDBRANCH  17  19
BRANCH  17  26
ATOM     26  C   UNL     1       1.387  -0.782  -0.114  0.00  0.00    -0.051 C 
BRANCH  26  28
ATOM     27  C   UNL     1       0.959  -1.546  -2.393  0.00  0.00    +0.002 C 
ATOM     28  C   UNL     1       1.715  -1.616  -1.325  0.00  0.00    -0.053 C 
ENDBRANCH  26  28
ENDBRANCH  17  26
ENDBRANCH  16  17
ENDBRANCH   1  16
TORSDOF 5
