REMARK  Name = ZINC33810363
REMARK  8 active torsions:
REMARK  status: ('A' for Active; 'I' for Inactive)
REMARK    1  A    between atoms: C_1  and  C_2
REMARK    2  A    between atoms: C_2  and  C_33
REMARK    3  A    between atoms: C_6  and  C_20
REMARK    4  A    between atoms: C_12  and  S_16
REMARK    5  A    between atoms: S_16  and  C_17
REMARK    6  A    between atoms: C_17  and  C_18
REMARK    7  A    between atoms: C_23  and  O_29
REMARK    8  A    between atoms: C_24  and  N_26
REMARK                            x       y       z     vdW  Elec       q    Type
REMARK                         _______ _______ _______ _____ _____    ______ ____
ROOT
ATOM      1  C   UNL     1      -0.019   1.526   0.010  0.00  0.00    +0.011 C 
ATOM      2  C   UNL     1       0.002  -0.004   0.002  0.00  0.00    -0.023 C 
ATOM      3  C   UNL     1       0.732  -0.500  -1.249  0.00  0.00    +0.062 C 
ATOM      4  C   UNL     1       2.164  -0.022  -1.211  0.00  0.00    +0.052 C 
ATOM      5  C   UNL     1       2.797   0.177   0.031  0.00  0.00    +0.028 C 
ATOM      6  C   UNL     1       4.239   0.655   0.020  0.00  0.00    +0.093 C 
ATOM      7  C   UNL     1       4.841   0.872  -1.349  0.00  0.00    +0.073 A 
ATOM      8  C   UNL     1       6.161   1.314  -1.512  0.00  0.00    +0.280 A 
ATOM      9  O   UNL     1       6.864   1.535  -0.537  0.00  0.00    -0.265 OA
ATOM     10  N   UNL     1       6.646   1.491  -2.755  0.00  0.00    -0.185 NA
ATOM     11  C   UNL     1       5.899   1.255  -3.813  0.00  0.00    +0.172 A 
ATOM     12  N   UNL     1       4.612   0.824  -3.704  0.00  0.00    -0.319 N 
ATOM     13  C   UNL     1       4.055   0.623  -2.458  0.00  0.00    +0.142 A 
ATOM     14  N   UNL     1       2.791   0.199  -2.339  0.00  0.00    -0.234 NA
ATOM     15  C   UNL     1       2.171  -0.040   1.197  0.00  0.00    +0.162 C 
ATOM     16  O   UNL     1       2.833   0.171   2.352  0.00  0.00    -0.292 OA
ATOM     17  C   UNL     1       0.742  -0.514   1.242  0.00  0.00    +0.086 C 
ATOM     18  C   UNL     1      -1.432  -0.536   0.007  0.00  0.00    +0.011 C 
ATOM     19  H   UNL     1       4.087   0.658  -4.503  0.00  0.00    +0.169 HD
ENDROOT
BRANCH   6  20
ATOM     20  C   UNL     1       5.080  -0.363   0.747  0.00  0.00    -0.033 A 
ATOM     21  C   UNL     1       5.141  -1.664   0.284  0.00  0.00    +0.008 A 
ATOM     22  C   UNL     1       5.912  -2.599   0.948  0.00  0.00    +0.048 A 
ATOM     23  C   UNL     1       6.624  -2.231   2.081  0.00  0.00    +0.147 A 
ATOM     24  C   UNL     1       6.561  -0.924   2.542  0.00  0.00    +0.168 A 
ATOM     25  C   UNL     1       5.793   0.008   1.872  0.00  0.00    +0.041 A 
BRANCH  24  26
ATOM     26  N   UNL     1       7.319  -0.528   3.750  0.00  0.00    +0.060 N 
ATOM     27  O   UNL     1       7.263   0.611   4.152  0.00  0.00    -0.126 OA
ATOM     28  O   UNL     1       7.994  -1.343   4.335  0.00  0.00    -0.126 OA
ENDBRANCH  24  26
BRANCH  23  29
ATOM     29  O   UNL     1       7.382  -3.148   2.736  0.00  0.00    -0.504 OA
ATOM     30  H   UNL     1       8.294  -3.202   2.421  0.00  0.00    +0.292 HD
ENDBRANCH  23  29
ENDBRANCH   6  20
BRANCH  11  31
ATOM     31  S   UNL     1       6.585   1.505  -5.417  0.00  0.00    -0.084 S 
BRANCH  31  32
ATOM     32  C   UNL     1       8.278   2.067  -5.087  0.00  0.00    +0.104 C 
BRANCH  32  33
ATOM     33  C   UNL     1       8.986   2.320  -6.393  0.00  0.00    -0.023 C 
ATOM     34  C   UNL     1       9.363   3.535  -6.709  0.00  0.00    +0.005 C 
ENDBRANCH  32  33
ENDBRANCH  31  32
ENDBRANCH  11  31
TORSDOF 6
