REMARK  Name = ZINC09397607
REMARK  9 active torsions:
REMARK  status: ('A' for Active; 'I' for Inactive)
REMARK    1  A    between atoms: C_1  and  C_2
REMARK    2  A    between atoms: C_5  and  C_30
REMARK    3  A    between atoms: C_6  and  N_8
REMARK    4  A    between atoms: C_13  and  C_15
REMARK    5  A    between atoms: C_15  and  O_17
REMARK    6  A    between atoms: O_17  and  C_18
REMARK    7  A    between atoms: C_18  and  C_19
REMARK    8  A    between atoms: N_21  and  C_22
REMARK    9  A    between atoms: C_22  and  C_28
REMARK                            x       y       z     vdW  Elec       q    Type
REMARK                         _______ _______ _______ _____ _____    ______ ____
ROOT
ATOM      1  C   UNL     1       5.603   2.075   2.309  0.00  0.00    +0.356 C 
ATOM      2  O   UNL     1       6.123   2.788   1.473  0.00  0.00    -0.244 OA
ENDROOT
BRANCH   1   8
ATOM      3  N   UNL     1       6.515   0.421   5.483  0.00  0.00    -0.160 N 
ATOM      4  C   UNL     1       7.636   1.055   5.880  0.00  0.00    +0.240 C 
ATOM      5  O   UNL     1       8.239   0.668   6.858  0.00  0.00    -0.273 OA
ATOM      6  C   UNL     1       8.137   2.247   5.104  0.00  0.00    +0.104 C 
ATOM      7  C   UNL     1       7.811   2.051   3.619  0.00  0.00    +0.074 C 
ATOM      8  C   UNL     1       6.374   1.627   3.472  0.00  0.00    +0.144 C 
ATOM      9  N   UNL     1       5.810   0.866   4.360  0.00  0.00    -0.170 NA
BRANCH   3  15
ATOM     10  C   UNL     1       7.340  -4.045   7.367  0.00  0.00    +0.044 C 
ATOM     11  C   UNL     1       6.431  -2.867   7.127  0.00  0.00    -0.049 A 
ATOM     12  C   UNL     1       5.138  -2.883   7.617  0.00  0.00    +0.004 A 
ATOM     13  C   UNL     1       4.300  -1.804   7.399  0.00  0.00    +0.005 A 
ATOM     14  C   UNL     1       4.756  -0.705   6.698  0.00  0.00    -0.027 A 
ATOM     15  C   UNL     1       6.052  -0.689   6.200  0.00  0.00    +0.063 A 
ATOM     16  C   UNL     1       6.891  -1.774   6.420  0.00  0.00    +0.029 A 
ATOM     17  C   UNL     1       3.845   0.473   6.467  0.00  0.00    +0.046 C 
ENDBRANCH   3  15
ENDBRANCH   1   8
BRANCH   1  18
ATOM     18  O   UNL     1       4.316   1.696   2.167  0.00  0.00    -0.451 OA
BRANCH  18  19
ATOM     19  C   UNL     1       3.614   2.177   0.990  0.00  0.00    +0.328 C 
BRANCH  19  20
ATOM     20  C   UNL     1       2.200   1.655   1.001  0.00  0.00    +0.252 C 
ATOM     21  O   UNL     1       1.822   0.948   1.910  0.00  0.00    -0.272 OA
ATOM     22  N   UNL     1       1.357   1.975  -0.000  0.00  0.00    -0.295 N 
ATOM     23  H   UNL     1       1.659   2.541  -0.728  0.00  0.00    +0.150 HD
BRANCH  22  24
ATOM     24  C   UNL     1      -0.018   1.468   0.010  0.00  0.00    +0.121 C 
ATOM     25  C   UNL     1      -0.734   1.961   1.269  0.00  0.00    +0.041 C 
ATOM     26  C   UNL     1      -2.169   1.432   1.280  0.00  0.00    +0.003 C 
ATOM     27  C   UNL     1      -2.909   1.938   0.040  0.00  0.00    +0.000 C 
ATOM     28  C   UNL     1      -2.193   1.445  -1.219  0.00  0.00    +0.003 C 
ATOM     29  C   UNL     1      -0.758   1.975  -1.229  0.00  0.00    +0.041 C 
BRANCH  24  30
ATOM     30  C   UNL     1       0.002  -0.004   0.002  0.00  0.00    +0.088 C 
ATOM     31  N   UNL     1       0.018  -1.140  -0.004  0.00  0.00    -0.194 NA
ENDBRANCH  24  30
ENDBRANCH  22  24
ENDBRANCH  19  20
ENDBRANCH  18  19
ENDBRANCH   1  18
TORSDOF 7
