REMARK  Name = ZINC39534235
REMARK  11 active torsions:
REMARK  status: ('A' for Active; 'I' for Inactive)
REMARK    1  A    between atoms: C_1  and  O_2
REMARK    2  A    between atoms: O_2  and  N_3
REMARK    3  A    between atoms: N_3  and  C_4
REMARK    4  A    between atoms: C_4  and  C_5
REMARK    5  A    between atoms: C_5  and  C_7
REMARK    6  A    between atoms: C_5  and  N_23
REMARK    7  A    between atoms: C_10  and  S_13
REMARK    8  A    between atoms: S_13  and  O_16
REMARK    9  A    between atoms: O_16  and  C_17
REMARK   10  A    between atoms: C_27  and  C_30
REMARK   11  A    between atoms: C_35  and  O_36
REMARK                            x       y       z     vdW  Elec       q    Type
REMARK                         _______ _______ _______ _____ _____    ______ ____
ROOT
ATOM      1  C   UNL     1       1.397  -2.645   2.290  0.00  0.00    +0.103 C 
ENDROOT
BRANCH   1   2
ATOM      2  N   UNL     1       2.669  -2.160   1.739  0.00  0.00    -0.297 NA
ATOM      3  C   UNL     1       3.171  -1.010   2.504  0.00  0.00    +0.066 C 
ATOM      4  C   UNL     1       4.524  -0.575   1.937  0.00  0.00    -0.066 C 
ATOM      5  N   UNL     1       4.367  -0.212   0.522  0.00  0.00    +0.385 N 
ATOM      6  C   UNL     1       3.889  -1.378  -0.234  0.00  0.00    -0.023 C 
ATOM      7  C   UNL     1       2.531  -1.820   0.316  0.00  0.00    +0.074 C 
ATOM      8  H   UNL     1       3.699   0.539   0.439  0.00  0.00    -0.085 HD
ATOM      9  H   UNL     1       5.257   0.087   0.151  0.00  0.00    -0.085 HD
BRANCH   6  10
ATOM     10  C   UNL     1       3.747  -1.009  -1.688  0.00  0.00    -0.019 A 
ATOM     11  C   UNL     1       3.651   0.318  -2.059  0.00  0.00    +0.005 A 
ATOM     12  C   UNL     1       3.520   0.657  -3.393  0.00  0.00    +0.000 A 
ATOM     13  C   UNL     1       3.485  -0.332  -4.359  0.00  0.00    +0.004 A 
ATOM     14  C   UNL     1       3.581  -1.660  -3.994  0.00  0.00    +0.045 A 
ATOM     15  C   UNL     1       3.718  -2.002  -2.656  0.00  0.00    +0.118 A 
BRANCH  15  16
ATOM     16  O   UNL     1       3.818  -3.308  -2.294  0.00  0.00    -0.507 OA
ATOM     17  H   UNL     1       2.968  -3.733  -2.115  0.00  0.00    +0.292 HD
ENDBRANCH  15  16
ENDBRANCH   6  10
ENDBRANCH   1   2
BRANCH   1  18
ATOM     18  C   UNL     1       1.192  -4.083   1.891  0.00  0.00    -0.029 A 
ATOM     19  C   UNL     1       2.004  -4.657   0.930  0.00  0.00    +0.007 A 
ATOM     20  C   UNL     1       1.816  -5.976   0.564  0.00  0.00    +0.031 A 
ATOM     21  C   UNL     1       0.815  -6.723   1.158  0.00  0.00    +0.128 A 
ATOM     22  C   UNL     1       0.004  -6.150   2.119  0.00  0.00    +0.031 A 
ATOM     23  C   UNL     1       0.195  -4.831   2.489  0.00  0.00    +0.007 A 
BRANCH  21  24
ATOM     24  S   UNL     1       0.575  -8.404   0.690  0.00  0.00    +0.151 S 
ATOM     25  O   UNL     1      -0.775  -8.723   0.999  0.00  0.00    -0.131 OA
ATOM     26  O   UNL     1       1.109  -8.542  -0.619  0.00  0.00    -0.131 OA
BRANCH  24  27
ATOM     27  O   UNL     1       1.443  -9.255   1.607  0.00  0.00    -0.342 OA
BRANCH  27  28
ATOM     28  C   UNL     1       0.953  -9.385   2.868  0.00  0.00    +0.157 A 
ATOM     29  C   UNL     1       1.304  -8.468   3.848  0.00  0.00    +0.048 A 
ATOM     30  C   UNL     1       0.805  -8.602   5.128  0.00  0.00    +0.004 A 
ATOM     31  C   UNL     1      -0.043  -9.650   5.435  0.00  0.00    +0.000 A 
ATOM     32  C   UNL     1      -0.394 -10.566   4.460  0.00  0.00    +0.004 A 
ATOM     33  C   UNL     1       0.097 -10.433   3.176  0.00  0.00    +0.048 A 
ENDBRANCH  27  28
ENDBRANCH  24  27
ENDBRANCH  21  24
ENDBRANCH   1  18
BRANCH   1  34
ATOM     34  C   UNL     1       0.248  -1.795   1.743  0.00  0.00    +0.134 C 
BRANCH  34  35
ATOM     35  N   UNL     1       0.474  -0.385   2.089  0.00  0.00    -0.200 NA
ATOM     36  H   UNL     1       0.585  -0.271   3.086  0.00  0.00    +0.154 HD
BRANCH  35  38
ATOM     37  C   UNL     1      -0.452   1.847   1.883  0.00  0.00    +0.221 C 
ATOM     38  O   UNL     1      -0.608   0.459   1.581  0.00  0.00    -0.303 OA
ENDBRANCH  35  38
ENDBRANCH  34  35
ENDBRANCH   1  34
TORSDOF 10
