REMARK  Name = ZINC16548225
REMARK  10 active torsions:
REMARK  status: ('A' for Active; 'I' for Inactive)
REMARK    1  A    between atoms: C_1  and  C_2
REMARK    2  A    between atoms: C_4  and  C_31
REMARK    3  A    between atoms: C_5  and  N_9
REMARK    4  A    between atoms: C_13  and  S_15
REMARK    5  A    between atoms: S_15  and  C_16
REMARK    6  A    between atoms: C_16  and  C_17
REMARK    7  A    between atoms: N_19  and  C_20
REMARK    8  A    between atoms: N_19  and  C_25
REMARK    9  A    between atoms: C_20  and  C_21
REMARK   10  A    between atoms: C_21  and  C_22
REMARK                            x       y       z     vdW  Elec       q    Type
REMARK                         _______ _______ _______ _____ _____    ______ ____
ROOT
ATOM      1  S   UNL     1      -3.863  -1.900  -4.660  0.00  0.00    -0.088 S 
ENDROOT
BRANCH   1   6
ATOM      2  N   UNL     1       1.233   0.051  -6.618  0.00  0.00    -0.291 N 
ATOM      3  C   UNL     1       0.130  -0.627  -6.112  0.00  0.00    +0.187 A 
ATOM      4  N   UNL     1       0.037  -1.873  -5.689  0.00  0.00    -0.125 NA
ATOM      5  N   UNL     1      -1.165  -2.348  -5.218  0.00  0.00    -0.133 NA
ATOM      6  C   UNL     1      -2.221  -1.557  -5.200  0.00  0.00    +0.160 A 
ATOM      7  S   UNL     1      -1.540  -0.045  -5.862  0.00  0.00    -0.024 S 
ATOM      8  H   UNL     1       1.153   0.983  -6.876  0.00  0.00    +0.154 HD
BRANCH   2  13
ATOM      9  C   UNL     1       6.202  -2.629  -7.171  0.00  0.00    +0.044 C 
ATOM     10  C   UNL     1       4.882  -1.917  -7.024  0.00  0.00    -0.049 A 
ATOM     11  C   UNL     1       4.030  -1.811  -8.108  0.00  0.00    +0.008 A 
ATOM     12  C   UNL     1       2.817  -1.164  -7.976  0.00  0.00    -0.028 A 
ATOM     13  C   UNL     1       2.458  -0.609  -6.754  0.00  0.00    +0.054 A 
ATOM     14  C   UNL     1       3.316  -0.717  -5.666  0.00  0.00    +0.063 A 
ATOM     15  C   UNL     1       4.526  -1.371  -5.804  0.00  0.00    +0.025 A 
ATOM     16 CL   UNL     1       2.869  -0.030  -4.135  0.00  0.00    -0.082 Cl
ATOM     17  C   UNL     1       1.887  -1.055  -9.156  0.00  0.00    +0.046 C 
ENDBRANCH   2  13
ENDBRANCH   1   6
BRANCH   1  18
ATOM     18  C   UNL     1      -3.797  -3.631  -4.124  0.00  0.00    +0.172 C 
BRANCH  18  19
ATOM     19  C   UNL     1      -5.156  -4.058  -3.631  0.00  0.00    +0.230 C 
ATOM     20  O   UNL     1      -6.078  -3.271  -3.641  0.00  0.00    -0.274 OA
ATOM     21  N   UNL     1      -5.346  -5.313  -3.180  0.00  0.00    -0.270 N 
BRANCH  21  22
ATOM     22  C   UNL     1      -6.629  -5.741  -2.821  0.00  0.00    +0.036 A 
ATOM     23  C   UNL     1      -7.234  -5.240  -1.676  0.00  0.00    +0.023 A 
ATOM     24  C   UNL     1      -8.503  -5.660  -1.327  0.00  0.00    +0.002 A 
ATOM     25  C   UNL     1      -9.166  -6.586  -2.111  0.00  0.00    +0.000 A 
ATOM     26  C   UNL     1      -8.563  -7.092  -3.249  0.00  0.00    +0.002 A 
ATOM     27  C   UNL     1      -7.297  -6.672  -3.606  0.00  0.00    +0.023 A 
ENDBRANCH  21  22
BRANCH  21  28
ATOM     28  C   UNL     1      -4.209  -6.230  -3.065  0.00  0.00    +0.123 C 
BRANCH  28  29
ATOM     29  C   UNL     1      -3.586  -6.098  -1.674  0.00  0.00    +0.115 C 
BRANCH  29  30
ATOM     30  C   UNL     1      -2.416  -7.042  -1.556  0.00  0.00    +0.212 C 
ATOM     31  O   UNL     1      -2.111  -7.750  -2.492  0.00  0.00    -0.276 OA
ATOM     32  N   UNL     1      -1.709  -7.098  -0.410  0.00  0.00    -0.329 N 
ATOM     33  H   UNL     1      -1.953  -6.532   0.339  0.00  0.00    +0.145 HD
ATOM     34  H   UNL     1      -0.957  -7.705  -0.334  0.00  0.00    +0.145 HD
ENDBRANCH  29  30
ENDBRANCH  28  29
ENDBRANCH  21  28
ENDBRANCH  18  19
ENDBRANCH   1  18
TORSDOF 8
