REMARK  Name = ZINC64870881
REMARK  7 active torsions:
REMARK  status: ('A' for Active; 'I' for Inactive)
REMARK    1  A    between atoms: C_1  and  C_2
REMARK    2  A    between atoms: C_2  and  O_3
REMARK    3  A    between atoms: O_3  and  C_4
REMARK    4  A    between atoms: C_9  and  C_10
REMARK    5  A    between atoms: C_13  and  C_17
REMARK    6  A    between atoms: N_27  and  C_30
REMARK    7  A    between atoms: C_30  and  C_31
REMARK                            x       y       z     vdW  Elec       q    Type
REMARK                         _______ _______ _______ _____ _____    ______ ____
ROOT
ATOM      1  C   UNL     1       4.514  -0.873   5.785  0.00  0.00    -0.000 A 
ATOM      2  C   UNL     1       3.524  -1.142   6.718  0.00  0.00    +0.008 A 
ATOM      3  C   UNL     1       3.777  -1.001   8.066  0.00  0.00    +0.016 A 
ATOM      4  C   UNL     1       5.038  -0.585   8.487  0.00  0.00    +0.063 A 
ATOM      5  C   UNL     1       6.041  -0.312   7.541  0.00  0.00    +0.056 A 
ATOM      6  C   UNL     1       5.770  -0.466   6.190  0.00  0.00    +0.034 A 
ATOM      7  N   UNL     1       7.287   0.100   7.990  0.00  0.00    -0.307 N 
ATOM      8  H   UNL     1       7.989   0.292   7.349  0.00  0.00    +0.170 HD
ATOM      9  C   UNL     1       7.532   0.236   9.305  0.00  0.00    +0.330 A 
ATOM     10  O   UNL     1       8.637   0.600   9.656  0.00  0.00    -0.246 OA
ATOM     11  N   UNL     1       6.607  -0.011  10.246  0.00  0.00    -0.256 N 
ATOM     12  C   UNL     1       5.362  -0.418   9.915  0.00  0.00    +0.265 A 
ATOM     13  O   UNL     1       4.530  -0.640  10.774  0.00  0.00    -0.267 OA
ENDROOT
BRANCH   1  16
ATOM     14  C   UNL     1       2.055  -1.434   3.442  0.00  0.00    +0.184 C 
ATOM     15  N   UNL     1       3.201  -2.085   4.120  0.00  0.00    -0.265 NA
ATOM     16  C   UNL     1       4.219  -1.034   4.316  0.00  0.00    +0.242 C 
ATOM     17  O   UNL     1       3.675   0.189   3.786  0.00  0.00    -0.274 OA
ATOM     18  N   UNL     1       2.661  -0.239   2.796  0.00  0.00    -0.177 NA
ATOM     19  H   UNL     1       2.920  -2.485   5.002  0.00  0.00    +0.127 HD
ATOM     20  H   UNL     1       3.095  -0.483   1.918  0.00  0.00    +0.156 HD
BRANCH  14  26
ATOM     21  C   UNL     1       0.802  -1.824   1.306  0.00  0.00    +0.126 A 
ATOM     22  C   UNL     1       0.260  -2.673   0.351  0.00  0.00    +0.046 A 
ATOM     23  C   UNL     1       0.372  -4.041   0.501  0.00  0.00    +0.004 A 
ATOM     24  C   UNL     1       1.024  -4.566   1.602  0.00  0.00    +0.001 A 
ATOM     25  C   UNL     1       1.565  -3.723   2.555  0.00  0.00    +0.010 A 
ATOM     26  C   UNL     1       1.460  -2.353   2.406  0.00  0.00    +0.028 A 
BRANCH  21  27
ATOM     27  O   UNL     1       0.693  -0.477   1.160  0.00  0.00    -0.492 OA
BRANCH  27  29
ATOM     28  C   UNL     1      -0.019   1.526   0.010  0.00  0.00    +0.048 C 
ATOM     29  C   UNL     1       0.002  -0.004   0.002  0.00  0.00    +0.225 C 
ENDBRANCH  27  29
ENDBRANCH  21  27
ENDBRANCH  14  26
ENDBRANCH   1  16
BRANCH  11  30
ATOM     30  C   UNL     1       6.955   0.163  11.658  0.00  0.00    +0.168 C 
BRANCH  30  31
ATOM     31  C   UNL     1       6.649   1.576  12.081  0.00  0.00    +0.008 A 
ATOM     32  C   UNL     1       7.664   2.512  12.152  0.00  0.00    +0.008 A 
ATOM     33  C   UNL     1       7.383   3.809  12.540  0.00  0.00    +0.000 A 
ATOM     34  C   UNL     1       6.087   4.172  12.856  0.00  0.00    +0.003 A 
ATOM     35  C   UNL     1       5.071   3.238  12.785  0.00  0.00    +0.039 A 
ATOM     36  C   UNL     1       5.350   1.940  12.392  0.00  0.00    +0.128 A 
ATOM     37  F   UNL     1       4.356   1.028  12.317  0.00  0.00    -0.205 F 
ENDBRANCH  30  31
ENDBRANCH  11  30
TORSDOF 6
