REMARK  Name = ZINC36735100
REMARK  15 active torsions:
REMARK  status: ('A' for Active; 'I' for Inactive)
REMARK    1  A    between atoms: C_1  and  C_2
REMARK    2  A    between atoms: C_4  and  C_13
REMARK    3  A    between atoms: C_5  and  C_12
REMARK    4  A    between atoms: N_6  and  C_7
REMARK    5  A    between atoms: C_7  and  C_8
REMARK    6  A    between atoms: C_8  and  C_9
REMARK    7  A    between atoms: C_9  and  C_10
REMARK    8  A    between atoms: C_9  and  C_11
REMARK    9  A    between atoms: C_14  and  C_15
REMARK   10  A    between atoms: C_14  and  C_17
REMARK   11  A    between atoms: C_17  and  O_19
REMARK   12  A    between atoms: O_19  and  C_20
REMARK   13  A    between atoms: C_20  and  C_21
REMARK   14  A    between atoms: N_23  and  C_24
REMARK   15  A    between atoms: C_27  and  N_31
REMARK                            x       y       z     vdW  Elec       q    Type
REMARK                         _______ _______ _______ _____ _____    ______ ____
ROOT
ATOM      1  C   UNL     1      -0.688  -4.606  -3.414  0.00  0.00    +0.350 C 
ATOM      2  O   UNL     1      -0.134  -5.609  -3.008  0.00  0.00    -0.244 OA
ENDROOT
BRANCH   1   4
ATOM      3  C   UNL     1       0.101  -3.325  -1.457  0.00  0.00    +0.035 C 
ATOM      4  C   UNL     1      -0.606  -3.359  -2.644  0.00  0.00    +0.136 C 
BRANCH   3   8
ATOM      5  C   UNL     1       0.024   1.521  -0.034  0.00  0.00    +0.063 C 
ATOM      6  C   UNL     1       0.062   0.014  -0.039  0.00  0.00    +0.016 A 
ATOM      7  C   UNL     1       0.046  -0.761  -1.136  0.00  0.00    +0.030 A 
ATOM      8  C   UNL     1       0.097  -2.151  -0.662  0.00  0.00    -0.003 A 
ATOM      9  C   UNL     1       0.140  -2.078   0.720  0.00  0.00    +0.023 A 
ATOM     10  N   UNL     1       0.123  -0.779   1.071  0.00  0.00    -0.348 N 
ATOM     11  C   UNL     1       0.200  -3.249   1.667  0.00  0.00    +0.064 C 
BRANCH  10  12
ATOM     12  C   UNL     1       0.161  -0.285   2.450  0.00  0.00    +0.122 C 
BRANCH  12  13
ATOM     13  C   UNL     1      -1.267  -0.151   2.983  0.00  0.00    +0.024 C 
BRANCH  13  14
ATOM     14  C   UNL     1      -1.227   0.365   4.423  0.00  0.00    -0.016 C 
ATOM     15  C   UNL     1      -0.653   1.783   4.441  0.00  0.00    +0.007 C 
ATOM     16  C   UNL     1      -2.645   0.381   4.998  0.00  0.00    +0.007 C 
ENDBRANCH  13  14
ENDBRANCH  12  13
ENDBRANCH  10  12
ENDBRANCH   3   8
BRANCH   4  17
ATOM     17  C   UNL     1      -1.259  -2.177  -3.122  0.00  0.00    +0.106 C 
ATOM     18  N   UNL     1      -1.776  -1.240  -3.502  0.00  0.00    -0.191 NA
ENDBRANCH   4  17
ENDBRANCH   1   4
BRANCH   1  19
ATOM     19  O   UNL     1      -1.378  -4.638  -4.572  0.00  0.00    -0.451 OA
BRANCH  19  20
ATOM     20  C   UNL     1      -1.416  -5.885  -5.270  0.00  0.00    +0.328 C 
BRANCH  20  21
ATOM     21  C   UNL     1      -2.226  -5.730  -6.531  0.00  0.00    +0.255 C 
ATOM     22  O   UNL     1      -2.722  -4.658  -6.806  0.00  0.00    -0.272 OA
ATOM     23  N   UNL     1      -2.399  -6.784  -7.354  0.00  0.00    -0.281 N 
ATOM     24  H   UNL     1      -2.077  -7.660  -7.094  0.00  0.00    +0.155 HD
BRANCH  23  25
ATOM     25  C   UNL     1      -3.045  -6.612  -8.584  0.00  0.00    +0.052 A 
ATOM     26  C   UNL     1      -3.053  -5.366  -9.198  0.00  0.00    +0.027 A 
ATOM     27  C   UNL     1      -3.691  -5.200 -10.412  0.00  0.00    +0.034 A 
ATOM     28  C   UNL     1      -4.321  -6.272 -11.017  0.00  0.00    +0.128 A 
ATOM     29  C   UNL     1      -4.316  -7.514 -10.409  0.00  0.00    +0.054 A 
ATOM     30  C   UNL     1      -3.675  -7.689  -9.197  0.00  0.00    +0.064 A 
ATOM     31 CL   UNL     1      -3.662  -9.250  -8.437  0.00  0.00    -0.082 Cl
BRANCH  28  32
ATOM     32  N   UNL     1      -5.004  -6.090 -12.317  0.00  0.00    +0.056 N 
ATOM     33  O   UNL     1      -5.010  -5.005 -12.850  0.00  0.00    -0.126 OA
ATOM     34  O   UNL     1      -5.555  -7.026 -12.847  0.00  0.00    -0.126 OA
ENDBRANCH  28  32
ENDBRANCH  23  25
ENDBRANCH  20  21
ENDBRANCH  19  20
ENDBRANCH   1  19
TORSDOF 11
