REMARK  Name = ZINC29585614
REMARK  6 active torsions:
REMARK  status: ('A' for Active; 'I' for Inactive)
REMARK    1  A    between atoms: C_1  and  C_2
REMARK    2  A    between atoms: C_2  and  N_3
REMARK    3  A    between atoms: N_6  and  C_9
REMARK    4  A    between atoms: C_9  and  C_10
REMARK    5  A    between atoms: C_10  and  N_11
REMARK    6  A    between atoms: C_19  and  C_21
REMARK                            x       y       z     vdW  Elec       q    Type
REMARK                         _______ _______ _______ _____ _____    ______ ____
ROOT
ATOM      1  N   UNL     1       2.116  -4.628   5.982  0.00  0.00    -0.327 N 
ATOM      2  C   UNL     1       2.172  -5.991   6.210  0.00  0.00    +0.131 A 
ATOM      3  C   UNL     1       2.901  -6.506   7.319  0.00  0.00    +0.051 A 
ATOM      4  C   UNL     1       3.660  -5.774   8.334  0.00  0.00    -0.025 A 
ATOM      5  C   UNL     1       4.266  -6.506   9.291  0.00  0.00    -0.004 A 
ATOM      6  S   UNL     1       3.869  -8.191   8.908  0.00  0.00    -0.073 S 
ATOM      7  C   UNL     1       2.888  -7.910   7.456  0.00  0.00    +0.114 A 
ATOM      8  N   UNL     1       2.243  -8.681   6.605  0.00  0.00    -0.220 NA
ATOM      9  C   UNL     1       1.581  -8.146   5.588  0.00  0.00    +0.164 A 
ATOM     10  N   UNL     1       1.545  -6.829   5.404  0.00  0.00    -0.212 NA
ATOM     11  C   UNL     1       5.097  -6.000  10.431  0.00  0.00    +0.043 C 
ATOM     12  C   UNL     1       5.473  -4.539  10.145  0.00  0.00    +0.005 C 
ATOM     13  C   UNL     1       4.213  -3.783   9.714  0.00  0.00    +0.005 C 
ATOM     14  C   UNL     1       3.775  -4.252   8.326  0.00  0.00    +0.037 C 
ATOM     15  H   UNL     1       2.641  -4.022   6.529  0.00  0.00    +0.148 HD
ENDROOT
BRANCH   9  16
ATOM     16  C   UNL     1       0.862  -9.032   4.641  0.00  0.00    +0.037 A 
ATOM     17  C   UNL     1       0.873 -10.419   4.818  0.00  0.00    +0.014 A 
ATOM     18  C   UNL     1       0.186 -11.202   3.908  0.00  0.00    +0.020 A 
ATOM     19  C   UNL     1      -0.484 -10.594   2.861  0.00  0.00    +0.111 A 
ATOM     20  N   UNL     1      -0.477  -9.283   2.720  0.00  0.00    -0.263 NA
ATOM     21  C   UNL     1       0.159  -8.496   3.564  0.00  0.00    +0.122 A 
ENDBRANCH   9  16
BRANCH   1  22
ATOM     22  C   UNL     1       1.263  -4.098   4.915  0.00  0.00    +0.118 C 
BRANCH  22  23
ATOM     23  C   UNL     1       1.384  -2.573   4.875  0.00  0.00    +0.103 C 
BRANCH  23  27
ATOM     24  N   UNL     1       0.001  -0.472   1.478  0.00  0.00    +0.381 N 
ATOM     25  C   UNL     1      -0.512  -0.070   2.795  0.00  0.00    -0.063 C 
ATOM     26  C   UNL     1       0.432  -0.577   3.887  0.00  0.00    +0.066 C 
ATOM     27  N   UNL     1       0.529  -2.042   3.806  0.00  0.00    -0.304 NA
ATOM     28  C   UNL     1       1.018  -2.460   2.484  0.00  0.00    +0.066 C 
ATOM     29  C   UNL     1       0.069  -1.937   1.403  0.00  0.00    -0.063 C 
ATOM     30  H   UNL     1       0.923  -0.086   1.345  0.00  0.00    -0.082 HD
BRANCH  24  32
ATOM     31  C   UNL     1      -0.871   1.560   0.426  0.00  0.00    -0.017 C 
ATOM     32  C   UNL     1      -0.896   0.030   0.429  0.00  0.00    -0.082 C 
ENDBRANCH  24  32
ENDBRANCH  23  27
ENDBRANCH  22  23
ENDBRANCH   1  22
TORSDOF 5
