REMARK  Name = ZINC00782199
REMARK  13 active torsions:
REMARK  status: ('A' for Active; 'I' for Inactive)
REMARK    1  A    between atoms: C_1  and  C_2
REMARK    2  A    between atoms: C_2  and  C_3
REMARK    3  A    between atoms: C_3  and  C_4
REMARK    4  A    between atoms: C_3  and  C_5
REMARK    5  A    between atoms: C_3  and  N_6
REMARK    6  A    between atoms: C_7  and  C_11
REMARK    7  A    between atoms: C_11  and  C_13
REMARK    8  A    between atoms: C_11  and  N_26
REMARK    9  A    between atoms: C_18  and  C_25
REMARK   10  A    between atoms: N_26  and  C_27
REMARK   11  A    between atoms: N_26  and  C_33
REMARK   12  A    between atoms: C_27  and  C_28
REMARK   13  A    between atoms: C_33  and  C_34
REMARK                            x       y       z     vdW  Elec       q    Type
REMARK                         _______ _______ _______ _____ _____    ______ ____
ROOT
ATOM      1  C   UNL     1       2.209  -2.164  -3.497  0.00  0.00    +0.163 C 
ENDROOT
BRANCH   1   2
ATOM      2  C   UNL     1       3.706  -2.240  -3.337  0.00  0.00    +0.042 A 
ATOM      3  C   UNL     1       4.450  -1.109  -3.402  0.00  0.00    +0.021 A 
ATOM      4  C   UNL     1       5.902  -1.216  -3.242  0.00  0.00    -0.001 A 
ATOM      5  C   UNL     1       6.722  -0.085  -3.299  0.00  0.00    +0.010 A 
ATOM      6  C   UNL     1       8.073  -0.219  -3.146  0.00  0.00    +0.004 A 
ATOM      7  C   UNL     1       8.639  -1.469  -2.935  0.00  0.00    -0.048 A 
ATOM      8  C   UNL     1       7.850  -2.598  -2.876  0.00  0.00    +0.029 A 
ATOM      9  C   UNL     1       6.472  -2.486  -3.029  0.00  0.00    +0.049 A 
ATOM     10  N   UNL     1       5.659  -3.598  -2.973  0.00  0.00    -0.322 N 
ATOM     11  H   UNL     1       6.054  -4.471  -2.826  0.00  0.00    +0.169 HD
ATOM     12  C   UNL     1       4.327  -3.488  -3.115  0.00  0.00    +0.254 A 
ATOM     13  O   UNL     1       3.638  -4.492  -3.056  0.00  0.00    -0.268 OA
ATOM     14  C   UNL     1      10.132  -1.594  -2.770  0.00  0.00    +0.044 C 
ENDBRANCH   1   2
BRANCH   1  16
ATOM     15  N   UNL     1       0.867  -1.769  -1.364  0.00  0.00    -0.222 N 
ATOM     16  C   UNL     1       1.545  -2.571  -2.207  0.00  0.00    +0.174 A 
ATOM     17  N   UNL     1       1.515  -3.774  -1.687  0.00  0.00    -0.111 NA
ATOM     18  N   UNL     1       0.853  -3.714  -0.584  0.00  0.00    -0.023 NA
ATOM     19  N   UNL     1       0.465  -2.503  -0.383  0.00  0.00    -0.043 NA
BRANCH  15  20
ATOM     20  C   UNL     1       0.634  -0.332  -1.528  0.00  0.00    +0.062 C 
ATOM     21  C   UNL     1      -0.193  -0.090  -2.793  0.00  0.00    +0.036 C 
ATOM     22  C   UNL     1       1.977   0.391  -1.651  0.00  0.00    +0.036 C 
BRANCH  20  24
ATOM     23  C   UNL     1      -0.367   1.705  -0.484  0.00  0.00    +0.006 C 
ATOM     24  C   UNL     1      -0.124   0.204  -0.313  0.00  0.00    +0.026 C 
ENDBRANCH  20  24
ENDBRANCH  15  20
ENDBRANCH   1  16
BRANCH   1  25
ATOM     25  N   UNL     1       1.785  -3.069  -4.573  0.00  0.00    -0.282 NA
BRANCH  25  26
ATOM     26  C   UNL     1       2.660  -2.940  -5.745  0.00  0.00    +0.128 C 
BRANCH  26  27
ATOM     27  C   UNL     1       2.301  -3.996  -6.759  0.00  0.00    +0.004 A 
ATOM     28  C   UNL     1       1.486  -3.901  -7.838  0.00  0.00    +0.012 A 
ATOM     29  C   UNL     1       1.302  -5.012  -8.639  0.00  0.00    +0.008 A 
ATOM     30  C   UNL     1       1.941  -6.165  -8.321  0.00  0.00    +0.045 A 
ATOM     31  S   UNL     1       2.844  -5.694  -6.855  0.00  0.00    -0.100 S 
ENDBRANCH  26  27
ENDBRANCH  25  26
BRANCH  25  32
ATOM     32  C   UNL     1       0.381  -2.834  -4.935  0.00  0.00    +0.117 C 
BRANCH  32  33
ATOM     33  C   UNL     1      -0.531  -3.480  -3.890  0.00  0.00    +0.132 C 
ATOM     34  C   UNL     1      -2.010  -3.407  -4.347  0.00  0.00    +0.035 C 
ATOM     35  C   UNL     1      -2.619  -4.602  -3.565  0.00  0.00    +0.031 C 
ATOM     36  C   UNL     1      -1.454  -5.614  -3.553  0.00  0.00    +0.160 C 
ATOM     37  O   UNL     1      -0.241  -4.883  -3.774  0.00  0.00    -0.375 OA
ENDBRANCH  32  33
ENDBRANCH  25  32
ENDBRANCH   1  25
TORSDOF 9
