REMARK  Name = ZINC08682603
REMARK  10 active torsions:
REMARK  status: ('A' for Active; 'I' for Inactive)
REMARK    1  A    between atoms: C_1  and  C_2
REMARK    2  A    between atoms: C_2  and  O_3
REMARK    3  A    between atoms: O_3  and  C_4
REMARK    4  A    between atoms: C_7  and  C_10
REMARK    5  A    between atoms: N_11  and  N_12
REMARK    6  A    between atoms: C_13  and  C_15
REMARK    7  A    between atoms: C_16  and  C_26
REMARK    8  A    between atoms: C_29  and  O_32
REMARK    9  A    between atoms: O_32  and  C_33
REMARK   10  A    between atoms: C_33  and  C_34
REMARK                            x       y       z     vdW  Elec       q    Type
REMARK                         _______ _______ _______ _____ _____    ______ ____
ROOT
ATOM      1  C   UNL     1       2.617  -9.883   4.176  0.00  0.00    +0.177 A 
ATOM      2  C   UNL     1       3.238 -10.543   5.232  0.00  0.00    +0.109 A 
ATOM      3  N   UNL     1       3.112 -11.879   4.973  0.00  0.00    -0.187 N 
ATOM      4  N   UNL     1       2.414 -11.989   3.762  0.00  0.00    -0.058 NA
ATOM      5  N   UNL     1       2.138 -10.809   3.329  0.00  0.00    -0.124 NA
ATOM      6  C   UNL     1       3.586 -12.931   5.762  0.00  0.00    +0.241 A 
ATOM      7  C   UNL     1       3.445 -14.359   5.463  0.00  0.00    +0.206 A 
ATOM      8  N   UNL     1       4.010 -15.037   6.423  0.00  0.00    -0.032 NA
ATOM      9  O   UNL     1       4.529 -14.111   7.361  0.00  0.00    -0.239 OA
ATOM     10  N   UNL     1       4.235 -12.809   6.886  0.00  0.00    -0.027 NA
ATOM     11  N   UNL     1       2.815 -14.898   4.347  0.00  0.00    -0.337 N 
ATOM     12  H   UNL     1       2.421 -14.312   3.682  0.00  0.00    +0.144 HD
ATOM     13  H   UNL     1       2.770 -15.861   4.233  0.00  0.00    +0.144 HD
ENDROOT
BRANCH   2  14
ATOM     14  C   UNL     1       3.901  -9.924   6.397  0.00  0.00    +0.003 A 
ATOM     15  C   UNL     1       3.670 -10.423   7.681  0.00  0.00    +0.013 A 
ATOM     16  C   UNL     1       4.291  -9.843   8.765  0.00  0.00    +0.046 A 
ATOM     17  C   UNL     1       5.146  -8.763   8.583  0.00  0.00    +0.121 A 
ATOM     18  C   UNL     1       5.379  -8.264   7.308  0.00  0.00    +0.046 A 
ATOM     19  C   UNL     1       4.767  -8.842   6.217  0.00  0.00    +0.013 A 
BRANCH  17  20
ATOM     20  O   UNL     1       5.756  -8.194   9.655  0.00  0.00    -0.492 OA
BRANCH  20  21
ATOM     21  C   UNL     1       6.622  -7.087   9.396  0.00  0.00    +0.225 C 
ATOM     22  C   UNL     1       7.213  -6.583  10.714  0.00  0.00    +0.048 C 
ENDBRANCH  20  21
ENDBRANCH  17  20
ENDBRANCH   2  14
BRANCH   1  24
ATOM     23  N   UNL     1       1.865  -7.913   2.946  0.00  0.00    -0.202 N 
ATOM     24  C   UNL     1       2.500  -8.425   4.018  0.00  0.00    +0.286 C 
ATOM     25  O   UNL     1       2.976  -7.682   4.856  0.00  0.00    -0.267 OA
ATOM     26  H   UNL     1       1.485  -8.505   2.278  0.00  0.00    +0.178 HD
BRANCH  23  28
ATOM     27  C   UNL     1       1.141  -6.031   1.762  0.00  0.00    +0.138 C 
ATOM     28  N   UNL     1       1.753  -6.524   2.795  0.00  0.00    -0.187 NA
BRANCH  27  32
ATOM     29  C   UNL     1       0.802  -1.824   1.306  0.00  0.00    +0.121 A 
ATOM     30  C   UNL     1       0.258  -2.670   0.348  0.00  0.00    +0.046 A 
ATOM     31  C   UNL     1       0.366  -4.036   0.492  0.00  0.00    +0.013 A 
ATOM     32  C   UNL     1       1.024  -4.570   1.603  0.00  0.00    -0.005 A 
ATOM     33  C   UNL     1       1.570  -3.715   2.564  0.00  0.00    +0.013 A 
ATOM     34  C   UNL     1       1.462  -2.349   2.409  0.00  0.00    +0.046 A 
BRANCH  29  35
ATOM     35  O   UNL     1       0.693  -0.477   1.160  0.00  0.00    -0.492 OA
BRANCH  35  37
ATOM     36  C   UNL     1      -0.019   1.526   0.010  0.00  0.00    +0.048 C 
ATOM     37  C   UNL     1       0.002  -0.004   0.002  0.00  0.00    +0.225 C 
ENDBRANCH  35  37
ENDBRANCH  29  35
ENDBRANCH  27  32
ENDBRANCH  23  28
ENDBRANCH   1  24
TORSDOF 8
