REMARK  Name = ZINC05214860
REMARK  6 active torsions:
REMARK  status: ('A' for Active; 'I' for Inactive)
REMARK    1  A    between atoms: C_1  and  O_2
REMARK    2  A    between atoms: O_2  and  C_3
REMARK    3  A    between atoms: C_6  and  N_9
REMARK    4  A    between atoms: C_13  and  C_14
REMARK    5  A    between atoms: C_15  and  C_16
REMARK    6  A    between atoms: C_19  and  N_22
REMARK                            x       y       z     vdW  Elec       q    Type
REMARK                         _______ _______ _______ _____ _____    ______ ____
ROOT
ATOM      1  N   UNL     1       1.155   2.080   0.002  0.00  0.00    -0.224 N 
ATOM      2  C   UNL     1       0.094   1.465   0.495  0.00  0.00    +0.263 C 
ATOM      3  O   UNL     1      -0.850   2.084   0.950  0.00  0.00    -0.269 OA
ATOM      4  C   UNL     1       0.107  -0.009   0.459  0.00  0.00    +0.077 C 
ATOM      5  C   UNL     1      -0.835  -0.899   0.888  0.00  0.00    +0.020 C 
ATOM      6  S   UNL     1       1.696  -0.312  -0.303  0.00  0.00    -0.061 S 
ATOM      7  C   UNL     1       2.197   1.390  -0.507  0.00  0.00    +0.125 C 
ATOM      8  S   UNL     1       3.647   1.998  -1.183  0.00  0.00    -0.027 S 
ENDROOT
BRANCH   1  12
ATOM      9  C   UNL     1       1.287   6.249   0.022  0.00  0.00    +0.120 A 
ATOM     10  C   UNL     1       0.748   5.578  -1.065  0.00  0.00    +0.047 A 
ATOM     11  C   UNL     1       0.704   4.198  -1.073  0.00  0.00    +0.027 A 
ATOM     12  C   UNL     1       1.200   3.482   0.009  0.00  0.00    +0.043 A 
ATOM     13  C   UNL     1       1.734   4.155   1.099  0.00  0.00    +0.027 A 
ATOM     14  C   UNL     1       1.782   5.535   1.103  0.00  0.00    +0.047 A 
BRANCH   9  16
ATOM     15  C   UNL     1       1.898   8.234   1.181  0.00  0.00    +0.277 C 
ATOM     16  O   UNL     1       1.329   7.608   0.029  0.00  0.00    -0.495 OA
ENDBRANCH   9  16
ENDBRANCH   1  12
BRANCH   5  17
ATOM     17  C   UNL     1      -0.610  -2.283   0.754  0.00  0.00    +0.002 C 
ATOM     18  C   UNL     1      -1.544  -3.165   1.180  0.00  0.00    +0.008 C 
BRANCH  18  19
ATOM     19  C   UNL     1      -1.310  -4.610   1.040  0.00  0.00    -0.025 A 
ATOM     20  C   UNL     1      -0.125  -5.077   0.461  0.00  0.00    +0.010 A 
ATOM     21  C   UNL     1       0.090  -6.433   0.337  0.00  0.00    +0.033 A 
ATOM     22  C   UNL     1      -0.868  -7.332   0.775  0.00  0.00    +0.126 A 
ATOM     23  C   UNL     1      -2.045  -6.878   1.344  0.00  0.00    +0.033 A 
ATOM     24  C   UNL     1      -2.273  -5.525   1.479  0.00  0.00    +0.010 A 
BRANCH  22  25
ATOM     25  N   UNL     1      -0.631  -8.789   0.633  0.00  0.00    +0.056 N 
ATOM     26  O   UNL     1      -1.472  -9.583   1.017  0.00  0.00    -0.126 OA
ATOM     27  O   UNL     1       0.404  -9.193   0.133  0.00  0.00    -0.126 OA
ENDBRANCH  22  25
ENDBRANCH  18  19
ENDBRANCH   5  17
TORSDOF 5
