REMARK  Name = ZINC13850515
REMARK  11 active torsions:
REMARK  status: ('A' for Active; 'I' for Inactive)
REMARK    1  A    between atoms: C_1  and  C_2
REMARK    2  A    between atoms: C_3  and  C_26
REMARK    3  A    between atoms: C_4  and  C_25
REMARK    4  A    between atoms: C_5  and  S_10
REMARK    5  A    between atoms: C_6  and  C_9
REMARK    6  A    between atoms: C_7  and  C_8
REMARK    7  A    between atoms: S_10  and  N_13
REMARK    8  A    between atoms: N_13  and  C_14
REMARK    9  A    between atoms: C_17  and  C_20
REMARK   10  A    between atoms: C_20  and  C_21
REMARK   11  A    between atoms: N_23  and  C_24
REMARK                            x       y       z     vdW  Elec       q    Type
REMARK                         _______ _______ _______ _____ _____    ______ ____
ROOT
ATOM      1  S   UNL     1       2.093  -2.735  -0.915  0.00  0.00    +0.073 S 
ATOM      2  O   UNL     1       1.921  -4.107  -1.241  0.00  0.00    -0.150 OA
ATOM      3  O   UNL     1       1.667  -1.688  -1.776  0.00  0.00    -0.150 OA
ENDROOT
BRANCH   1   8
ATOM      4  C   UNL     1       7.997  -1.911   0.015  0.00  0.00    +0.044 C 
ATOM      5  C   UNL     1       6.523  -2.117  -0.217  0.00  0.00    -0.044 A 
ATOM      6  C   UNL     1       5.881  -3.208   0.339  0.00  0.00    -0.043 A 
ATOM      7  C   UNL     1       4.528  -3.397   0.126  0.00  0.00    -0.020 A 
ATOM      8  C   UNL     1       3.817  -2.494  -0.643  0.00  0.00    +0.115 A 
ATOM      9  C   UNL     1       4.460  -1.406  -1.203  0.00  0.00    -0.020 A 
ATOM     10  C   UNL     1       5.811  -1.215  -0.986  0.00  0.00    -0.043 A 
ATOM     11  C   UNL     1       6.511  -0.026  -1.592  0.00  0.00    +0.044 C 
ATOM     12  C   UNL     1       3.686  -0.426  -2.046  0.00  0.00    +0.046 C 
ATOM     13  C   UNL     1       3.829  -4.587   0.731  0.00  0.00    +0.046 C 
ATOM     14  C   UNL     1       6.656  -4.192   1.177  0.00  0.00    +0.044 C 
ENDBRANCH   1   8
BRANCH   1  15
ATOM     15  N   UNL     1       1.330  -2.494   0.536  0.00  0.00    -0.216 N 
ATOM     16  H   UNL     1       0.896  -3.237   0.985  0.00  0.00    +0.174 HD
BRANCH  15  17
ATOM     17  C   UNL     1       1.312  -1.222   1.112  0.00  0.00    +0.048 A 
ATOM     18  C   UNL     1       0.128  -0.707   1.624  0.00  0.00    +0.025 A 
ATOM     19  C   UNL     1       0.113   0.551   2.194  0.00  0.00    +0.006 A 
ATOM     20  C   UNL     1       1.276   1.297   2.256  0.00  0.00    -0.039 A 
ATOM     21  C   UNL     1       2.457   0.787   1.747  0.00  0.00    +0.006 A 
ATOM     22  C   UNL     1       2.478  -0.470   1.176  0.00  0.00    +0.025 A 
BRANCH  20  23
ATOM     23  C   UNL     1       1.256   2.669   2.878  0.00  0.00    +0.130 C 
BRANCH  23  24
ATOM     24  C   UNL     1       1.548   2.557   4.352  0.00  0.00    +0.217 C 
ATOM     25  O   UNL     1       1.752   1.469   4.848  0.00  0.00    -0.275 OA
ATOM     26  N   UNL     1       1.583   3.665   5.119  0.00  0.00    -0.318 N 
ATOM     27  C   UNL     1       1.867   3.555   6.552  0.00  0.00    +0.128 C 
ATOM     28  H   UNL     1       1.419   4.534   4.722  0.00  0.00    +0.148 HD
ENDBRANCH  23  24
ENDBRANCH  20  23
ENDBRANCH  15  17
ENDBRANCH   1  15
TORSDOF 5
