REMARK  Name = ZINC11816212
REMARK  9 active torsions:
REMARK  status: ('A' for Active; 'I' for Inactive)
REMARK    1  A    between atoms: C_1  and  N_68
REMARK    2  A    between atoms: C_2  and  C_3
REMARK    3  A    between atoms: C_2  and  N_68
REMARK    4  A    between atoms: C_7  and  O_9
REMARK    5  A    between atoms: O_9  and  C_10
REMARK    6  A    between atoms: C_16  and  C_18
REMARK    7  A    between atoms: C_22  and  N_24
REMARK    8  A    between atoms: C_30  and  C_31
REMARK    9  A    between atoms: C_30  and  N_68
REMARK                            x       y       z     vdW  Elec       q    Type
REMARK                         _______ _______ _______ _____ _____    ______ ____
ROOT
ATOM      1  C   UNL     1       1.343   4.657   1.407  0.00  0.00    +0.176 C 
ATOM      2  C   UNL     1       2.357   4.656   2.554  0.00  0.00    +0.063 C 
ATOM      3  C   UNL     1       3.739   5.026   2.008  0.00  0.00    +0.111 C 
ATOM      4  N   UNL     1       3.639   6.305   1.293  0.00  0.00    -0.297 N 
ATOM      5  C   UNL     1       2.632   6.444   0.232  0.00  0.00    +0.111 C 
ATOM      6  C   UNL     1       1.262   6.058   0.797  0.00  0.00    +0.063 C 
ATOM      7  C   UNL     1       4.454   7.332   1.605  0.00  0.00    +0.247 C 
ATOM      8  O   UNL     1       5.305   7.194   2.461  0.00  0.00    -0.270 OA
ENDROOT
BRANCH   7   9
ATOM      9  C   UNL     1       4.312   8.627   0.906  0.00  0.00    +0.039 A 
ATOM     10  C   UNL     1       3.907   8.662  -0.430  0.00  0.00    +0.013 A 
ATOM     11  C   UNL     1       3.771   9.872  -1.078  0.00  0.00    +0.003 A 
ATOM     12  C   UNL     1       4.044  11.053  -0.413  0.00  0.00    +0.023 A 
ATOM     13  C   UNL     1       4.452  11.029   0.915  0.00  0.00    +0.039 A 
ATOM     14  C   UNL     1       4.587   9.818   1.577  0.00  0.00    +0.036 A 
BRANCH  13  15
ATOM     15  N   UNL     1       4.727  12.227   1.584  0.00  0.00    -0.254 N 
ATOM     16  C   UNL     1       4.511  13.576   1.040  0.00  0.00    +0.134 C 
ATOM     17  C   UNL     1       4.970  14.511   2.176  0.00  0.00    +0.125 C 
ATOM     18  N   UNL     1       5.405  13.589   3.236  0.00  0.00    -0.297 N 
ATOM     19  C   UNL     1       5.234  12.327   2.820  0.00  0.00    +0.307 C 
ATOM     20  O   UNL     1       5.513  11.361   3.502  0.00  0.00    -0.252 OA
ATOM     21  H   UNL     1       5.759  13.853   4.100  0.00  0.00    +0.150 HD
ENDBRANCH  13  15
ENDBRANCH   7   9
BRANCH   1  22
ATOM     22  O   UNL     1       0.058   4.280   1.907  0.00  0.00    -0.489 OA
BRANCH  22  27
ATOM     23  C   UNL     1      -1.639   1.161   2.699  0.00  0.00    -0.060 A 
ATOM     24  C   UNL     1      -0.704   0.241   2.261  0.00  0.00    +0.002 A 
ATOM     25  C   UNL     1       0.486   0.673   1.705  0.00  0.00    +0.004 A 
ATOM     26  C   UNL     1       0.743   2.025   1.585  0.00  0.00    +0.045 A 
ATOM     27  C   UNL     1      -0.193   2.950   2.024  0.00  0.00    +0.121 A 
ATOM     28  C   UNL     1      -1.386   2.514   2.582  0.00  0.00    +0.047 A 
BRANCH  23  29
ATOM     29  C   UNL     1      -2.935   0.687   3.304  0.00  0.00    -0.043 C 
BRANCH  29  31
ATOM     30  C   UNL     1      -4.288   1.834   1.656  0.00  0.00    -0.095 C 
ATOM     31  N   UNL     1      -3.932   0.518   2.226  0.00  0.00    +0.384 N 
ATOM     32  H   UNL     1      -3.526  -0.067   1.486  0.00  0.00    -0.081 HD
BRANCH  31  33
ATOM     33  C   UNL     1      -5.141  -0.147   2.755  0.00  0.00    -0.036 C 
BRANCH  33  34
ATOM     34  C   UNL     1      -6.042  -0.505   1.602  0.00  0.00    -0.027 A 
ATOM     35  C   UNL     1      -6.061  -1.634   0.851  0.00  0.00    +0.009 A 
ATOM     36  C   UNL     1      -6.991  -1.747  -0.166  0.00  0.00    +0.008 A 
ATOM     37  C   UNL     1      -7.849  -0.722  -0.389  0.00  0.00    +0.045 A 
ATOM     38  S   UNL     1      -7.358   0.450   0.865  0.00  0.00    -0.103 S 
ENDBRANCH  33  34
ENDBRANCH  31  33
ENDBRANCH  29  31
ENDBRANCH  23  29
ENDBRANCH  22  27
ENDBRANCH   1  22
TORSDOF 8
