REMARK  Name = ZINC28985868
REMARK  12 active torsions:
REMARK  status: ('A' for Active; 'I' for Inactive)
REMARK    1  A    between atoms: C_1  and  C_2
REMARK    2  A    between atoms: C_2  and  C_4
REMARK    3  A    between atoms: C_2  and  O_17
REMARK    4  A    between atoms: N_6  and  C_7
REMARK    5  A    between atoms: N_6  and  C_11
REMARK    6  A    between atoms: C_7  and  C_8
REMARK    7  A    between atoms: C_8  and  C_9
REMARK    8  A    between atoms: O_17  and  C_18
REMARK    9  A    between atoms: C_18  and  C_20
REMARK   10  A    between atoms: C_20  and  C_21
REMARK   11  A    between atoms: C_21  and  N_22
REMARK   12  A    between atoms: N_29  and  C_32
REMARK                            x       y       z     vdW  Elec       q    Type
REMARK                         _______ _______ _______ _____ _____    ______ ____
ROOT
ATOM      1  O   UNL     1      -0.864  -3.174   2.015  0.00  0.00    -0.452 OA
ENDROOT
BRANCH   1   3
ATOM      2  C   UNL     1       1.043  -4.681   2.154  0.00  0.00    +0.062 C 
ATOM      3  C   UNL     1      -0.468  -4.531   2.344  0.00  0.00    +0.259 C 
BRANCH   3   4
ATOM      4  C   UNL     1      -0.825  -4.825   3.778  0.00  0.00    +0.260 C 
ATOM      5  O   UNL     1      -1.206  -3.931   4.504  0.00  0.00    -0.271 OA
ATOM      6  N   UNL     1      -0.722  -6.081   4.255  0.00  0.00    -0.267 N 
BRANCH   6   7
ATOM      7  C   UNL     1      -1.192  -6.384   5.537  0.00  0.00    +0.036 A 
ATOM      8  C   UNL     1      -0.951  -7.635   6.089  0.00  0.00    +0.023 A 
ATOM      9  C   UNL     1      -1.412  -7.929   7.358  0.00  0.00    +0.002 A 
ATOM     10  C   UNL     1      -2.123  -6.983   8.073  0.00  0.00    +0.000 A 
ATOM     11  C   UNL     1      -2.370  -5.739   7.524  0.00  0.00    +0.002 A 
ATOM     12  C   UNL     1      -1.907  -5.436   6.258  0.00  0.00    +0.023 A 
ENDBRANCH   6   7
BRANCH   6  13
ATOM     13  C   UNL     1      -0.117  -7.130   3.430  0.00  0.00    +0.128 C 
BRANCH  13  14
ATOM     14  C   UNL     1       1.358  -7.285   3.803  0.00  0.00    +0.138 C 
BRANCH  14  15
ATOM     15  C   UNL     1       1.998  -8.243   2.886  0.00  0.00    +0.064 C 
ATOM     16  N   UNL     1       2.492  -8.982   2.179  0.00  0.00    -0.197 NA
ENDBRANCH  14  15
ENDBRANCH  13  14
ENDBRANCH   6  13
ENDBRANCH   3   4
ENDBRANCH   1   3
BRANCH   1  17
ATOM     17  C   UNL     1      -1.206  -2.931   0.740  0.00  0.00    +0.309 C 
ATOM     18  O   UNL     1      -1.175  -3.823  -0.074  0.00  0.00    -0.251 OA
BRANCH  17  19
ATOM     19  C   UNL     1      -1.629  -1.546   0.324  0.00  0.00    +0.142 C 
BRANCH  19  20
ATOM     20  C   UNL     1      -1.963  -1.541  -1.170  0.00  0.00    +0.138 C 
BRANCH  20  21
ATOM     21  N   UNL     1      -2.374  -0.195  -1.574  0.00  0.00    -0.291 N 
ATOM     22  C   UNL     1      -1.529   0.810  -2.039  0.00  0.00    +0.070 A 
ATOM     23  C   UNL     1      -0.161   0.879  -2.256  0.00  0.00    +0.028 A 
ATOM     24  C   UNL     1       0.401   2.045  -2.736  0.00  0.00    +0.002 A 
ATOM     25  C   UNL     1      -0.395   3.146  -3.002  0.00  0.00    +0.002 A 
ATOM     26  C   UNL     1      -1.758   3.087  -2.790  0.00  0.00    +0.028 A 
ATOM     27  C   UNL     1      -2.332   1.921  -2.307  0.00  0.00    +0.070 A 
ATOM     28  N   UNL     1      -3.640   1.556  -1.997  0.00  0.00    -0.295 N 
ATOM     29  C   UNL     1      -3.634   0.281  -1.566  0.00  0.00    +0.330 A 
ATOM     30  O   UNL     1      -4.617  -0.346  -1.218  0.00  0.00    -0.246 OA
ATOM     31  C   UNL     1      -4.822   2.412  -2.124  0.00  0.00    +0.154 C 
ENDBRANCH  20  21
ENDBRANCH  19  20
ENDBRANCH  17  19
ENDBRANCH   1  17
TORSDOF 10
