REMARK  Name = ZINC54850193
REMARK  4 active torsions:
REMARK  status: ('A' for Active; 'I' for Inactive)
REMARK    1  A    between atoms: C_1  and  C_2
REMARK    2  A    between atoms: C_2  and  C_3
REMARK    3  A    between atoms: C_9  and  C_12
REMARK    4  A    between atoms: C_18  and  C_21
REMARK                            x       y       z     vdW  Elec       q    Type
REMARK                         _______ _______ _______ _____ _____    ______ ____
ROOT
ATOM      1  C   UNL     1       0.756  -0.503   1.194  0.00  0.00    +0.215 C 
ATOM      2  O   UNL     1       1.219   0.290   1.986  0.00  0.00    -0.276 OA
ATOM      3  N   UNL     1       0.890  -1.827   1.409  0.00  0.00    -0.301 N 
ATOM      4  C   UNL     1       0.340  -2.800   0.456  0.00  0.00    +0.108 C 
ATOM      5  C   UNL     1       1.454  -3.765   0.038  0.00  0.00    +0.020 C 
ATOM      6  C   UNL     1       2.075  -4.392   1.289  0.00  0.00    +0.016 C 
ATOM      7  C   UNL     1       2.688  -3.294   2.161  0.00  0.00    +0.092 C 
ATOM      8  C   UNL     1       1.593  -2.324   2.599  0.00  0.00    +0.120 C 
ENDROOT
BRANCH   7   9
ATOM      9  C   UNL     1       3.329  -3.916   3.376  0.00  0.00    +0.220 C 
ATOM     10  O   UNL     1       2.833  -4.898   3.886  0.00  0.00    -0.275 OA
ATOM     11  N   UNL     1       4.452  -3.381   3.894  0.00  0.00    -0.301 N 
ATOM     12  C   UNL     1       4.995  -2.122   3.364  0.00  0.00    +0.108 C 
ATOM     13  C   UNL     1       5.181  -1.139   4.524  0.00  0.00    +0.019 C 
ATOM     14  C   UNL     1       6.045  -1.790   5.606  0.00  0.00    +0.006 C 
ATOM     15  C   UNL     1       5.341  -3.039   6.140  0.00  0.00    +0.003 C 
ATOM     16  C   UNL     1       5.153  -4.041   5.003  0.00  0.00    +0.111 C 
ATOM     17  C   UNL     1       6.190  -3.671   7.245  0.00  0.00    +0.009 C 
ENDBRANCH   7   9
BRANCH   1  19
ATOM     18  C   UNL     1       0.021   1.521  -0.036  0.00  0.00    +0.013 C 
ATOM     19  C   UNL     1       0.031  -0.009  -0.032  0.00  0.00    +0.092 C 
ENDBRANCH   1  19
TORSDOF 2
