REMARK  Name = ZINC10188478
REMARK  10 active torsions:
REMARK  status: ('A' for Active; 'I' for Inactive)
REMARK    1  A    between atoms: C_1  and  N_2
REMARK    2  A    between atoms: N_2  and  C_3
REMARK    3  A    between atoms: N_2  and  C_4
REMARK    4  A    between atoms: C_7  and  C_10
REMARK    5  A    between atoms: C_10  and  C_12
REMARK    6  A    between atoms: C_10  and  N_65
REMARK    7  A    between atoms: C_12  and  N_13
REMARK    8  A    between atoms: C_14  and  C_16
REMARK    9  A    between atoms: N_18  and  C_19
REMARK   10  A    between atoms: C_22  and  N_25
REMARK                            x       y       z     vdW  Elec       q    Type
REMARK                         _______ _______ _______ _____ _____    ______ ____
ROOT
ATOM      1  C   UNL     1       4.962  -7.150   0.128  0.00  0.00    -0.020 C 
ENDROOT
BRANCH   1  11
ATOM      2  C   UNL     1       5.568  -5.078   1.228  0.00  0.00    -0.073 C 
ATOM      3  C   UNL     1       6.004  -4.531   2.588  0.00  0.00    +0.017 C 
ATOM      4  C   UNL     1       7.339  -5.115   2.973  0.00  0.00    -0.048 A 
ATOM      5  C   UNL     1       8.067  -4.496   3.978  0.00  0.00    +0.004 A 
ATOM      6  C   UNL     1       9.290  -5.003   4.368  0.00  0.00    +0.000 A 
ATOM      7  C   UNL     1       9.792  -6.135   3.752  0.00  0.00    +0.000 A 
ATOM      8  C   UNL     1       9.070  -6.751   2.750  0.00  0.00    +0.002 A 
ATOM      9  C   UNL     1       7.841  -6.241   2.357  0.00  0.00    -0.061 A 
ATOM     10  C   UNL     1       7.092  -6.946   1.256  0.00  0.00    -0.042 C 
ATOM     11  N   UNL     1       5.673  -6.550   1.279  0.00  0.00    +0.388 N 
ATOM     12  H   UNL     1       5.245  -6.887   2.149  0.00  0.00    -0.080 HD
ENDBRANCH   1  11
BRANCH   1  16
ATOM     13  C   UNL     1       5.519 -11.387   0.191  0.00  0.00    +0.029 A 
ATOM     14  C   UNL     1       5.536 -10.700  -1.016  0.00  0.00    +0.023 A 
ATOM     15  C   UNL     1       5.356  -9.331  -1.033  0.00  0.00    +0.004 A 
ATOM     16  C   UNL     1       5.158  -8.644   0.150  0.00  0.00    -0.059 A 
ATOM     17  C   UNL     1       5.146  -9.323   1.355  0.00  0.00    +0.004 A 
ATOM     18  C   UNL     1       5.320 -10.693   1.378  0.00  0.00    +0.023 A 
BRANCH  13  20
ATOM     19  C   UNL     1       5.911 -13.502  -1.041  0.00  0.00    +0.129 C 
ATOM     20  N   UNL     1       5.701 -12.772   0.212  0.00  0.00    -0.336 N 
ATOM     21  C   UNL     1       5.683 -13.494   1.486  0.00  0.00    +0.129 C 
ENDBRANCH  13  20
ENDBRANCH   1  16
BRANCH   1  22
ATOM     22  C   UNL     1       3.470  -6.830   0.244  0.00  0.00    +0.094 C 
BRANCH  22  23
ATOM     23  N   UNL     1       2.770  -7.330  -0.942  0.00  0.00    -0.309 N 
ATOM     24  C   UNL     1       1.454  -7.084  -1.101  0.00  0.00    +0.299 C 
ATOM     25  O   UNL     1       0.850  -6.449  -0.262  0.00  0.00    -0.265 OA
ATOM     26  H   UNL     1       3.253  -7.837  -1.613  0.00  0.00    +0.149 HD
BRANCH  24  27
ATOM     27  C   UNL     1       0.740  -7.593  -2.310  0.00  0.00    +0.303 C 
ATOM     28  O   UNL     1       1.345  -8.229  -3.149  0.00  0.00    -0.265 OA
ATOM     29  N   UNL     1      -0.575  -7.348  -2.469  0.00  0.00    -0.278 N 
ATOM     30  H   UNL     1      -1.043  -6.782  -1.835  0.00  0.00    +0.155 HD
BRANCH  29  31
ATOM     31  C   UNL     1      -1.265  -7.908  -3.547  0.00  0.00    +0.034 A 
ATOM     32  C   UNL     1      -0.906  -9.161  -4.028  0.00  0.00    +0.025 A 
ATOM     33  C   UNL     1      -1.590  -9.712  -5.094  0.00  0.00    +0.034 A 
ATOM     34  C   UNL     1      -2.632  -9.018  -5.682  0.00  0.00    +0.126 A 
ATOM     35  C   UNL     1      -2.992  -7.771  -5.205  0.00  0.00    +0.034 A 
ATOM     36  C   UNL     1      -2.312  -7.214  -4.140  0.00  0.00    +0.025 A 
BRANCH  34  37
ATOM     37  N   UNL     1      -3.363  -9.612  -6.824  0.00  0.00    +0.056 N 
ATOM     38  O   UNL     1      -3.046 -10.710  -7.245  0.00  0.00    -0.126 OA
ATOM     39  O   UNL     1      -4.281  -9.002  -7.343  0.00  0.00    -0.126 OA
ENDBRANCH  34  37
ENDBRANCH  29  31
ENDBRANCH  24  27
ENDBRANCH  22  23
ENDBRANCH   1  22
TORSDOF 8
