REMARK  Name = ZINC41586042
REMARK  7 active torsions:
REMARK  status: ('A' for Active; 'I' for Inactive)
REMARK    1  A    between atoms: C_1  and  C_2
REMARK    2  A    between atoms: C_2  and  O_3
REMARK    3  A    between atoms: O_3  and  C_4
REMARK    4  A    between atoms: N_9  and  C_12
REMARK    5  A    between atoms: C_12  and  C_13
REMARK    6  A    between atoms: C_14  and  O_31
REMARK    7  A    between atoms: C_21  and  C_22
REMARK                            x       y       z     vdW  Elec       q    Type
REMARK                         _______ _______ _______ _____ _____    ______ ____
ROOT
ATOM      1  C   UNL     1       2.123  -5.154  -6.119  0.00  0.00    +0.051 A 
ATOM      2  C   UNL     1       3.376  -5.328  -6.684  0.00  0.00    +0.125 A 
ATOM      3  C   UNL     1       3.759  -6.567  -7.190  0.00  0.00    +0.046 A 
ATOM      4  C   UNL     1       2.899  -7.627  -7.133  0.00  0.00    +0.019 A 
ATOM      5  C   UNL     1       1.634  -7.467  -6.567  0.00  0.00    +0.068 A 
ATOM      6  C   UNL     1       1.238  -6.223  -6.048  0.00  0.00    +0.147 A 
ATOM      7  O   UNL     1      -0.014  -6.314  -5.551  0.00  0.00    -0.451 OA
ATOM      8  C   UNL     1      -0.521  -7.562  -5.689  0.00  0.00    +0.176 C 
ATOM      9  C   UNL     1      -1.750  -7.976  -5.292  0.00  0.00    +0.058 C 
ATOM     10  C   UNL     1       0.500  -8.384  -6.357  0.00  0.00    +0.231 C 
ATOM     11  O   UNL     1       0.428  -9.563  -6.658  0.00  0.00    -0.283 OA
ENDROOT
BRANCH   9  12
ATOM     12  C   UNL     1      -2.721  -7.004  -4.774  0.00  0.00    -0.021 A 
ATOM     13  C   UNL     1      -2.450  -5.632  -4.846  0.00  0.00    +0.011 A 
ATOM     14  C   UNL     1      -3.365  -4.725  -4.358  0.00  0.00    +0.039 A 
ATOM     15  C   UNL     1      -4.553  -5.168  -3.797  0.00  0.00    +0.123 A 
ATOM     16  C   UNL     1      -4.829  -6.526  -3.722  0.00  0.00    +0.039 A 
ATOM     17  C   UNL     1      -3.926  -7.443  -4.211  0.00  0.00    +0.011 A 
ATOM     18  F   UNL     1      -5.446  -4.274  -3.320  0.00  0.00    -0.205 F 
ENDBRANCH   9  12
BRANCH   2  19
ATOM     19  O   UNL     1       4.237  -4.280  -6.745  0.00  0.00    -0.506 OA
ATOM     20  H   UNL     1       4.813  -4.199  -5.973  0.00  0.00    +0.292 HD
ENDBRANCH   2  19
BRANCH   1  21
ATOM     21  C   UNL     1       1.722  -3.807  -5.575  0.00  0.00    +0.127 C 
BRANCH  21  27
ATOM     22  C   UNL     1       1.352  -2.985  -0.224  0.00  0.00    +0.403 C 
ATOM     23  O   UNL     1       0.844  -3.858   0.452  0.00  0.00    -0.226 OA
ATOM     24  N   UNL     1       1.907  -3.291  -1.414  0.00  0.00    -0.265 N 
ATOM     25  C   UNL     1       2.532  -2.250  -2.244  0.00  0.00    +0.126 C 
ATOM     26  C   UNL     1       1.951  -2.343  -3.659  0.00  0.00    +0.104 C 
ATOM     27  N   UNL     1       2.108  -3.716  -4.160  0.00  0.00    -0.295 NA
ATOM     28  C   UNL     1       1.347  -4.671  -3.344  0.00  0.00    +0.104 C 
ATOM     29  C   UNL     1       1.909  -4.674  -1.913  0.00  0.00    +0.126 C 
BRANCH  22  30
ATOM     30  O   UNL     1       1.360  -1.713   0.216  0.00  0.00    -0.451 OA
BRANCH  30  32
ATOM     31  C   UNL     1       0.860   0.029   1.815  0.00  0.00    +0.048 C 
ATOM     32  C   UNL     1       0.754  -1.461   1.486  0.00  0.00    +0.230 C 
ENDBRANCH  30  32
ENDBRANCH  22  30
ENDBRANCH  21  27
ENDBRANCH   1  21
TORSDOF 6
