REMARK  Name = ZINC64788462
REMARK  3 active torsions:
REMARK  status: ('A' for Active; 'I' for Inactive)
REMARK    1  A    between atoms: C_3  and  C_8
REMARK    2  A    between atoms: C_5  and  O_7
REMARK    3  A    between atoms: N_19  and  C_22
REMARK                            x       y       z     vdW  Elec       q    Type
REMARK                         _______ _______ _______ _____ _____    ______ ____
ROOT
ATOM      1  C   UNL     1       3.671   2.190  -0.021  0.00  0.00    +0.108 C 
ATOM      2  C   UNL     1       3.965   2.762  -1.429  0.00  0.00    +0.077 C 
ATOM      3  C   UNL     1       4.561   4.120  -1.107  0.00  0.00    +0.038 C 
ATOM      4  N   UNL     1       4.291   4.396   0.182  0.00  0.00    -0.283 N 
ATOM      5  N   UNL     1       3.554   3.423   0.791  0.00  0.00    -0.235 NA
ATOM      6  C   UNL     1       5.261   4.930  -1.983  0.00  0.00    +0.117 C 
ATOM      7  C   UNL     1       5.495   4.528  -3.381  0.00  0.00    +0.258 C 
ATOM      8  N   UNL     1       6.186   5.369  -4.179  0.00  0.00    -0.235 N 
ATOM      9  C   UNL     1       6.651   6.541  -3.725  0.00  0.00    +0.316 C 
ATOM     10  O   UNL     1       7.266   7.253  -4.495  0.00  0.00    -0.252 OA
ATOM     11  N   UNL     1       6.475   6.970  -2.468  0.00  0.00    -0.218 N 
ATOM     12  C   UNL     1       5.798   6.235  -1.561  0.00  0.00    +0.261 C 
ATOM     13  O   UNL     1       5.640   6.638  -0.423  0.00  0.00    -0.269 OA
ATOM     14  O   UNL     1       5.078   3.466  -3.805  0.00  0.00    -0.270 OA
ATOM     15  H   UNL     1       2.589   3.705   0.884  0.00  0.00    +0.145 HD
ATOM     16  H   UNL     1       6.349   5.119  -5.102  0.00  0.00    +0.159 HD
ATOM     17  H   UNL     1       4.589   5.202   0.632  0.00  0.00    +0.166 HD
ENDROOT
BRANCH   1  20
ATOM     18  C   UNL     1      -0.017   1.377   0.010  0.00  0.00    +0.004 A 
ATOM     19  C   UNL     1       1.171   2.086   0.002  0.00  0.00    +0.005 A 
ATOM     20  C   UNL     1       2.379   1.415  -0.013  0.00  0.00    -0.025 A 
ATOM     21  C   UNL     1       2.403   0.033  -0.021  0.00  0.00    +0.050 A 
ATOM     22  C   UNL     1       1.214  -0.680  -0.013  0.00  0.00    +0.117 A 
ATOM     23  C   UNL     1       0.002  -0.004   0.002  0.00  0.00    +0.045 A 
BRANCH  22  24
ATOM     24  O   UNL     1       1.235  -2.039  -0.021  0.00  0.00    -0.507 OA
ATOM     25  H   UNL     1       1.249  -2.437   0.860  0.00  0.00    +0.292 HD
ENDBRANCH  22  24
ENDBRANCH   1  20
BRANCH  11  26
ATOM     26  C   UNL     1       7.024   8.268  -2.071  0.00  0.00    +0.086 C 
ATOM     27  C   UNL     1       6.410   9.369  -2.938  0.00  0.00    +0.023 C 
ATOM     28  C   UNL     1       6.984  10.725  -2.523  0.00  0.00    +0.002 C 
ATOM     29  C   UNL     1       8.502  10.716  -2.712  0.00  0.00    +0.000 C 
ATOM     30  C   UNL     1       9.117   9.615  -1.845  0.00  0.00    +0.002 C 
ATOM     31  C   UNL     1       8.543   8.259  -2.260  0.00  0.00    +0.023 C 
ENDBRANCH  11  26
TORSDOF 3
