REMARK  Name = ZINC16048361
REMARK  3 active torsions:
REMARK  status: ('A' for Active; 'I' for Inactive)
REMARK    1  A    between atoms: N_12  and  C_15
REMARK    2  A    between atoms: C_15  and  C_16
REMARK    3  A    between atoms: C_16  and  C_18
REMARK                            x       y       z     vdW  Elec       q    Type
REMARK                         _______ _______ _______ _____ _____    ______ ____
ROOT
ATOM      1  C   UNL     1      -0.013   1.076   0.008  0.00  0.00    +0.001 A 
ATOM      2  C   UNL     1      -1.224   1.751   0.017  0.00  0.00    +0.004 A 
ATOM      3  C   UNL     1      -1.261   3.128   0.031  0.00  0.00    +0.047 A 
ATOM      4  C   UNL     1      -0.077   3.857   0.024  0.00  0.00    +0.138 A 
ATOM      5  C   UNL     1       1.149   3.172   0.008  0.00  0.00    +0.046 A 
ATOM      6  C   UNL     1       1.172   1.778   0.000  0.00  0.00    +0.014 A 
ATOM      7  C   UNL     1       2.187   4.213   0.004  0.00  0.00    +0.124 A 
ATOM      8  C   UNL     1       1.506   5.426   0.017  0.00  0.00    +0.219 A 
ATOM      9  O   UNL     1       0.179   5.182   0.028  0.00  0.00    -0.448 OA
ATOM     10  C   UNL     1       2.266   6.617   0.015  0.00  0.00    +0.297 A 
ATOM     11  O   UNL     1       1.718   7.707   0.026  0.00  0.00    -0.264 OA
ATOM     12  N   UNL     1       3.613   6.521   0.002  0.00  0.00    -0.289 N 
ATOM     13  C   UNL     1       4.216   5.307  -0.011  0.00  0.00    +0.203 A 
ATOM     14  N   UNL     1       3.530   4.199  -0.009  0.00  0.00    -0.233 NA
ENDROOT
BRANCH  12  15
ATOM     15  C   UNL     1       4.428   7.738   0.000  0.00  0.00    +0.207 C 
BRANCH  15  16
ATOM     16  C   UNL     1       4.694   8.163  -1.421  0.00  0.00    +0.199 C 
ATOM     17  O   UNL     1       4.246   7.512  -2.343  0.00  0.00    -0.289 OA
BRANCH  16  18
ATOM     18  C   UNL     1       5.465   9.319  -1.681  0.00  0.00    +0.084 A 
ATOM     19  C   UNL     1       6.031  10.156  -0.735  0.00  0.00    +0.030 A 
ATOM     20  C   UNL     1       6.703  11.162  -1.432  0.00  0.00    +0.020 A 
ATOM     21  C   UNL     1       6.533  10.935  -2.759  0.00  0.00    +0.083 A 
ATOM     22  N   UNL     1       5.787   9.824  -2.923  0.00  0.00    -0.358 N 
ATOM     23  H   UNL     1       5.520   9.443  -3.775  0.00  0.00    +0.165 HD
ENDBRANCH  16  18
ENDBRANCH  15  16
ENDBRANCH  12  15
TORSDOF 3
