REMARK  Name = ZINC59645652
REMARK  7 active torsions:
REMARK  status: ('A' for Active; 'I' for Inactive)
REMARK    1  A    between atoms: C_6  and  C_7
REMARK    2  A    between atoms: C_7  and  O_8
REMARK    3  A    between atoms: O_8  and  C_9
REMARK    4  A    between atoms: C_12  and  C_16
REMARK    5  A    between atoms: N_17  and  N_18
REMARK    6  A    between atoms: C_19  and  C_21
REMARK    7  A    between atoms: C_21  and  C_22
REMARK                            x       y       z     vdW  Elec       q    Type
REMARK                         _______ _______ _______ _____ _____    ______ ____
ROOT
ATOM      1  C   UNL     1      -2.874  -1.700  -1.505  0.00  0.00    +0.139 A 
ATOM      2  C   UNL     1      -3.592  -2.132  -0.398  0.00  0.00    +0.048 A 
ATOM      3  C   UNL     1      -4.768  -2.831  -0.566  0.00  0.00    +0.013 A 
ATOM      4  C   UNL     1      -5.239  -3.103  -1.853  0.00  0.00    -0.004 A 
ATOM      5  C   UNL     1      -4.514  -2.666  -2.965  0.00  0.00    +0.033 A 
ATOM      6  C   UNL     1      -3.341  -1.963  -2.787  0.00  0.00    +0.083 A 
ATOM      7 CL   UNL     1      -2.442  -1.413  -4.167  0.00  0.00    -0.080 Cl
ENDROOT
BRANCH   4   8
ATOM      8  C   UNL     1      -6.496  -3.850  -2.037  0.00  0.00    +0.138 C 
ATOM      9  N   UNL     1      -6.932  -4.102  -3.233  0.00  0.00    -0.188 NA
BRANCH   9  10
ATOM     10  N   UNL     1      -8.127  -4.812  -3.408  0.00  0.00    -0.207 N 
ATOM     11  C   UNL     1      -8.580  -5.074  -4.651  0.00  0.00    +0.238 C 
ATOM     12  O   UNL     1      -7.952  -4.695  -5.617  0.00  0.00    -0.274 OA
ATOM     13  H   UNL     1      -8.629  -5.115  -2.636  0.00  0.00    +0.177 HD
BRANCH  11  14
ATOM     14  C   UNL     1      -9.865  -5.838  -4.839  0.00  0.00    +0.153 C 
BRANCH  14  15
ATOM     15  C   UNL     1     -10.145  -5.995  -6.311  0.00  0.00    +0.059 A 
ATOM     16  C   UNL     1     -10.353  -7.213  -6.865  0.00  0.00    +0.072 A 
ATOM     17  S   UNL     1     -10.622  -6.762  -8.572  0.00  0.00    -0.061 S 
ATOM     18  C   UNL     1     -10.443  -5.097  -8.404  0.00  0.00    +0.156 A 
ATOM     19  N   UNL     1     -10.203  -4.950  -7.118  0.00  0.00    -0.230 NA
ATOM     20  N   UNL     1     -10.533  -4.118  -9.381  0.00  0.00    -0.338 N 
ATOM     21  H   UNL     1     -10.721  -4.366 -10.300  0.00  0.00    +0.144 HD
ATOM     22  H   UNL     1     -10.407  -3.186  -9.146  0.00  0.00    +0.144 HD
ENDBRANCH  14  15
ENDBRANCH  11  14
ENDBRANCH   9  10
ENDBRANCH   4   8
BRANCH   1  23
ATOM     23  O   UNL     1      -1.715  -1.012  -1.334  0.00  0.00    -0.486 OA
BRANCH  23  24
ATOM     24  C   UNL     1      -1.293  -0.775   0.010  0.00  0.00    +0.264 C 
BRANCH  24  30
ATOM     25  C   UNL     1      -0.017   1.378   0.010  0.00  0.00    +0.008 A 
ATOM     26  C   UNL     1       1.171   2.086   0.002  0.00  0.00    +0.015 A 
ATOM     27  C   UNL     1       2.378   1.411  -0.013  0.00  0.00    +0.018 A 
ATOM     28  C   UNL     1       2.396   0.027  -0.021  0.00  0.00    +0.015 A 
ATOM     29  C   UNL     1       1.208  -0.679  -0.013  0.00  0.00    +0.008 A 
ATOM     30  C   UNL     1       0.002  -0.004   0.002  0.00  0.00    -0.010 A 
ATOM     31 BR   UNL     1       4.003   2.378  -0.024  0.00  0.00    -0.050 Br
ENDBRANCH  24  30
ENDBRANCH  23  24
ENDBRANCH   1  23
TORSDOF 7
