REMARK  Name = ZINC06143314
REMARK  14 active torsions:
REMARK  status: ('A' for Active; 'I' for Inactive)
REMARK    1  A    between atoms: C_1  and  C_2
REMARK    2  A    between atoms: C_2  and  C_3
REMARK    3  A    between atoms: C_2  and  C_4
REMARK    4  A    between atoms: C_2  and  C_5
REMARK    5  A    between atoms: C_7  and  C_16
REMARK    6  A    between atoms: C_9  and  C_12
REMARK    7  A    between atoms: C_10  and  O_11
REMARK    8  A    between atoms: C_12  and  C_13
REMARK    9  A    between atoms: C_12  and  C_14
REMARK   10  A    between atoms: C_12  and  C_15
REMARK   11  A    between atoms: N_17  and  N_18
REMARK   12  A    between atoms: C_19  and  C_21
REMARK   13  A    between atoms: C_23  and  C_27
REMARK   14  A    between atoms: C_31  and  N_33
REMARK                            x       y       z     vdW  Elec       q    Type
REMARK                         _______ _______ _______ _____ _____    ______ ____
ROOT
ATOM      1  N   UNL     1      -0.934   9.876   0.069  0.00  0.00    -0.202 N 
ATOM      2  C   UNL     1      -1.544   8.674   0.067  0.00  0.00    +0.281 C 
ATOM      3  O   UNL     1      -2.759   8.609   0.078  0.00  0.00    -0.267 OA
ATOM      4  H   UNL     1       0.035   9.928   0.061  0.00  0.00    +0.178 HD
ENDROOT
BRANCH   2   5
ATOM      5  C   UNL     1      -0.741   7.441   0.052  0.00  0.00    +0.122 A 
ATOM      6  C   UNL     1      -1.216   6.144   0.048  0.00  0.00    +0.062 A 
ATOM      7  C   UNL     1      -0.070   5.328   0.033  0.00  0.00    +0.093 A 
ATOM      8  N   UNL     1       0.981   6.120   0.034  0.00  0.00    -0.173 NA
ATOM      9  N   UNL     1       0.623   7.354   0.039  0.00  0.00    -0.272 N 
ATOM     10  H   UNL     1       1.249   8.133   0.035  0.00  0.00    +0.189 HD
BRANCH   7  11
ATOM     11  C   UNL     1      -0.050   3.844   0.024  0.00  0.00    +0.004 A 
ATOM     12  C   UNL     1      -1.246   3.128   0.031  0.00  0.00    +0.010 A 
ATOM     13  C   UNL     1      -1.221   1.749   0.017  0.00  0.00    +0.003 A 
ATOM     14  C   UNL     1      -0.013   1.076   0.008  0.00  0.00    +0.033 A 
ATOM     15  C   UNL     1       1.177   1.781   0.000  0.00  0.00    +0.127 A 
ATOM     16  C   UNL     1       1.164   3.161   0.008  0.00  0.00    +0.042 A 
BRANCH  15  17
ATOM     17  N   UNL     1       2.466   1.054  -0.016  0.00  0.00    +0.056 N 
ATOM     18  O   UNL     1       2.479  -0.163  -0.022  0.00  0.00    -0.126 OA
ATOM     19  O   UNL     1       3.515   1.675  -0.022  0.00  0.00    -0.126 OA
ENDBRANCH  15  17
ENDBRANCH   7  11
ENDBRANCH   2   5
BRANCH   1  21
ATOM     20  C   UNL     1      -1.111  12.207   0.086  0.00  0.00    +0.138 C 
ATOM     21  N   UNL     1      -1.698  11.050   0.084  0.00  0.00    -0.187 NA
BRANCH  20  24
ATOM     22  C   UNL     1      -2.041  15.841   0.117  0.00  0.00    +0.000 A 
ATOM     23  C   UNL     1      -1.285  14.690   0.103  0.00  0.00    +0.017 A 
ATOM     24  C   UNL     1      -1.915  13.442   0.101  0.00  0.00    -0.005 A 
ATOM     25  C   UNL     1      -3.311  13.370   0.107  0.00  0.00    +0.017 A 
ATOM     26  C   UNL     1      -4.059  14.527   0.126  0.00  0.00    +0.000 A 
ATOM     27  C   UNL     1      -3.428  15.764   0.128  0.00  0.00    +0.124 A 
BRANCH  22  29
ATOM     28  C   UNL     1       0.155  16.993   0.104  0.00  0.00    +0.015 C 
ATOM     29  C   UNL     1      -1.363  17.187   0.119  0.00  0.00    -0.009 C 
ATOM     30  C   UNL     1      -1.788  17.974  -1.122  0.00  0.00    +0.015 C 
ATOM     31  C   UNL     1      -1.766  17.960   1.376  0.00  0.00    +0.015 C 
ENDBRANCH  22  29
BRANCH  26  32
ATOM     32  C   UNL     1      -5.564  14.449   0.138  0.00  0.00    -0.009 C 
ATOM     33  C   UNL     1      -6.000  12.983   0.133  0.00  0.00    +0.015 C 
ATOM     34  C   UNL     1      -6.100  15.136   1.397  0.00  0.00    +0.015 C 
ATOM     35  C   UNL     1      -6.121  15.151  -1.102  0.00  0.00    +0.015 C 
ENDBRANCH  26  32
BRANCH  27  36
ATOM     36  O   UNL     1      -4.170  16.902   0.141  0.00  0.00    -0.506 OA
ATOM     37  H   UNL     1      -4.392  17.237  -0.739  0.00  0.00    +0.292 HD
ENDBRANCH  27  36
ENDBRANCH  20  24
ENDBRANCH   1  21
TORSDOF 8
