REMARK  Name = ZINC00892116
REMARK  9 active torsions:
REMARK  status: ('A' for Active; 'I' for Inactive)
REMARK    1  A    between atoms: C_1  and  C_2
REMARK    2  A    between atoms: C_2  and  N_3
REMARK    3  A    between atoms: C_4  and  C_20
REMARK    4  A    between atoms: C_7  and  S_8
REMARK    5  A    between atoms: S_8  and  C_9
REMARK    6  A    between atoms: C_9  and  C_10
REMARK    7  A    between atoms: N_12  and  C_13
REMARK    8  A    between atoms: C_23  and  S_26
REMARK    9  A    between atoms: S_26  and  N_29
REMARK                            x       y       z     vdW  Elec       q    Type
REMARK                         _______ _______ _______ _____ _____    ______ ____
ROOT
ATOM      1  N   UNL     1      -1.071   2.475   0.331  0.00  0.00    -0.302 N 
ATOM      2  C   UNL     1      -0.122   1.506   0.102  0.00  0.00    +0.165 A 
ATOM      3  N   UNL     1       1.032   2.120  -0.025  0.00  0.00    -0.128 NA
ATOM      4  N   UNL     1       0.872   3.388   0.113  0.00  0.00    -0.122 NA
ATOM      5  C   UNL     1      -0.394   3.661   0.337  0.00  0.00    +0.192 A 
ENDROOT
BRANCH   2   6
ATOM      6  C   UNL     1      -0.357   0.050   0.009  0.00  0.00    +0.019 A 
ATOM      7  C   UNL     1      -1.528  -0.505   0.526  0.00  0.00    +0.013 A 
ATOM      8  C   UNL     1      -1.744  -1.865   0.432  0.00  0.00    +0.029 A 
ATOM      9  C   UNL     1      -0.797  -2.679  -0.164  0.00  0.00    +0.106 A 
ATOM     10  C   UNL     1       0.369  -2.135  -0.673  0.00  0.00    +0.029 A 
ATOM     11  C   UNL     1       0.595  -0.777  -0.590  0.00  0.00    +0.013 A 
BRANCH   9  12
ATOM     12  S   UNL     1      -1.077  -4.415  -0.274  0.00  0.00    +0.061 S 
ATOM     13  O   UNL     1      -2.484  -4.604  -0.213  0.00  0.00    -0.153 OA
ATOM     14  O   UNL     1      -0.291  -4.885  -1.360  0.00  0.00    -0.153 OA
BRANCH  12  15
ATOM     15  N   UNL     1      -0.448  -5.100   1.097  0.00  0.00    -0.177 NA
ATOM     16  C   UNL     1       0.948  -5.558   1.132  0.00  0.00    +0.109 C 
ATOM     17  C   UNL     1       1.645  -4.907   2.336  0.00  0.00    +0.017 C 
ATOM     18  C   UNL     1       0.850  -5.216   3.607  0.00  0.00    +0.003 C 
ATOM     19  C   UNL     1      -0.556  -4.624   3.488  0.00  0.00    +0.017 C 
ATOM     20  C   UNL     1      -1.277  -5.267   2.298  0.00  0.00    +0.109 C 
ENDBRANCH  12  15
ENDBRANCH   9  12
ENDBRANCH   2   6
BRANCH   1  22
ATOM     21  C   UNL     1      -2.799   2.118   2.025  0.00  0.00    +0.027 C 
ATOM     22  C   UNL     1      -2.509   2.276   0.531  0.00  0.00    +0.122 C 
ENDBRANCH   1  22
BRANCH   5  23
ATOM     23  S   UNL     1      -1.090   5.261   0.588  0.00  0.00    -0.077 S 
BRANCH  23  24
ATOM     24  C   UNL     1       0.401   6.277   0.445  0.00  0.00    +0.173 C 
BRANCH  24  25
ATOM     25  C   UNL     1       0.039   7.728   0.631  0.00  0.00    +0.228 C 
ATOM     26  O   UNL     1      -1.114   8.044   0.840  0.00  0.00    -0.275 OA
ATOM     27  N   UNL     1       0.996   8.675   0.566  0.00  0.00    -0.284 N 
ATOM     28  H   UNL     1       1.906   8.430   0.338  0.00  0.00    +0.155 HD
BRANCH  27  29
ATOM     29  C   UNL     1       0.675  10.013   0.826  0.00  0.00    +0.047 A 
ATOM     30  C   UNL     1      -0.316  10.325   1.747  0.00  0.00    +0.024 A 
ATOM     31  C   UNL     1      -0.627  11.645   2.004  0.00  0.00    +0.002 A 
ATOM     32  C   UNL     1       0.041  12.657   1.339  0.00  0.00    +0.001 A 
ATOM     33  C   UNL     1       1.025  12.351   0.417  0.00  0.00    +0.017 A 
ATOM     34  C   UNL     1       1.344  11.031   0.158  0.00  0.00    +0.039 A 
ATOM     35 BR   UNL     1       2.690  10.613  -1.103  0.00  0.00    -0.048 Br
ENDBRANCH  27  29
ENDBRANCH  24  25
ENDBRANCH  23  24
ENDBRANCH   5  23
TORSDOF 8
