REMARK  Name = ZINC08728125
REMARK  12 active torsions:
REMARK  status: ('A' for Active; 'I' for Inactive)
REMARK    1  A    between atoms: C_1  and  C_2
REMARK    2  A    between atoms: C_4  and  C_16
REMARK    3  A    between atoms: C_5  and  C_15
REMARK    4  A    between atoms: N_6  and  C_7
REMARK    5  A    between atoms: C_7  and  C_8
REMARK    6  A    between atoms: C_8  and  C_9
REMARK    7  A    between atoms: C_16  and  C_18
REMARK    8  A    between atoms: C_18  and  O_19
REMARK    9  A    between atoms: O_19  and  C_20
REMARK   10  A    between atoms: C_20  and  C_22
REMARK   11  A    between atoms: N_25  and  C_28
REMARK   12  A    between atoms: C_31  and  C_33
REMARK                            x       y       z     vdW  Elec       q    Type
REMARK                         _______ _______ _______ _____ _____    ______ ____
ROOT
ATOM      1  C   UNL     1       7.407   3.647  -0.897  0.00  0.00    +0.311 C 
ATOM      2  O   UNL     1       8.134   3.446   0.046  0.00  0.00    -0.251 OA
ENDROOT
BRANCH   1   3
ATOM      3  C   UNL     1       6.143   2.842  -1.059  0.00  0.00    +0.101 C 
ATOM      4  C   UNL     1       6.018   1.847   0.098  0.00  0.00    +0.033 C 
ATOM      5  C   UNL     1       4.704   1.075  -0.039  0.00  0.00    +0.107 C 
ATOM      6  N   UNL     1       3.577   2.017  -0.023  0.00  0.00    -0.317 N 
ATOM      7  C   UNL     1       3.650   2.952  -1.152  0.00  0.00    +0.107 C 
ATOM      8  C   UNL     1       4.933   3.781  -1.048  0.00  0.00    +0.033 C 
BRANCH   6   9
ATOM      9  C   UNL     1       2.367   1.343  -0.014  0.00  0.00    +0.099 A 
ATOM     10  C   UNL     1       1.177   2.068   0.002  0.00  0.00    +0.042 A 
ATOM     11  C   UNL     1      -0.017   1.399   0.010  0.00  0.00    +0.018 A 
ATOM     12  C   UNL     1       0.002  -0.004   0.002  0.00  0.00    +0.053 A 
ATOM     13  C   UNL     1       1.231  -0.665  -0.013  0.00  0.00    +0.097 A 
ATOM     14  N   UNL     1       2.426  -0.022  -0.022  0.00  0.00    -0.349 N 
ATOM     15  H   UNL     1       3.318  -0.529  -0.033  0.00  0.00    +0.167 HD
BRANCH  12  16
ATOM     16  C   UNL     1      -1.259  -0.770   0.010  0.00  0.00    +0.243 C 
ATOM     17  O   UNL     1      -2.325  -0.185   0.024  0.00  0.00    -0.270 OA
ATOM     18  N   UNL     1      -1.230  -2.117   0.003  0.00  0.00    -0.325 N 
ATOM     19  H   UNL     1      -0.379  -2.583  -0.008  0.00  0.00    +0.145 HD
ATOM     20  H   UNL     1      -2.059  -2.620   0.008  0.00  0.00    +0.145 HD
ENDBRANCH  12  16
ENDBRANCH   6   9
ENDBRANCH   1   3
BRANCH   1  21
ATOM     21  O   UNL     1       7.725   4.586  -1.802  0.00  0.00    -0.456 OA
BRANCH  21  22
ATOM     22  C   UNL     1       8.957   5.322  -1.582  0.00  0.00    +0.311 C 
BRANCH  22  23
ATOM     23  C   UNL     1       9.146   6.326  -2.690  0.00  0.00    +0.202 C 
ATOM     24  O   UNL     1       8.324   6.413  -3.578  0.00  0.00    -0.288 OA
BRANCH  23  28
ATOM     25  C   UNL     1      13.542   8.560  -1.406  0.00  0.00    +0.063 C 
ATOM     26  C   UNL     1      12.268   8.174  -2.113  0.00  0.00    +0.017 A 
ATOM     27  C   UNL     1      11.406   7.229  -1.703  0.00  0.00    +0.034 A 
ATOM     28  C   UNL     1      10.324   7.197  -2.695  0.00  0.00    +0.042 A 
ATOM     29  C   UNL     1      10.642   8.162  -3.632  0.00  0.00    +0.026 A 
ATOM     30  N   UNL     1      11.804   8.733  -3.268  0.00  0.00    -0.347 N 
ATOM     31  C   UNL     1       9.828   8.514  -4.851  0.00  0.00    +0.064 C 
BRANCH  30  32
ATOM     32  C   UNL     1      12.476   9.805  -4.007  0.00  0.00    +0.126 C 
BRANCH  32  33
ATOM     33  C   UNL     1      11.986  11.162  -3.496  0.00  0.00    +0.052 C 
BRANCH  33  34
ATOM     34  C   UNL     1      12.677  12.264  -4.256  0.00  0.00    -0.072 C 
ATOM     35  C   UNL     1      12.070  12.766  -5.283  0.00  0.00    -0.028 C 
ATOM     36  C   UNL     1      12.635  13.859  -6.142  0.00  0.00    +0.027 C 
ATOM     37  C   UNL     1      13.778  14.567  -5.411  0.00  0.00    +0.004 C 
ATOM     38  C   UNL     1      14.742  13.502  -4.872  0.00  0.00    +0.005 C 
ATOM     39  C   UNL     1      14.023  12.716  -3.771  0.00  0.00    +0.030 C 
ENDBRANCH  33  34
ENDBRANCH  32  33
ENDBRANCH  30  32
ENDBRANCH  23  28
ENDBRANCH  22  23
ENDBRANCH  21  22
ENDBRANCH   1  21
TORSDOF 10
