REMARK  Name = ZINC41585635
REMARK  5 active torsions:
REMARK  status: ('A' for Active; 'I' for Inactive)
REMARK    1  A    between atoms: C_4  and  C_7
REMARK    2  A    between atoms: C_12  and  O_32
REMARK    3  A    between atoms: C_13  and  C_18
REMARK    4  A    between atoms: C_18  and  N_19
REMARK    5  A    between atoms: N_22  and  C_25
REMARK                            x       y       z     vdW  Elec       q    Type
REMARK                         _______ _______ _______ _____ _____    ______ ____
ROOT
ATOM      1  C   UNL     1       3.694  -0.677  -0.051  0.00  0.00    +0.067 A 
ATOM      2  C   UNL     1       4.069  -1.476   1.001  0.00  0.00    +0.027 A 
ATOM      3  C   UNL     1       5.332  -2.120   0.938  0.00  0.00    +0.019 A 
ATOM      4  C   UNL     1       5.680  -3.098   1.882  0.00  0.00    +0.015 A 
ATOM      5  C   UNL     1       6.881  -3.738   1.786  0.00  0.00    +0.046 A 
ATOM      6  C   UNL     1       7.771  -3.421   0.762  0.00  0.00    +0.125 A 
ATOM      7  C   UNL     1       7.454  -2.445  -0.168  0.00  0.00    +0.051 A 
ATOM      8  C   UNL     1       6.241  -1.780  -0.082  0.00  0.00    +0.147 A 
ATOM      9  O   UNL     1       5.934  -0.794  -0.959  0.00  0.00    -0.421 OA
ATOM     10  C   UNL     1       4.617  -0.577  -1.193  0.00  0.00    +0.345 A 
ATOM     11  O   UNL     1       4.210  -0.304  -2.308  0.00  0.00    -0.245 OA
ENDROOT
BRANCH   1  15
ATOM     12  C   UNL     1      -0.004   1.417  -0.018  0.00  0.00    +0.000 A 
ATOM     13  C   UNL     1       1.186   2.121  -0.012  0.00  0.00    +0.001 A 
ATOM     14  C   UNL     1       2.390   1.447  -0.023  0.00  0.00    +0.009 A 
ATOM     15  C   UNL     1       2.405   0.053  -0.039  0.00  0.00    -0.011 A 
ATOM     16  C   UNL     1       1.202  -0.652  -0.044  0.00  0.00    +0.009 A 
ATOM     17  C   UNL     1       0.004   0.034  -0.034  0.00  0.00    +0.001 A 
ENDBRANCH   1  15
BRANCH   6  18
ATOM     18  O   UNL     1       8.958  -4.075   0.675  0.00  0.00    -0.506 OA
ATOM     19  H   UNL     1       8.927  -4.876   0.135  0.00  0.00    +0.292 HD
ENDBRANCH   6  18
BRANCH   7  20
ATOM     20  C   UNL     1       8.425  -2.105  -1.270  0.00  0.00    +0.127 C 
BRANCH  20  21
ATOM     21  N   UNL     1       8.157  -2.956  -2.437  0.00  0.00    -0.295 NA
ATOM     22  C   UNL     1       8.437  -4.366  -2.137  0.00  0.00    +0.103 C 
ATOM     23  C   UNL     1       7.977  -5.236  -3.311  0.00  0.00    +0.120 C 
ATOM     24  N   UNL     1       8.600  -4.727  -4.542  0.00  0.00    -0.327 N 
ATOM     25  C   UNL     1       8.478  -3.292  -4.842  0.00  0.00    +0.120 C 
ATOM     26  C   UNL     1       8.919  -2.499  -3.607  0.00  0.00    +0.103 C 
BRANCH  24  27
ATOM     27  C   UNL     1       9.289  -5.585  -5.405  0.00  0.00    +0.030 A 
ATOM     28  C   UNL     1       9.491  -6.912  -5.052  0.00  0.00    +0.026 A 
ATOM     29  C   UNL     1      10.171  -7.758  -5.906  0.00  0.00    +0.040 A 
ATOM     30  C   UNL     1      10.653  -7.282  -7.114  0.00  0.00    +0.124 A 
ATOM     31  C   UNL     1      10.453  -5.958  -7.468  0.00  0.00    +0.040 A 
ATOM     32  C   UNL     1       9.768  -5.111  -6.620  0.00  0.00    +0.026 A 
ATOM     33  F   UNL     1      11.319  -8.110  -7.948  0.00  0.00    -0.205 F 
ENDBRANCH  24  27
ENDBRANCH  20  21
ENDBRANCH   7  20
TORSDOF 5
