REMARK  Name = ZINC12572639
REMARK  14 active torsions:
REMARK  status: ('A' for Active; 'I' for Inactive)
REMARK    1  A    between atoms: C_1  and  C_2
REMARK    2  A    between atoms: C_5  and  C_30
REMARK    3  A    between atoms: C_6  and  O_8
REMARK    4  A    between atoms: O_8  and  C_9
REMARK    5  A    between atoms: C_9  and  C_10
REMARK    6  A    between atoms: N_12  and  N_13
REMARK    7  A    between atoms: N_13  and  C_14
REMARK    8  A    between atoms: C_14  and  N_16
REMARK    9  A    between atoms: C_17  and  C_19
REMARK   10  A    between atoms: C_19  and  O_20
REMARK   11  A    between atoms: O_20  and  C_21
REMARK   12  A    between atoms: C_24  and  N_27
REMARK   13  A    between atoms: C_30  and  C_31
REMARK   14  A    between atoms: C_30  and  C_32
REMARK                            x       y       z     vdW  Elec       q    Type
REMARK                         _______ _______ _______ _____ _____    ______ ____
ROOT
ATOM      1  N   UNL     1      -0.966   1.736  -3.578  0.00  0.00    -0.245 N 
ATOM      2  H   UNL     1      -1.761   2.283  -3.479  0.00  0.00    +0.172 HD
ENDROOT
BRANCH   1   5
ATOM      3  C   UNL     1      -0.742   1.585  -1.213  0.00  0.00    +0.267 C 
ATOM      4  O   UNL     1      -1.736   2.268  -1.088  0.00  0.00    -0.271 OA
ATOM      5  N   UNL     1      -0.288   1.272  -2.443  0.00  0.00    -0.232 N 
ATOM      6  H   UNL     1       0.507   0.726  -2.543  0.00  0.00    +0.173 HD
BRANCH   3   7
ATOM      7  C   UNL     1      -0.013   1.086   0.008  0.00  0.00    +0.326 C 
BRANCH   7   8
ATOM      8  O   UNL     1      -0.682   1.547   1.184  0.00  0.00    -0.482 OA
BRANCH   8  14
ATOM      9  C   UNL     1       2.775  -0.826   3.683  0.00  0.00    +0.044 C 
ATOM     10  C   UNL     1       1.534   0.027   3.637  0.00  0.00    -0.047 A 
ATOM     11  C   UNL     1       0.936   0.440   4.814  0.00  0.00    +0.004 A 
ATOM     12  C   UNL     1      -0.203   1.222   4.776  0.00  0.00    +0.008 A 
ATOM     13  C   UNL     1      -0.747   1.594   3.561  0.00  0.00    -0.003 A 
ATOM     14  C   UNL     1      -0.149   1.182   2.380  0.00  0.00    +0.125 A 
ATOM     15  C   UNL     1       0.991   0.392   2.421  0.00  0.00    +0.049 A 
BRANCH  13  16
ATOM     16  C   UNL     1      -1.988   2.448   3.520  0.00  0.00    +0.016 C 
ATOM     17  C   UNL     1      -3.132   1.718   4.229  0.00  0.00    +0.012 C 
ATOM     18  C   UNL     1      -1.717   3.777   4.226  0.00  0.00    +0.012 C 
ENDBRANCH  13  16
ENDBRANCH   8  14
ENDBRANCH   7   8
ENDBRANCH   3   7
ENDBRANCH   1   5
BRANCH   1  19
ATOM     19  C   UNL     1      -0.513   1.424  -4.808  0.00  0.00    +0.153 C 
ATOM     20  S   UNL     1      -1.341   1.991  -6.195  0.00  0.00    -0.017 S 
BRANCH  19  21
ATOM     21  N   UNL     1       0.592   0.664  -4.947  0.00  0.00    -0.264 N 
ATOM     22  C   UNL     1       1.045   0.352  -6.177  0.00  0.00    +0.256 C 
ATOM     23  O   UNL     1       0.459   0.753  -7.159  0.00  0.00    -0.272 OA
ATOM     24  H   UNL     1       1.061   0.343  -4.161  0.00  0.00    +0.157 HD
BRANCH  22  25
ATOM     25  C   UNL     1       2.281  -0.497  -6.331  0.00  0.00    +0.324 C 
BRANCH  25  26
ATOM     26  O   UNL     1       2.557  -0.688  -7.720  0.00  0.00    -0.483 OA
BRANCH  26  27
ATOM     27  C   UNL     1       3.646  -1.437  -8.036  0.00  0.00    +0.121 A 
ATOM     28  C   UNL     1       4.437  -1.972  -7.029  0.00  0.00    +0.048 A 
ATOM     29  C   UNL     1       5.541  -2.736  -7.352  0.00  0.00    +0.036 A 
ATOM     30  C   UNL     1       5.864  -2.960  -8.678  0.00  0.00    +0.126 A 
ATOM     31  C   UNL     1       5.081  -2.424  -9.683  0.00  0.00    +0.036 A 
ATOM     32  C   UNL     1       3.973  -1.663  -9.365  0.00  0.00    +0.048 A 
BRANCH  30  33
ATOM     33  N   UNL     1       7.051  -3.776  -9.021  0.00  0.00    +0.056 N 
ATOM     34  O   UNL     1       7.336  -3.974 -10.189  0.00  0.00    -0.126 OA
ATOM     35  O   UNL     1       7.741  -4.249  -8.136  0.00  0.00    -0.126 OA
ENDBRANCH  30  33
ENDBRANCH  26  27
ENDBRANCH  25  26
ENDBRANCH  22  25
ENDBRANCH  19  21
ENDBRANCH   1  19
TORSDOF 11
