REMARK  Name = ZINC12608932
REMARK  8 active torsions:
REMARK  status: ('A' for Active; 'I' for Inactive)
REMARK    1  A    between atoms: C_1  and  C_2
REMARK    2  A    between atoms: C_2  and  C_4
REMARK    3  A    between atoms: C_2  and  N_63
REMARK    4  A    between atoms: C_7  and  S_15
REMARK    5  A    between atoms: N_8  and  C_9
REMARK    6  A    between atoms: S_15  and  C_16
REMARK    7  A    between atoms: C_16  and  C_17
REMARK    8  A    between atoms: N_19  and  C_20
REMARK                            x       y       z     vdW  Elec       q    Type
REMARK                         _______ _______ _______ _____ _____    ______ ____
ROOT
ATOM      1  C   UNL     1       1.074   0.402   4.642  0.00  0.00    +0.125 A 
ATOM      2  N   UNL     1       1.778  -0.085   3.660  0.00  0.00    -0.135 NA
ATOM      3  N   UNL     1       1.263   0.257   2.533  0.00  0.00    -0.122 NA
ATOM      4  C   UNL     1       0.191   0.988   2.735  0.00  0.00    +0.197 A 
ATOM      5  N   UNL     1       0.039   1.109   4.089  0.00  0.00    -0.275 N 
ENDROOT
BRANCH   5   6
ATOM      6  C   UNL     1      -0.969   1.808   4.770  0.00  0.00    +0.050 A 
ATOM      7  C   UNL     1      -0.646   2.914   5.544  0.00  0.00    +0.026 A 
ATOM      8  C   UNL     1      -1.641   3.605   6.208  0.00  0.00    +0.002 A 
ATOM      9  C   UNL     1      -2.956   3.188   6.112  0.00  0.00    +0.000 A 
ATOM     10  C   UNL     1      -3.280   2.083   5.346  0.00  0.00    +0.002 A 
ATOM     11  C   UNL     1      -2.290   1.393   4.675  0.00  0.00    +0.026 A 
ENDBRANCH   5   6
BRANCH   1  13
ATOM     12  C   UNL     1       2.528   1.113   6.521  0.00  0.00    -0.005 C 
ATOM     13  C   UNL     1       1.350   0.225   6.113  0.00  0.00    -0.002 C 
BRANCH  13  19
ATOM     14  C   UNL     1       0.611  -2.071   5.912  0.00  0.00    -0.078 C 
ATOM     15  C   UNL     1       1.049  -3.528   6.078  0.00  0.00    -0.019 C 
ATOM     16  C   UNL     1       1.352  -3.800   7.554  0.00  0.00    -0.004 C 
ATOM     17  C   UNL     1       2.433  -2.827   8.033  0.00  0.00    -0.019 C 
ATOM     18  C   UNL     1       1.954  -1.391   7.811  0.00  0.00    -0.078 C 
ATOM     19  N   UNL     1       1.704  -1.186   6.368  0.00  0.00    +0.386 N 
ATOM     20  H   UNL     1       2.557  -1.416   5.846  0.00  0.00    -0.081 HD
ENDBRANCH  13  19
ENDBRANCH   1  13
BRANCH   4  21
ATOM     21  S   UNL     1      -0.850   1.686   1.497  0.00  0.00    -0.076 S 
BRANCH  21  22
ATOM     22  C   UNL     1      -0.005   1.099   0.008  0.00  0.00    +0.173 C 
BRANCH  22  23
ATOM     23  C   UNL     1      -0.739   1.589  -1.213  0.00  0.00    +0.228 C 
ATOM     24  O   UNL     1      -1.736   2.268  -1.089  0.00  0.00    -0.275 OA
ATOM     25  N   UNL     1      -0.288   1.272  -2.443  0.00  0.00    -0.284 N 
ATOM     26  H   UNL     1       0.544   0.785  -2.544  0.00  0.00    +0.155 HD
BRANCH  25  27
ATOM     27  C   UNL     1      -1.020   1.646  -3.572  0.00  0.00    +0.041 A 
ATOM     28  C   UNL     1      -1.717   2.834  -3.587  0.00  0.00    +0.024 A 
ATOM     29  C   UNL     1      -2.449   3.216  -4.707  0.00  0.00    +0.002 A 
ATOM     30  C   UNL     1      -2.497   2.428  -5.817  0.00  0.00    +0.008 A 
ATOM     31  C   UNL     1      -1.800   1.209  -5.843  0.00  0.00    -0.016 A 
ATOM     32  C   UNL     1      -1.047   0.812  -4.710  0.00  0.00    +0.003 A 
ATOM     33  C   UNL     1      -0.354  -0.409  -4.736  0.00  0.00    +0.010 A 
ATOM     34  C   UNL     1      -0.407  -1.190  -5.849  0.00  0.00    +0.001 A 
ATOM     35  C   UNL     1      -1.144  -0.799  -6.965  0.00  0.00    +0.001 A 
ATOM     36  C   UNL     1      -1.831   0.375  -6.975  0.00  0.00    +0.008 A 
ENDBRANCH  25  27
ENDBRANCH  22  23
ENDBRANCH  21  22
ENDBRANCH   4  21
TORSDOF 7
