REMARK  Name = ZINC39686175
REMARK  7 active torsions:
REMARK  status: ('A' for Active; 'I' for Inactive)
REMARK    1  A    between atoms: C_1  and  C_2
REMARK    2  A    between atoms: C_2  and  C_3
REMARK    3  A    between atoms: C_2  and  C_4
REMARK    4  A    between atoms: C_4  and  C_5
REMARK    5  A    between atoms: C_10  and  N_13
REMARK    6  A    between atoms: C_14  and  C_16
REMARK    7  A    between atoms: C_27  and  C_29
REMARK                            x       y       z     vdW  Elec       q    Type
REMARK                         _______ _______ _______ _____ _____    ______ ____
ROOT
ATOM      1  C   UNL     1       7.764  -4.204  -4.745  0.00  0.00    +0.100 C 
ATOM      2  C   UNL     1       7.008  -5.266  -5.574  0.00  0.00    +0.121 C 
ATOM      3  N   UNL     1       7.424  -5.013  -6.974  0.00  0.00    -0.296 N 
ATOM      4  C   UNL     1       8.867  -4.687  -6.877  0.00  0.00    +0.115 C 
ATOM      5  C   UNL     1       8.985  -3.829  -5.601  0.00  0.00    -0.004 C 
ATOM      6  C   UNL     1      10.275  -4.164  -4.858  0.00  0.00    -0.010 C 
ATOM      7  C   UNL     1      11.475  -3.729  -5.704  0.00  0.00    -0.082 C 
ATOM      8  N   UNL     1      11.396  -2.286  -5.964  0.00  0.00    +0.379 N 
ATOM      9  C   UNL     1      10.199  -1.985  -6.760  0.00  0.00    -0.082 C 
ATOM     10  C   UNL     1       8.946  -2.346  -5.958  0.00  0.00    -0.010 C 
ATOM     11  C   UNL     1       6.663  -5.068  -8.085  0.00  0.00    +0.249 C 
ATOM     12  O   UNL     1       7.155  -4.832  -9.171  0.00  0.00    -0.270 OA
ATOM     13  H   UNL     1      11.347  -1.790  -5.087  0.00  0.00    -0.086 HD
ATOM     14  H   UNL     1      12.217  -1.991  -6.469  0.00  0.00    -0.086 HD
ENDROOT
BRANCH  11  15
ATOM     15  C   UNL     1       5.230  -5.413  -7.982  0.00  0.00    +0.073 A 
ATOM     16  C   UNL     1       4.276  -4.407  -7.809  0.00  0.00    +0.054 A 
ATOM     17  C   UNL     1       2.938  -4.739  -7.714  0.00  0.00    +0.021 A 
ATOM     18  C   UNL     1       2.543  -6.062  -7.789  0.00  0.00    +0.003 A 
ATOM     19  C   UNL     1       3.482  -7.063  -7.960  0.00  0.00    +0.021 A 
ATOM     20  C   UNL     1       4.822  -6.748  -8.063  0.00  0.00    +0.054 A 
ATOM     21 CL   UNL     1       5.998  -8.005  -8.284  0.00  0.00    -0.083 Cl
ATOM     22 CL   UNL     1       4.770  -2.746  -7.713  0.00  0.00    -0.083 Cl
ENDBRANCH  11  15
BRANCH   1  24
ATOM     23  N   UNL     1       7.082  -2.221  -3.432  0.00  0.00    -0.312 N 
ATOM     24  C   UNL     1       6.892  -2.996  -4.519  0.00  0.00    +0.218 C 
ATOM     25  O   UNL     1       6.019  -2.721  -5.314  0.00  0.00    -0.275 OA
ATOM     26  H   UNL     1       7.780  -2.441  -2.796  0.00  0.00    +0.149 HD
BRANCH  23  32
ATOM     27  C   UNL     1       6.003   2.805  -1.804  0.00  0.00    +0.216 C 
ATOM     28  O   UNL     1       6.375   3.713  -2.517  0.00  0.00    -0.276 OA
ATOM     29  N   UNL     1       5.736   1.596  -2.337  0.00  0.00    -0.301 N 
ATOM     30  C   UNL     1       5.279   0.487  -1.488  0.00  0.00    +0.109 C 
ATOM     31  C   UNL     1       6.195  -0.719  -1.718  0.00  0.00    +0.041 C 
ATOM     32  C   UNL     1       6.234  -1.047  -3.212  0.00  0.00    +0.076 C 
ATOM     33  C   UNL     1       6.804   0.145  -3.983  0.00  0.00    +0.041 C 
ATOM     34  C   UNL     1       5.891   1.363  -3.780  0.00  0.00    +0.109 C 
BRANCH  27  35
ATOM     35  C   UNL     1       5.840   3.027  -0.323  0.00  0.00    +0.099 C 
BRANCH  35  37
ATOM     36  C   UNL     1       5.205   5.422  -0.646  0.00  0.00    +0.008 C 
ATOM     37  C   UNL     1       6.205   4.474   0.019  0.00  0.00    -0.008 C 
ATOM     38  C   UNL     1       6.160   4.666   1.536  0.00  0.00    +0.008 C 
ENDBRANCH  35  37
ENDBRANCH  27  35
ENDBRANCH  23  32
ENDBRANCH   1  24
TORSDOF 5
