REMARK  Name = ZINC19931999
REMARK  7 active torsions:
REMARK  status: ('A' for Active; 'I' for Inactive)
REMARK    1  A    between atoms: C_1  and  C_2
REMARK    2  A    between atoms: C_2  and  C_4
REMARK    3  A    between atoms: C_2  and  N_12
REMARK    4  A    between atoms: C_4  and  C_5
REMARK    5  A    between atoms: C_5  and  C_6
REMARK    6  A    between atoms: C_31  and  C_33
REMARK    7  A    between atoms: C_31  and  C_34
REMARK                            x       y       z     vdW  Elec       q    Type
REMARK                         _______ _______ _______ _____ _____    ______ ____
ROOT
ATOM      1  N   UNL     1       1.393   1.506  -0.129  0.00  0.00    -0.324 N 
ATOM      2  C   UNL     1       2.377   0.856   0.600  0.00  0.00    +0.159 A 
ATOM      3  C   UNL     1       3.686   1.319   0.613  0.00  0.00    +0.083 A 
ATOM      4  C   UNL     1       4.666   0.650   1.362  0.00  0.00    +0.115 A 
ATOM      5  C   UNL     1       6.020   1.231   1.312  0.00  0.00    +0.039 A 
ATOM      6  C   UNL     1       7.183   0.730   1.978  0.00  0.00    -0.027 A 
ATOM      7  C   UNL     1       8.354   1.377   1.801  0.00  0.00    +0.006 A 
ATOM      8  C   UNL     1       8.401   2.528   0.989  0.00  0.00    +0.127 A 
ATOM      9  N   UNL     1       7.325   2.986   0.379  0.00  0.00    -0.225 NA
ATOM     10  C   UNL     1       6.169   2.371   0.513  0.00  0.00    +0.113 A 
ATOM     11  S   UNL     1       4.544   2.674  -0.137  0.00  0.00    -0.063 S 
ATOM     12  N   UNL     1       9.607   3.195   0.827  0.00  0.00    -0.311 N 
ATOM     13  C   UNL     1       9.520   4.572   1.336  0.00  0.00    +0.134 C 
ATOM     14  C   UNL     1      10.885   5.250   1.193  0.00  0.00    +0.178 C 
ATOM     15  O   UNL     1      11.294   5.203  -0.177  0.00  0.00    -0.377 OA
ATOM     16  C   UNL     1      11.390   3.878  -0.704  0.00  0.00    +0.178 C 
ATOM     17  C   UNL     1      10.030   3.185  -0.581  0.00  0.00    +0.134 C 
ATOM     18  C   UNL     1       9.684   0.967   2.388  0.00  0.00    +0.108 C 
ATOM     19  S   UNL     1       9.431  -0.158   3.789  0.00  0.00    -0.149 S 
ATOM     20  C   UNL     1       8.174  -1.296   3.124  0.00  0.00    +0.015 C 
ATOM     21  C   UNL     1       6.924  -0.479   2.829  0.00  0.00    +0.053 C 
ATOM     22  C   UNL     1       7.854  -2.378   4.158  0.00  0.00    +0.023 C 
ATOM     23  C   UNL     1       8.687  -1.944   1.837  0.00  0.00    +0.023 C 
ATOM     24  N   UNL     1       4.243  -0.445   2.030  0.00  0.00    -0.128 NA
ATOM     25  N   UNL     1       3.023  -0.831   1.977  0.00  0.00    -0.041 NA
ATOM     26  N   UNL     1       2.102  -0.240   1.308  0.00  0.00    -0.113 NA
ATOM     27  H   UNL     1       1.642   2.408  -0.707  0.00  0.00    +0.148 HD
ENDROOT
BRANCH   1  29
ATOM     28  C   UNL     1      -0.728   1.534   1.089  0.00  0.00    +0.028 C 
ATOM     29  C   UNL     1       0.021   0.991  -0.130  0.00  0.00    +0.069 C 
BRANCH  29  30
ATOM     30  C   UNL     1      -0.691   1.438  -1.408  0.00  0.00    +0.026 C 
BRANCH  30  31
ATOM     31  C   UNL     1      -0.016   0.794  -2.620  0.00  0.00    +0.037 C 
BRANCH  31  32
ATOM     32  C   UNL     1      -0.718   1.235  -3.879  0.00  0.00    -0.047 A 
ATOM     33  C   UNL     1      -1.777   0.498  -4.374  0.00  0.00    +0.003 A 
ATOM     34  C   UNL     1      -2.424   0.905  -5.526  0.00  0.00    +0.000 A 
ATOM     35  C   UNL     1      -2.005   2.043  -6.188  0.00  0.00    +0.000 A 
ATOM     36  C   UNL     1      -0.942   2.777  -5.696  0.00  0.00    +0.000 A 
ATOM     37  C   UNL     1      -0.299   2.373  -4.541  0.00  0.00    +0.003 A 
ENDBRANCH  31  32
ENDBRANCH  30  31
ENDBRANCH  29  30
ENDBRANCH   1  29
TORSDOF 4
