REMARK  Name = ZINC37423244
REMARK  12 active torsions:
REMARK  status: ('A' for Active; 'I' for Inactive)
REMARK    1  A    between atoms: C_1  and  C_2
REMARK    2  A    between atoms: C_2  and  C_3
REMARK    3  A    between atoms: C_3  and  C_5
REMARK    4  A    between atoms: C_3  and  N_6
REMARK    5  A    between atoms: C_7  and  C_9
REMARK    6  A    between atoms: C_9  and  N_10
REMARK    7  A    between atoms: C_13  and  C_23
REMARK    8  A    between atoms: N_15  and  C_16
REMARK    9  A    between atoms: C_23  and  C_24
REMARK   10  A    between atoms: C_23  and  C_25
REMARK   11  A    between atoms: C_23  and  C_26
REMARK   12  A    between atoms: C_27  and  C_33
REMARK                            x       y       z     vdW  Elec       q    Type
REMARK                         _______ _______ _______ _____ _____    ______ ____
ROOT
ATOM      1  N   UNL     1      -8.877   1.441  -5.718  0.00  0.00    -0.246 N 
ATOM      2  C   UNL     1      -8.463   0.245  -5.113  0.00  0.00    +0.136 A 
ATOM      3  C   UNL     1      -9.302  -0.767  -4.793  0.00  0.00    +0.034 A 
ATOM      4  C   UNL     1      -8.546  -1.782  -4.206  0.00  0.00    +0.075 A 
ATOM      5  N   UNL     1      -7.293  -1.395  -4.177  0.00  0.00    -0.169 NA
ATOM      6  N   UNL     1      -7.211  -0.115  -4.746  0.00  0.00    -0.218 N 
ATOM      7  C   UNL     1     -10.788  -0.766  -5.047  0.00  0.00    +0.112 C 
ATOM      8  S   UNL     1     -11.583   0.367  -3.852  0.00  0.00    -0.138 S 
ATOM      9  C   UNL     1     -10.409   1.763  -3.820  0.00  0.00    +0.166 C 
ATOM     10  C   UNL     1      -9.926   2.088  -5.199  0.00  0.00    +0.231 C 
ATOM     11  O   UNL     1     -10.493   2.940  -5.850  0.00  0.00    -0.274 OA
ENDROOT
BRANCH   6  12
ATOM     12  C   UNL     1      -6.046   0.649  -4.907  0.00  0.00    +0.068 A 
ATOM     13  C   UNL     1      -6.071   2.015  -4.658  0.00  0.00    +0.030 A 
ATOM     14  C   UNL     1      -4.923   2.766  -4.817  0.00  0.00    +0.040 A 
ATOM     15  C   UNL     1      -3.748   2.158  -5.224  0.00  0.00    +0.124 A 
ATOM     16  C   UNL     1      -3.721   0.796  -5.473  0.00  0.00    +0.040 A 
ATOM     17  C   UNL     1      -4.865   0.041  -5.310  0.00  0.00    +0.030 A 
ATOM     18  F   UNL     1      -2.626   2.895  -5.379  0.00  0.00    -0.205 F 
ENDBRANCH   6  12
BRANCH   7  19
ATOM     19  C   UNL     1     -11.333  -2.160  -4.868  0.00  0.00    -0.023 A 
ATOM     20  C   UNL     1     -11.211  -3.096  -5.878  0.00  0.00    +0.012 A 
ATOM     21  C   UNL     1     -11.712  -4.341  -5.684  0.00  0.00    +0.045 A 
ATOM     22  S   UNL     1     -12.383  -4.216  -4.034  0.00  0.00    -0.105 S 
ATOM     23  C   UNL     1     -11.945  -2.516  -3.712  0.00  0.00    +0.050 A 
ENDBRANCH   7  19
BRANCH   4  24
ATOM     24  C   UNL     1      -9.077  -3.097  -3.695  0.00  0.00    +0.007 C 
ATOM     25  C   UNL     1      -9.350  -4.031  -4.875  0.00  0.00    +0.017 C 
ATOM     26  C   UNL     1      -8.043  -3.737  -2.766  0.00  0.00    +0.017 C 
ATOM     27  C   UNL     1     -10.376  -2.856  -2.923  0.00  0.00    +0.017 C 
ENDBRANCH   4  24
BRANCH   1  28
ATOM     28  C   UNL     1      -8.172   1.973  -6.887  0.00  0.00    +0.210 C 
BRANCH  28  30
ATOM     29  N   UNL     1      -8.465   1.982  -9.343  0.00  0.00    -0.311 N 
ATOM     30  C   UNL     1      -8.875   1.527  -8.143  0.00  0.00    +0.231 C 
ATOM     31  O   UNL     1      -9.811   0.758  -8.074  0.00  0.00    -0.274 OA
ATOM     32  H   UNL     1      -7.672   2.538  -9.405  0.00  0.00    +0.149 HD
BRANCH  29  33
ATOM     33  C   UNL     1      -9.215   1.638 -10.553  0.00  0.00    +0.070 C 
ATOM     34  C   UNL     1     -10.307   2.683 -10.790  0.00  0.00    +0.028 C 
BRANCH  33  36
ATOM     35  C   UNL     1      -7.247   0.484 -11.572  0.00  0.00    +0.005 C 
ATOM     36  C   UNL     1      -8.265   1.612 -11.752  0.00  0.00    +0.018 C 
ENDBRANCH  33  36
ENDBRANCH  29  33
ENDBRANCH  28  30
ENDBRANCH   1  28
TORSDOF 7
