REMARK  Name = ZINC66476393
REMARK  10 active torsions:
REMARK  status: ('A' for Active; 'I' for Inactive)
REMARK    1  A    between atoms: C_1  and  C_2
REMARK    2  A    between atoms: C_7  and  C_8
REMARK    3  A    between atoms: C_11  and  S_13
REMARK    4  A    between atoms: S_13  and  C_14
REMARK    5  A    between atoms: C_14  and  C_15
REMARK    6  A    between atoms: C_15  and  C_17
REMARK    7  A    between atoms: C_15  and  O_28
REMARK    8  A    between atoms: C_17  and  N_18
REMARK    9  A    between atoms: C_20  and  C_27
REMARK   10  A    between atoms: C_23  and  C_26
REMARK                            x       y       z     vdW  Elec       q    Type
REMARK                         _______ _______ _______ _____ _____    ______ ____
ROOT
ATOM      1  S   UNL     1       0.034   0.354   6.358  0.00  0.00    -0.063 S 
ENDROOT
BRANCH   1   5
ATOM      2  C   UNL     1       0.024   0.016   2.493  0.00  0.00    +0.249 A 
ATOM      3  N   UNL     1       0.024   1.318   2.648  0.00  0.00    -0.106 NA
ATOM      4  N   UNL     1       0.027   1.598   3.904  0.00  0.00    -0.101 NA
ATOM      5  C   UNL     1       0.029   0.485   4.601  0.00  0.00    +0.278 A 
ATOM      6  O   UNL     1       0.022  -0.538   3.725  0.00  0.00    -0.411 OA
BRANCH   2  13
ATOM      7  C   UNL     1       0.029   1.502   0.010  0.00  0.00    +0.044 C 
ATOM      8  C   UNL     1       0.023  -0.004   0.002  0.00  0.00    -0.038 A 
ATOM      9  C   UNL     1       0.025  -0.690  -1.196  0.00  0.00    +0.004 A 
ATOM     10  C   UNL     1       0.020  -2.073  -1.205  0.00  0.00    +0.000 A 
ATOM     11  C   UNL     1       0.012  -2.779  -0.015  0.00  0.00    +0.001 A 
ATOM     12  C   UNL     1       0.009  -2.107   1.190  0.00  0.00    +0.013 A 
ATOM     13  C   UNL     1       0.020  -0.711   1.206  0.00  0.00    +0.041 A 
ENDBRANCH   2  13
ENDBRANCH   1   5
BRANCH   1  14
ATOM     14  C   UNL     1       0.034   2.077   6.926  0.00  0.00    +0.111 C 
BRANCH  14  15
ATOM     15  C   UNL     1       0.038   2.109   8.456  0.00  0.00    +0.139 C 
BRANCH  15  16
ATOM     16  O   UNL     1      -1.127   1.445   8.949  0.00  0.00    -0.390 OA
ATOM     17  H   UNL     1      -1.959   1.841   8.658  0.00  0.00    +0.210 HD
ENDBRANCH  15  16
BRANCH  15  18
ATOM     18  C   UNL     1       0.038   3.562   8.935  0.00  0.00    +0.116 C 
BRANCH  18  19
ATOM     19  N   UNL     1       0.055   3.593  10.403  0.00  0.00    -0.295 NA
ATOM     20  C   UNL     1      -0.401   4.896  10.908  0.00  0.00    +0.115 C 
ATOM     21  C   UNL     1      -0.425   4.865  12.439  0.00  0.00    +0.130 C 
ATOM     22  O   UNL     1       0.876   4.522  12.924  0.00  0.00    -0.371 OA
ATOM     23  C   UNL     1       1.352   3.259  12.452  0.00  0.00    +0.130 C 
ATOM     24  C   UNL     1       1.393   3.273  10.922  0.00  0.00    +0.115 C 
ATOM     25  C   UNL     1       2.758   3.005  13.000  0.00  0.00    +0.039 C 
ATOM     26  C   UNL     1      -1.439   3.822  12.913  0.00  0.00    +0.039 C 
ENDBRANCH  18  19
ENDBRANCH  15  18
ENDBRANCH  14  15
ENDBRANCH   1  14
TORSDOF 7
