REMARK  Name = ZINC13130131
REMARK  10 active torsions:
REMARK  status: ('A' for Active; 'I' for Inactive)
REMARK    1  A    between atoms: C_1  and  C_2
REMARK    2  A    between atoms: C_9  and  N_14
REMARK    3  A    between atoms: C_10  and  C_11
REMARK    4  A    between atoms: C_15  and  C_17
REMARK    5  A    between atoms: C_17  and  C_19
REMARK    6  A    between atoms: C_17  and  N_23
REMARK    7  A    between atoms: C_19  and  C_20
REMARK    8  A    between atoms: C_20  and  S_21
REMARK    9  A    between atoms: S_21  and  C_22
REMARK   10  A    between atoms: C_24  and  C_26
REMARK                            x       y       z     vdW  Elec       q    Type
REMARK                         _______ _______ _______ _____ _____    ______ ____
ROOT
ATOM      1  N   UNL     1      -1.368   1.234  -4.919  0.00  0.00    -0.278 N 
ATOM      2  C   UNL     1      -2.159   1.904  -5.780  0.00  0.00    +0.238 C 
ATOM      3  O   UNL     1      -2.847   2.821  -5.383  0.00  0.00    -0.273 OA
ATOM      4  H   UNL     1      -0.818   0.501  -5.236  0.00  0.00    +0.155 HD
ENDROOT
BRANCH   1  12
ATOM      5  C   UNL     1      -1.434   3.622   2.530  0.00  0.00    +0.008 C 
ATOM      6  C   UNL     1      -0.938   3.098   1.181  0.00  0.00    -0.009 C 
ATOM      7  C   UNL     1      -0.735   1.582   1.262  0.00  0.00    +0.008 C 
ATOM      8  C   UNL     1      -0.013   1.086   0.008  0.00  0.00    +0.037 C 
ATOM      9  C   UNL     1      -0.755   1.593  -1.222  0.00  0.00    -0.023 A 
ATOM     10  C   UNL     1      -1.621   2.627  -1.135  0.00  0.00    -0.004 A 
ATOM     11  S   UNL     1      -2.225   2.851  -2.784  0.00  0.00    -0.077 S 
ATOM     12  C   UNL     1      -1.341   1.591  -3.579  0.00  0.00    +0.084 A 
ATOM     13  C   UNL     1      -0.600   1.027  -2.551  0.00  0.00    +0.068 A 
ATOM     14  C   UNL     1      -1.980   3.403   0.095  0.00  0.00    +0.046 C 
BRANCH  13  15
ATOM     15  C   UNL     1       0.307  -0.099  -2.796  0.00  0.00    +0.244 C 
ATOM     16  O   UNL     1      -0.102  -1.241  -2.702  0.00  0.00    -0.270 OA
ATOM     17  N   UNL     1       1.593   0.132  -3.126  0.00  0.00    -0.325 N 
ATOM     18  H   UNL     1       1.919   1.042  -3.201  0.00  0.00    +0.145 HD
ATOM     19  H   UNL     1       2.193  -0.613  -3.288  0.00  0.00    +0.145 HD
ENDBRANCH  13  15
ENDBRANCH   1  12
BRANCH   2  20
ATOM     20  C   UNL     1      -2.189   1.515  -7.235  0.00  0.00    +0.160 C 
BRANCH  20  21
ATOM     21  N   UNL     1      -3.119   2.389  -7.955  0.00  0.00    -0.300 N 
ATOM     22  C   UNL     1      -3.699   1.962  -9.095  0.00  0.00    +0.246 C 
ATOM     23  O   UNL     1      -3.450   0.853  -9.525  0.00  0.00    -0.270 OA
ATOM     24  H   UNL     1      -3.317   3.274  -7.612  0.00  0.00    +0.150 HD
BRANCH  22  25
ATOM     25  C   UNL     1      -4.636   2.843  -9.821  0.00  0.00    +0.055 A 
ATOM     26  C   UNL     1      -4.924   4.118  -9.329  0.00  0.00    +0.016 A 
ATOM     27  C   UNL     1      -5.799   4.935 -10.011  0.00  0.00    +0.021 A 
ATOM     28  C   UNL     1      -6.394   4.495 -11.183  0.00  0.00    +0.042 A 
ATOM     29  C   UNL     1      -6.114   3.232 -11.676  0.00  0.00    +0.040 A 
ATOM     30  C   UNL     1      -5.235   2.405 -11.005  0.00  0.00    +0.054 A 
ATOM     31 CL   UNL     1      -4.878   0.825 -11.629  0.00  0.00    -0.083 Cl
ATOM     32 CL   UNL     1      -7.496   5.531 -12.035  0.00  0.00    -0.083 Cl
ENDBRANCH  22  25
ENDBRANCH  20  21
BRANCH  20  33
ATOM     33  C   UNL     1      -0.787   1.661  -7.831  0.00  0.00    +0.042 C 
BRANCH  33  34
ATOM     34  C   UNL     1      -0.789   1.149  -9.272  0.00  0.00    +0.071 C 
BRANCH  34  35
ATOM     35  S   UNL     1       0.873   1.323  -9.978  0.00  0.00    -0.164 S 
ATOM     36  C   UNL     1       0.702   0.680 -11.666  0.00  0.00    +0.084 C 
ENDBRANCH  34  35
ENDBRANCH  33  34
ENDBRANCH  20  33
ENDBRANCH   2  20
TORSDOF 8
