REMARK  Name = ZINC04168303
REMARK  13 active torsions:
REMARK  status: ('A' for Active; 'I' for Inactive)
REMARK    1  A    between atoms: C_1  and  C_2
REMARK    2  A    between atoms: C_2  and  C_3
REMARK    3  A    between atoms: C_2  and  C_4
REMARK    4  A    between atoms: C_2  and  C_5
REMARK    5  A    between atoms: C_12  and  N_30
REMARK    6  A    between atoms: C_13  and  C_28
REMARK    7  A    between atoms: C_14  and  C_16
REMARK    8  A    between atoms: C_19  and  O_26
REMARK    9  A    between atoms: C_20  and  O_24
REMARK   10  A    between atoms: C_21  and  O_22
REMARK   11  A    between atoms: O_22  and  C_23
REMARK   12  A    between atoms: O_24  and  C_25
REMARK   13  A    between atoms: O_26  and  C_27
REMARK                            x       y       z     vdW  Elec       q    Type
REMARK                         _______ _______ _______ _____ _____    ______ ____
ROOT
ATOM      1  C   UNL     1       0.050   0.110  -1.262  0.00  0.00    +0.049 A 
ATOM      2  C   UNL     1       0.307  -1.020  -1.938  0.00  0.00    +0.050 A 
ATOM      3  C   UNL     1       0.852  -0.666  -3.193  0.00  0.00    +0.245 A 
ATOM      4  N   UNL     1       0.912   0.633  -3.254  0.00  0.00    -0.135 NA
ATOM      5  N   UNL     1       0.408   1.151  -2.050  0.00  0.00    -0.277 N 
ATOM      6  H   UNL     1       0.331   2.090  -1.822  0.00  0.00    +0.189 HD
ATOM      7  O   UNL     1       1.220  -1.601  -4.109  0.00  0.00    -0.421 OA
ATOM      8  C   UNL     1       1.306  -2.879  -3.690  0.00  0.00    +0.201 C 
ATOM      9  C   UNL     1       0.814  -3.336  -2.520  0.00  0.00    +0.098 C 
ATOM     10  C   UNL     1       0.094  -2.455  -1.531  0.00  0.00    +0.105 C 
ENDROOT
BRANCH  10  11
ATOM     11  C   UNL     1      -1.379  -2.774  -1.544  0.00  0.00    +0.011 A 
ATOM     12  C   UNL     1      -1.936  -3.507  -0.512  0.00  0.00    +0.012 A 
ATOM     13  C   UNL     1      -3.286  -3.802  -0.520  0.00  0.00    +0.050 A 
ATOM     14  C   UNL     1      -4.088  -3.364  -1.563  0.00  0.00    +0.165 A 
ATOM     15  C   UNL     1      -3.532  -2.626  -2.602  0.00  0.00    +0.204 A 
ATOM     16  C   UNL     1      -2.175  -2.327  -2.588  0.00  0.00    +0.169 A 
BRANCH  16  17
ATOM     17  O   UNL     1      -1.627  -1.601  -3.599  0.00  0.00    -0.491 OA
ATOM     18  C   UNL     1      -1.330  -2.298  -4.811  0.00  0.00    +0.277 C 
ENDBRANCH  16  17
BRANCH  15  19
ATOM     19  O   UNL     1      -4.315  -2.194  -3.627  0.00  0.00    -0.488 OA
ATOM     20  C   UNL     1      -4.928  -0.912  -3.479  0.00  0.00    +0.277 C 
ENDBRANCH  15  19
BRANCH  14  21
ATOM     21  O   UNL     1      -5.416  -3.655  -1.570  0.00  0.00    -0.491 OA
ATOM     22  C   UNL     1      -5.918  -4.418  -0.470  0.00  0.00    +0.277 C 
ENDBRANCH  14  21
ENDBRANCH  10  11
BRANCH   1  24
ATOM     23  C   UNL     1      -0.525   1.662   0.584  0.00  0.00    +0.017 C 
ATOM     24  C   UNL     1      -0.536   0.203   0.123  0.00  0.00    +0.004 C 
ATOM     25  C   UNL     1       0.297  -0.643   1.088  0.00  0.00    +0.017 C 
ATOM     26  C   UNL     1      -1.976  -0.314   0.103  0.00  0.00    +0.017 C 
ENDBRANCH   1  24
BRANCH   8  27
ATOM     27  N   UNL     1       1.938  -3.779  -4.512  0.00  0.00    -0.328 N 
ATOM     28  H   UNL     1       2.305  -3.486  -5.361  0.00  0.00    +0.145 HD
ATOM     29  H   UNL     1       2.019  -4.708  -4.243  0.00  0.00    +0.145 HD
ENDBRANCH   8  27
BRANCH   9  30
ATOM     30  C   UNL     1       0.982  -4.722  -2.203  0.00  0.00    +0.101 C 
ATOM     31  N   UNL     1       1.116  -5.822  -1.951  0.00  0.00    -0.191 NA
ENDBRANCH   9  30
TORSDOF 7
