REMARK  Name = ZINC07349455
REMARK  7 active torsions:
REMARK  status: ('A' for Active; 'I' for Inactive)
REMARK    1  A    between atoms: C_4  and  O_30
REMARK    2  A    between atoms: C_5  and  N_7
REMARK    3  A    between atoms: C_12  and  C_13
REMARK    4  A    between atoms: C_12  and  N_63
REMARK    5  A    between atoms: N_15  and  C_16
REMARK    6  A    between atoms: N_15  and  C_24
REMARK    7  A    between atoms: C_16  and  C_17
REMARK                            x       y       z     vdW  Elec       q    Type
REMARK                         _______ _______ _______ _____ _____    ______ ____
ROOT
ATOM      1  C   UNL     1       0.243   1.353  -0.110  0.00  0.00    +0.200 C 
ATOM      2  O   UNL     1       1.102   2.198   0.030  0.00  0.00    -0.278 OA
ATOM      3  N   UNL     1      -1.031   1.622   0.239  0.00  0.00    -0.296 N 
ENDROOT
BRANCH   3   4
ATOM      4  C   UNL     1      -1.400   2.970   0.681  0.00  0.00    +0.076 C 
ATOM      5  C   UNL     1      -1.036   3.981  -0.408  0.00  0.00    +0.022 C 
ATOM      6  C   UNL     1      -1.422   5.388   0.053  0.00  0.00    +0.002 C 
ATOM      7  C   UNL     1      -0.664   5.729   1.338  0.00  0.00    +0.000 C 
ATOM      8  C   UNL     1      -1.028   4.717   2.427  0.00  0.00    +0.002 C 
ATOM      9  C   UNL     1      -0.642   3.310   1.966  0.00  0.00    +0.022 C 
ENDBRANCH   3   4
BRANCH   1  10
ATOM     10  C   UNL     1       0.601  -0.000  -0.668  0.00  0.00    +0.019 C 
BRANCH  10  16
ATOM     11  N   UNL     1       4.144  -0.411  -2.932  0.00  0.00    -0.331 N 
ATOM     12  C   UNL     1       3.945  -1.319  -1.794  0.00  0.00    +0.086 C 
ATOM     13  C   UNL     1       2.459  -1.355  -1.427  0.00  0.00    -0.059 C 
ATOM     14  C   UNL     1       2.204   0.912  -2.237  0.00  0.00    -0.059 C 
ATOM     15  C   UNL     1       3.690   0.948  -2.604  0.00  0.00    +0.086 C 
ATOM     16  N   UNL     1       2.021   0.013  -1.078  0.00  0.00    +0.387 N 
ATOM     17  H   UNL     1       2.591   0.356  -0.296  0.00  0.00    -0.081 HD
BRANCH  11  22
ATOM     18  C   UNL     1       7.571   0.740  -3.605  0.00  0.00    +0.002 A 
ATOM     19  C   UNL     1       8.130  -0.399  -4.155  0.00  0.00    +0.004 A 
ATOM     20  C   UNL     1       7.370  -1.545  -4.301  0.00  0.00    +0.047 A 
ATOM     21  C   UNL     1       6.046  -1.554  -3.897  0.00  0.00    +0.138 A 
ATOM     22  C   UNL     1       5.482  -0.407  -3.342  0.00  0.00    +0.072 A 
ATOM     23  C   UNL     1       6.249   0.741  -3.204  0.00  0.00    +0.027 A 
BRANCH  21  24
ATOM     24  O   UNL     1       5.297  -2.680  -4.041  0.00  0.00    -0.505 OA
ATOM     25  H   UNL     1       4.774  -2.704  -4.854  0.00  0.00    +0.292 HD
ENDBRANCH  21  24
ENDBRANCH  11  22
ENDBRANCH  10  16
ENDBRANCH   1  10
BRANCH   3  26
ATOM     26  C   UNL     1      -2.046   0.568   0.177  0.00  0.00    +0.143 C 
BRANCH  26  27
ATOM     27  C   UNL     1      -2.204  -0.059   1.538  0.00  0.00    -0.030 A 
ATOM     28  C   UNL     1      -1.425  -1.144   1.893  0.00  0.00    +0.008 A 
ATOM     29  C   UNL     1      -1.565  -1.717   3.143  0.00  0.00    +0.038 A 
ATOM     30  C   UNL     1      -2.493  -1.210   4.036  0.00  0.00    +0.123 A 
ATOM     31  C   UNL     1      -3.276  -0.126   3.678  0.00  0.00    +0.038 A 
ATOM     32  C   UNL     1      -3.131   0.449   2.429  0.00  0.00    +0.008 A 
ATOM     33  F   UNL     1      -2.635  -1.772   5.256  0.00  0.00    -0.205 F 
ENDBRANCH  26  27
ENDBRANCH   3  26
TORSDOF 7
