REMARK  Name = ZINC36512556
REMARK  15 active torsions:
REMARK  status: ('A' for Active; 'I' for Inactive)
REMARK    1  A    between atoms: C_1  and  C_2
REMARK    2  A    between atoms: C_2  and  C_3
REMARK    3  A    between atoms: C_3  and  C_4
REMARK    4  A    between atoms: C_4  and  C_5
REMARK    5  A    between atoms: C_5  and  C_6
REMARK    6  A    between atoms: C_6  and  N_7
REMARK    7  A    between atoms: N_7  and  C_8
REMARK    8  A    between atoms: C_8  and  C_10
REMARK    9  A    between atoms: C_8  and  C_15
REMARK   10  A    between atoms: N_17  and  C_18
REMARK   11  A    between atoms: C_18  and  S_19
REMARK   12  A    between atoms: S_19  and  C_22
REMARK   13  A    between atoms: C_25  and  C_28
REMARK   14  A    between atoms: C_29  and  C_31
REMARK   15  A    between atoms: C_36  and  O_37
REMARK                            x       y       z     vdW  Elec       q    Type
REMARK                         _______ _______ _______ _____ _____    ______ ____
ROOT
ATOM      1  C   UNL     1      -4.980  -4.705  -1.231  0.00  0.00    +0.228 C 
ENDROOT
BRANCH   1   2
ATOM      2  C   UNL     1      -6.272  -3.933  -1.147  0.00  0.00    +0.134 A 
ATOM      3  C   UNL     1      -6.822  -3.210  -2.138  0.00  0.00    +0.047 A 
ATOM      4  C   UNL     1      -8.020  -2.659  -1.627  0.00  0.00    +0.041 A 
ATOM      5  C   UNL     1      -8.130  -3.079  -0.354  0.00  0.00    +0.195 A 
ATOM      6  O   UNL     1      -7.071  -3.855  -0.070  0.00  0.00    -0.465 OA
ENDBRANCH   1   2
BRANCH   1   7
ATOM      7  C   UNL     1      -5.282  -6.163  -1.465  0.00  0.00    +0.242 C 
ATOM      8  O   UNL     1      -4.913  -6.995  -0.663  0.00  0.00    -0.273 OA
ATOM      9  N   UNL     1      -5.961  -6.543  -2.566  0.00  0.00    -0.294 N 
ATOM     10  H   UNL     1      -6.256  -5.878  -3.207  0.00  0.00    +0.150 HD
BRANCH   9  11
ATOM     11  C   UNL     1      -6.253  -7.960  -2.793  0.00  0.00    +0.278 C 
BRANCH  11  12
ATOM     12  S   UNL     1      -7.912  -8.343  -2.166  0.00  0.00    +0.013 S 
ATOM     13  O   UNL     1      -8.236  -9.700  -2.436  0.00  0.00    -0.168 OA
ATOM     14  O   UNL     1      -8.079  -7.805  -0.862  0.00  0.00    -0.168 OA
BRANCH  12  15
ATOM     15  C   UNL     1      -9.007  -7.409  -3.182  0.00  0.00    +0.090 A 
ATOM     16  C   UNL     1      -9.356  -6.121  -2.820  0.00  0.00    +0.027 A 
ATOM     17  C   UNL     1     -10.215  -5.388  -3.616  0.00  0.00    +0.005 A 
ATOM     18  C   UNL     1     -10.726  -5.942  -4.776  0.00  0.00    -0.050 A 
ATOM     19  C   UNL     1     -10.376  -7.229  -5.138  0.00  0.00    +0.005 A 
ATOM     20  C   UNL     1      -9.513  -7.961  -4.343  0.00  0.00    +0.027 A 
ATOM     21  C   UNL     1     -11.663  -5.143  -5.644  0.00  0.00    +0.044 C 
ENDBRANCH  12  15
ENDBRANCH  11  12
ENDBRANCH   9  11
ENDBRANCH   1   7
BRANCH   1  22
ATOM     22  N   UNL     1      -4.239  -4.555   0.023  0.00  0.00    -0.279 N 
ATOM     23  C   UNL     1      -4.787  -4.965   1.184  0.00  0.00    +0.251 C 
ATOM     24  O   UNL     1      -5.860  -5.538   1.181  0.00  0.00    -0.270 OA
BRANCH  23  25
ATOM     25  C   UNL     1      -4.087  -4.718   2.459  0.00  0.00    +0.078 A 
ATOM     26  C   UNL     1      -2.805  -5.233   2.667  0.00  0.00    +0.017 A 
ATOM     27  C   UNL     1      -2.156  -4.999   3.860  0.00  0.00    +0.001 A 
ATOM     28  C   UNL     1      -2.769  -4.254   4.855  0.00  0.00    +0.004 A 
ATOM     29  C   UNL     1      -4.035  -3.739   4.662  0.00  0.00    +0.046 A 
ATOM     30  C   UNL     1      -4.701  -3.961   3.465  0.00  0.00    +0.129 A 
BRANCH  30  31
ATOM     31  O   UNL     1      -5.944  -3.451   3.272  0.00  0.00    -0.506 OA
ATOM     32  H   UNL     1      -6.658  -4.038   3.554  0.00  0.00    +0.292 HD
ENDBRANCH  30  31
ENDBRANCH  23  25
BRANCH  22  33
ATOM     33  C   UNL     1      -2.900  -3.960   0.016  0.00  0.00    +0.109 C 
BRANCH  33  34
ATOM     34  C   UNL     1      -3.019  -2.437   0.096  0.00  0.00    +0.019 C 
BRANCH  34  35
ATOM     35  C   UNL     1      -1.621  -1.815   0.088  0.00  0.00    +0.002 C 
BRANCH  35  36
ATOM     36  C   UNL     1      -1.740  -0.292   0.168  0.00  0.00    -0.000 C 
BRANCH  36  38
ATOM     37  C   UNL     1      -0.460   1.853   0.241  0.00  0.00    +0.004 C 
ATOM     38  C   UNL     1      -0.342   0.330   0.161  0.00  0.00    -0.003 C 
ENDBRANCH  36  38
ENDBRANCH  35  36
ENDBRANCH  34  35
ENDBRANCH  33  34
ENDBRANCH  22  33
ENDBRANCH   1  22
TORSDOF 13
