REMARK  Name = ZINC05587024
REMARK  7 active torsions:
REMARK  status: ('A' for Active; 'I' for Inactive)
REMARK    1  A    between atoms: C_1  and  C_2
REMARK    2  A    between atoms: C_9  and  C_11
REMARK    3  A    between atoms: N_13  and  N_14
REMARK    4  A    between atoms: C_15  and  C_16
REMARK    5  A    between atoms: C_19  and  N_22
REMARK    6  A    between atoms: N_22  and  C_23
REMARK    7  A    between atoms: N_22  and  C_24
REMARK                            x       y       z     vdW  Elec       q    Type
REMARK                         _______ _______ _______ _____ _____    ______ ____
ROOT
ATOM      1  C   UNL     1      -2.661   5.257   0.092  0.00  0.00    +0.236 C 
ATOM      2  O   UNL     1      -1.624   5.884   0.031  0.00  0.00    -0.274 OA
ATOM      3  N   UNL     1      -2.632   3.911   0.148  0.00  0.00    -0.207 N 
ATOM      4  H   UNL     1      -3.461   3.410   0.197  0.00  0.00    +0.177 HD
ENDROOT
BRANCH   1  12
ATOM      5  C   UNL     1      -6.452   5.710  -0.612  0.00  0.00    +0.012 C 
ATOM      6  C   UNL     1      -4.974   5.661  -1.003  0.00  0.00    -0.017 C 
ATOM      7  C   UNL     1      -4.628   4.609  -2.045  0.00  0.00    +0.008 C 
ATOM      8  C   UNL     1      -3.237   4.866  -2.625  0.00  0.00    +0.001 C 
ATOM      9  C   UNL     1      -3.190   6.300  -3.165  0.00  0.00    +0.000 C 
ATOM     10  C   UNL     1      -3.109   7.264  -1.981  0.00  0.00    +0.005 C 
ATOM     11  C   UNL     1      -4.245   6.998  -1.018  0.00  0.00    +0.008 C 
ATOM     12  C   UNL     1      -3.981   5.984   0.106  0.00  0.00    +0.086 C 
ENDBRANCH   1  12
BRANCH   3  13
ATOM     13  N   UNL     1      -1.405   3.235   0.136  0.00  0.00    -0.188 NA
ATOM     14  C   UNL     1      -1.377   1.938   0.190  0.00  0.00    +0.138 C 
BRANCH  14  15
ATOM     15  C   UNL     1      -0.086   1.228   0.177  0.00  0.00    -0.005 A 
ATOM     16  C   UNL     1       1.109   1.948   0.101  0.00  0.00    +0.011 A 
ATOM     17  C   UNL     1       2.313   1.280   0.083  0.00  0.00    +0.024 A 
ATOM     18  C   UNL     1       2.341  -0.110   0.141  0.00  0.00    +0.029 A 
ATOM     19  C   UNL     1       1.153  -0.830   0.217  0.00  0.00    +0.024 A 
ATOM     20  C   UNL     1      -0.055  -0.169   0.235  0.00  0.00    +0.011 A 
BRANCH  18  21
ATOM     21  N   UNL     1       3.562  -0.783   0.124  0.00  0.00    -0.336 N 
ATOM     22  C   UNL     1       3.601  -2.236   0.307  0.00  0.00    +0.129 C 
ATOM     23  C   UNL     1       4.807  -0.037  -0.078  0.00  0.00    +0.129 C 
ENDBRANCH  18  21
ENDBRANCH  14  15
ENDBRANCH   3  13
TORSDOF 4
