REMARK  Name = ZINC38507703
REMARK  11 active torsions:
REMARK  status: ('A' for Active; 'I' for Inactive)
REMARK    1  A    between atoms: C_1  and  C_2
REMARK    2  A    between atoms: C_2  and  C_3
REMARK    3  A    between atoms: C_2  and  N_4
REMARK    4  A    between atoms: C_7  and  C_9
REMARK    5  A    between atoms: C_9  and  N_11
REMARK    6  A    between atoms: N_13  and  C_25
REMARK    7  A    between atoms: C_17  and  S_21
REMARK    8  A    between atoms: S_21  and  N_24
REMARK    9  A    between atoms: C_25  and  C_26
REMARK   10  A    between atoms: C_26  and  O_27
REMARK   11  A    between atoms: O_27  and  C_28
REMARK                            x       y       z     vdW  Elec       q    Type
REMARK                         _______ _______ _______ _____ _____    ______ ____
ROOT
ATOM      1  N   UNL     1      -4.303  -1.357  -3.014  0.00  0.00    -0.151 NA
ATOM      2  C   UNL     1      -5.107  -2.089  -3.777  0.00  0.00    +0.167 A 
ATOM      3  N   UNL     1      -6.245  -2.735  -3.410  0.00  0.00    -0.319 N 
ATOM      4  C   UNL     1      -6.959  -3.454  -4.349  0.00  0.00    +0.058 A 
ATOM      5  C   UNL     1      -8.144  -4.187  -4.189  0.00  0.00    +0.029 A 
ATOM      6  C   UNL     1      -8.710  -4.844  -5.257  0.00  0.00    +0.030 A 
ATOM      7  C   UNL     1      -8.131  -4.802  -6.514  0.00  0.00    +0.106 A 
ATOM      8  C   UNL     1      -6.962  -4.085  -6.699  0.00  0.00    +0.045 A 
ATOM      9  C   UNL     1      -6.394  -3.428  -5.632  0.00  0.00    +0.041 A 
ATOM     10  S   UNL     1      -4.952  -2.418  -5.418  0.00  0.00    -0.052 S 
ENDROOT
BRANCH   7  11
ATOM     11  S   UNL     1      -8.876  -5.653  -7.865  0.00  0.00    +0.056 S 
ATOM     12  O   UNL     1      -7.842  -5.903  -8.807  0.00  0.00    -0.153 OA
ATOM     13  O   UNL     1      -9.664  -6.694  -7.305  0.00  0.00    -0.153 OA
BRANCH  11  14
ATOM     14  N   UNL     1      -9.929  -4.598  -8.588  0.00  0.00    -0.204 NA
ATOM     15  H   UNL     1     -10.031  -3.699  -8.238  0.00  0.00    +0.144 HD
ATOM     16  H   UNL     1     -10.444  -4.880  -9.360  0.00  0.00    +0.144 HD
ENDBRANCH  11  14
ENDBRANCH   7  11
BRANCH   1  17
ATOM     17  C   UNL     1      -4.454  -1.365  -1.685  0.00  0.00    +0.290 C 
ATOM     18  O   UNL     1      -5.060  -0.462  -1.135  0.00  0.00    -0.266 OA
BRANCH  17  22
ATOM     19  N   UNL     1      -2.861  -4.269  -0.368  0.00  0.00    -0.268 N 
ATOM     20  C   UNL     1      -3.301  -3.764   0.804  0.00  0.00    +0.109 A 
ATOM     21  C   UNL     1      -3.959  -2.615   0.523  0.00  0.00    +0.054 A 
ATOM     22  C   UNL     1      -3.883  -2.469  -0.882  0.00  0.00    +0.149 A 
ATOM     23  N   UNL     1      -3.204  -3.501  -1.339  0.00  0.00    -0.166 NA
BRANCH  19  25
ATOM     24  C   UNL     1      -0.611  -5.224  -0.287  0.00  0.00    +0.032 C 
ATOM     25  C   UNL     1      -2.097  -5.511  -0.511  0.00  0.00    +0.101 C 
ATOM     26  C   UNL     1      -2.581  -6.530   0.522  0.00  0.00    +0.032 C 
ENDBRANCH  19  25
ENDBRANCH  17  22
ENDBRANCH   1  17
BRANCH   3  27
ATOM     27  C   UNL     1      -6.712  -2.669  -2.023  0.00  0.00    +0.152 C 
BRANCH  27  28
ATOM     28  C   UNL     1      -7.513  -1.383  -1.815  0.00  0.00    +0.181 C 
BRANCH  28  29
ATOM     29  O   UNL     1      -8.699  -1.426  -2.611  0.00  0.00    -0.381 OA
ATOM     30  C   UNL     1      -9.524  -0.266  -2.490  0.00  0.00    +0.194 C 
ENDBRANCH  28  29
ENDBRANCH  27  28
ENDBRANCH   3  27
TORSDOF 8
