REMARK  Name = ZINC12849367
REMARK  12 active torsions:
REMARK  status: ('A' for Active; 'I' for Inactive)
REMARK    1  A    between atoms: C_1  and  C_2
REMARK    2  A    between atoms: C_2  and  C_3
REMARK    3  A    between atoms: C_5  and  C_36
REMARK    4  A    between atoms: C_6  and  C_11
REMARK    5  A    between atoms: C_11  and  O_12
REMARK    6  A    between atoms: O_12  and  C_13
REMARK    7  A    between atoms: C_13  and  C_15
REMARK    8  A    between atoms: C_28  and  C_29
REMARK    9  A    between atoms: C_32  and  O_35
REMARK   10  A    between atoms: C_36  and  O_38
REMARK   11  A    between atoms: O_38  and  C_39
REMARK   12  A    between atoms: C_39  and  C_40
REMARK                            x       y       z     vdW  Elec       q    Type
REMARK                         _______ _______ _______ _____ _____    ______ ____
ROOT
ATOM      1  C   UNL     1       4.401  -3.914   2.377  0.00  0.00    +0.073 A 
ATOM      2  C   UNL     1       5.225  -3.514   3.518  0.00  0.00    +0.015 A 
ATOM      3  C   UNL     1       6.037  -2.376   3.473  0.00  0.00    +0.011 A 
ATOM      4  C   UNL     1       6.789  -2.041   4.561  0.00  0.00    +0.001 A 
ATOM      5  C   UNL     1       6.757  -2.819   5.716  0.00  0.00    +0.002 A 
ATOM      6  C   UNL     1       5.978  -3.932   5.793  0.00  0.00    +0.028 A 
ATOM      7  C   UNL     1       5.188  -4.310   4.691  0.00  0.00    +0.072 A 
ATOM      8  N   UNL     1       4.417  -5.394   4.736  0.00  0.00    -0.247 NA
ATOM      9  C   UNL     1       3.658  -5.784   3.718  0.00  0.00    +0.072 A 
ATOM     10  C   UNL     1       3.623  -5.055   2.517  0.00  0.00    -0.007 A 
ATOM     11  C   UNL     1       2.678  -5.717   1.545  0.00  0.00    +0.043 C 
ATOM     12  C   UNL     1       2.110  -6.946   2.267  0.00  0.00    +0.042 C 
ATOM     13  C   UNL     1       2.761  -6.952   3.627  0.00  0.00    -0.021 C 
ATOM     14  C   UNL     1       2.550  -7.859   4.597  0.00  0.00    +0.013 C 
ENDROOT
BRANCH  14  15
ATOM     15  C   UNL     1       1.721  -9.046   4.328  0.00  0.00    -0.024 A 
ATOM     16  C   UNL     1       1.639 -10.074   5.272  0.00  0.00    +0.011 A 
ATOM     17  C   UNL     1       0.858 -11.180   5.018  0.00  0.00    +0.046 A 
ATOM     18  C   UNL     1       0.161 -11.280   3.820  0.00  0.00    +0.117 A 
ATOM     19  C   UNL     1       0.243 -10.263   2.876  0.00  0.00    +0.046 A 
ATOM     20  C   UNL     1       1.017  -9.151   3.124  0.00  0.00    +0.011 A 
BRANCH  18  21
ATOM     21  O   UNL     1      -0.604 -12.374   3.571  0.00  0.00    -0.507 OA
ATOM     22  H   UNL     1      -0.130 -13.092   3.128  0.00  0.00    +0.292 HD
ENDBRANCH  18  21
ENDBRANCH  14  15
BRANCH   1  23
ATOM     23  C   UNL     1       4.392  -3.129   1.125  0.00  0.00    +0.341 C 
ATOM     24  O   UNL     1       5.183  -3.387   0.241  0.00  0.00    -0.245 OA
BRANCH  23  25
ATOM     25  O   UNL     1       3.506  -2.126   0.966  0.00  0.00    -0.455 OA
BRANCH  25  26
ATOM     26  C   UNL     1       3.554  -1.398  -0.290  0.00  0.00    +0.283 C 
BRANCH  26  29
ATOM     27  C   UNL     1       1.779   2.024  -0.317  0.00  0.00    +0.113 C 
ATOM     28  C   UNL     1       2.872   0.975  -0.320  0.00  0.00    +0.077 C 
ATOM     29  C   UNL     1       2.499  -0.322  -0.287  0.00  0.00    +0.061 C 
ATOM     30  N   UNL     1       1.180  -0.675  -0.252  0.00  0.00    -0.269 N 
ATOM     31  C   UNL     1       0.175   0.209  -0.247  0.00  0.00    +0.304 C 
ATOM     32  O   UNL     1      -0.969  -0.202  -0.214  0.00  0.00    -0.252 OA
ATOM     33  N   UNL     1       0.389   1.539  -0.277  0.00  0.00    -0.292 N 
ATOM     34  H   UNL     1       0.960  -1.620  -0.229  0.00  0.00    +0.156 HD
ATOM     35  H   UNL     1      -0.354   2.162  -0.277  0.00  0.00    +0.151 HD
BRANCH  27  37
ATOM     36  C   UNL     1       1.064   4.128  -1.459  0.00  0.00    +0.006 C 
ATOM     37  C   UNL     1       1.944   2.881  -1.573  0.00  0.00    +0.024 C 
ENDBRANCH  27  37
BRANCH  28  38
ATOM     38  C   UNL     1       4.238   1.342  -0.356  0.00  0.00    +0.339 C 
ATOM     39  O   UNL     1       4.808   1.668   0.669  0.00  0.00    -0.245 OA
BRANCH  38  40
ATOM     40  O   UNL     1       4.909   1.332  -1.527  0.00  0.00    -0.462 OA
BRANCH  40  41
ATOM     41  C   UNL     1       6.285   1.714  -1.490  0.00  0.00    +0.229 C 
ATOM     42  C   UNL     1       6.873   1.641  -2.900  0.00  0.00    +0.048 C 
ENDBRANCH  40  41
ENDBRANCH  38  40
ENDBRANCH  28  38
ENDBRANCH  26  29
ENDBRANCH  25  26
ENDBRANCH  23  25
ENDBRANCH   1  23
TORSDOF 10
