REMARK  Name = ZINC39666430
REMARK  11 active torsions:
REMARK  status: ('A' for Active; 'I' for Inactive)
REMARK    1  A    between atoms: C_1  and  C_2
REMARK    2  A    between atoms: C_2  and  C_4
REMARK    3  A    between atoms: C_2  and  O_31
REMARK    4  A    between atoms: C_4  and  N_5
REMARK    5  A    between atoms: C_6  and  C_8
REMARK    6  A    between atoms: C_19  and  C_21
REMARK    7  A    between atoms: C_24  and  O_29
REMARK    8  A    between atoms: C_26  and  O_27
REMARK    9  A    between atoms: O_27  and  C_28
REMARK   10  A    between atoms: O_29  and  C_30
REMARK   11  A    between atoms: O_31  and  C_32
REMARK                            x       y       z     vdW  Elec       q    Type
REMARK                         _______ _______ _______ _____ _____    ______ ____
ROOT
ATOM      1  C   UNL     1       1.519  -4.570  -1.889  0.00  0.00    +0.100 C 
ATOM      2  C   UNL     1       2.443  -4.851  -0.683  0.00  0.00    +0.121 C 
ATOM      3  N   UNL     1       3.299  -5.978  -1.123  0.00  0.00    -0.296 N 
ATOM      4  C   UNL     1       3.602  -5.679  -2.543  0.00  0.00    +0.115 C 
ATOM      5  C   UNL     1       2.284  -5.114  -3.108  0.00  0.00    -0.004 C 
ATOM      6  C   UNL     1       2.574  -3.988  -4.096  0.00  0.00    -0.010 C 
ATOM      7  C   UNL     1       3.282  -4.563  -5.325  0.00  0.00    -0.082 C 
ATOM      8  N   UNL     1       2.431  -5.582  -5.950  0.00  0.00    +0.379 N 
ATOM      9  C   UNL     1       2.234  -6.706  -5.026  0.00  0.00    -0.082 C 
ATOM     10  C   UNL     1       1.481  -6.221  -3.784  0.00  0.00    -0.010 C 
ATOM     11  C   UNL     1       3.710  -7.036  -0.396  0.00  0.00    +0.250 C 
ATOM     12  O   UNL     1       3.304  -7.187   0.741  0.00  0.00    -0.270 OA
ATOM     13  H   UNL     1       1.536  -5.177  -6.181  0.00  0.00    -0.086 HD
ATOM     14  H   UNL     1       2.873  -5.916  -6.794  0.00  0.00    -0.086 HD
ENDROOT
BRANCH  11  15
ATOM     15  C   UNL     1       4.651  -8.008  -0.977  0.00  0.00    +0.079 A 
ATOM     16  C   UNL     1       5.649  -7.580  -1.859  0.00  0.00    +0.020 A 
ATOM     17  C   UNL     1       6.526  -8.491  -2.399  0.00  0.00    +0.046 A 
ATOM     18  C   UNL     1       6.425  -9.840  -2.073  0.00  0.00    +0.124 A 
ATOM     19  C   UNL     1       5.439 -10.276  -1.200  0.00  0.00    +0.092 A 
ATOM     20  C   UNL     1       4.554  -9.368  -0.644  0.00  0.00    +0.136 A 
BRANCH  20  21
ATOM     21  O   UNL     1       3.593  -9.792   0.214  0.00  0.00    -0.494 OA
ATOM     22  C   UNL     1       3.555 -11.190   0.506  0.00  0.00    +0.277 C 
ENDBRANCH  20  21
BRANCH  18  23
ATOM     23  O   UNL     1       7.294 -10.733  -2.611  0.00  0.00    -0.495 OA
ATOM     24  C   UNL     1       8.284 -10.217  -3.503  0.00  0.00    +0.277 C 
ENDBRANCH  18  23
ENDBRANCH  11  15
BRANCH   1  26
ATOM     25  N   UNL     1       0.135  -2.639  -2.577  0.00  0.00    -0.312 N 
ATOM     26  C   UNL     1       1.284  -3.088  -2.036  0.00  0.00    +0.218 C 
ATOM     27  O   UNL     1       2.129  -2.301  -1.667  0.00  0.00    -0.275 OA
ATOM     28  H   UNL     1      -0.541  -3.269  -2.873  0.00  0.00    +0.149 HD
BRANCH  25  29
ATOM     29  C   UNL     1      -0.094  -1.199  -2.720  0.00  0.00    +0.148 C 
BRANCH  29  31
ATOM     30  C   UNL     1      -1.703   0.543  -3.506  0.00  0.00    +0.053 C 
ATOM     31  C   UNL     1      -1.464  -0.961  -3.357  0.00  0.00    +0.187 C 
BRANCH  31  32
ATOM     32  O   UNL     1      -1.504  -1.579  -4.645  0.00  0.00    -0.486 OA
BRANCH  32  33
ATOM     33  C   UNL     1      -2.728  -1.926  -5.125  0.00  0.00    +0.139 A 
ATOM     34  C   UNL     1      -3.873  -1.573  -4.428  0.00  0.00    +0.047 A 
ATOM     35  C   UNL     1      -5.116  -1.927  -4.918  0.00  0.00    +0.004 A 
ATOM     36  C   UNL     1      -5.218  -2.632  -6.103  0.00  0.00    +0.002 A 
ATOM     37  C   UNL     1      -4.078  -2.986  -6.800  0.00  0.00    +0.023 A 
ATOM     38  C   UNL     1      -2.833  -2.629  -6.317  0.00  0.00    +0.083 A 
ATOM     39 CL   UNL     1      -1.402  -3.067  -7.197  0.00  0.00    -0.080 Cl
ENDBRANCH  32  33
ENDBRANCH  31  32
ENDBRANCH  29  31
ENDBRANCH  25  29
ENDBRANCH   1  26
TORSDOF 8
