REMARK  Name = ZINC32622406
REMARK  6 active torsions:
REMARK  status: ('A' for Active; 'I' for Inactive)
REMARK    1  A    between atoms: C_5  and  C_7
REMARK    2  A    between atoms: C_7  and  C_9
REMARK    3  A    between atoms: C_7  and  N_25
REMARK    4  A    between atoms: C_9  and  N_10
REMARK    5  A    between atoms: C_11  and  C_13
REMARK    6  A    between atoms: C_15  and  C_18
REMARK                            x       y       z     vdW  Elec       q    Type
REMARK                         _______ _______ _______ _____ _____    ______ ____
ROOT
ATOM      1  N   UNL     1       2.845   3.168  -2.271  0.00  0.00    -0.311 N 
ATOM      2  C   UNL     1       3.200   3.289  -3.565  0.00  0.00    +0.266 C 
ATOM      3  O   UNL     1       3.436   4.386  -4.031  0.00  0.00    -0.268 OA
ATOM      4  H   UNL     1       2.631   2.175  -1.849  0.00  0.00    +0.149 HD
ENDROOT
BRANCH   2   5
ATOM      5  C   UNL     1       3.304   2.082  -4.421  0.00  0.00    +0.168 A 
ATOM      6  C   UNL     1       3.658   2.041  -5.795  0.00  0.00    +0.086 A 
ATOM      7  C   UNL     1       3.609   0.710  -6.105  0.00  0.00    +0.168 A 
ATOM      8  O   UNL     1       3.245   0.072  -4.979  0.00  0.00    -0.354 OA
ATOM      9  N   UNL     1       3.081   0.841  -4.062  0.00  0.00    -0.073 NA
BRANCH   7  10
ATOM     10  C   UNL     1       3.894   0.096  -7.419  0.00  0.00    +0.020 A 
ATOM     11  C   UNL     1       4.258   0.897  -8.503  0.00  0.00    +0.013 A 
ATOM     12  C   UNL     1       4.527   0.318  -9.726  0.00  0.00    +0.021 A 
ATOM     13  C   UNL     1       4.428  -1.055  -9.881  0.00  0.00    +0.041 A 
ATOM     14  C   UNL     1       4.063  -1.854  -8.811  0.00  0.00    +0.021 A 
ATOM     15  C   UNL     1       3.796  -1.287  -7.582  0.00  0.00    +0.013 A 
ATOM     16 CL   UNL     1       4.762  -1.776 -11.425  0.00  0.00    -0.084 Cl
ENDBRANCH   7  10
ENDBRANCH   2   5
BRANCH   1  17
ATOM     17  C   UNL     1       2.742   4.360  -1.425  0.00  0.00    +0.094 C 
BRANCH  17  18
ATOM     18  C   UNL     1       2.442   3.939   0.015  0.00  0.00    -0.019 C 
BRANCH  18  23
ATOM     19  C   UNL     1      -0.291   1.340   0.162  0.00  0.00    +0.000 A 
ATOM     20  C   UNL     1      -1.425   2.131   0.188  0.00  0.00    +0.001 A 
ATOM     21  C   UNL     1      -1.307   3.508   0.168  0.00  0.00    +0.020 A 
ATOM     22  C   UNL     1      -0.055   4.094   0.110  0.00  0.00    +0.043 A 
ATOM     23  C   UNL     1       1.078   3.302   0.079  0.00  0.00    -0.041 A 
ATOM     24  C   UNL     1       0.960   1.925   0.104  0.00  0.00    +0.003 A 
ATOM     25 CL   UNL     1       0.093   5.823   0.078  0.00  0.00    -0.083 Cl
ENDBRANCH  18  23
BRANCH  18  26
ATOM     26  N   UNL     1       3.455   2.975   0.465  0.00  0.00    +0.385 N 
ATOM     27  C   UNL     1       4.825   3.523   0.295  0.00  0.00    -0.078 C 
ATOM     28  C   UNL     1       5.675   2.661   1.262  0.00  0.00    -0.020 C 
ATOM     29  C   UNL     1       4.728   2.458   2.467  0.00  0.00    -0.020 C 
ATOM     30  C   UNL     1       3.311   2.689   1.908  0.00  0.00    -0.078 C 
ATOM     31  H   UNL     1       3.299   2.071  -0.143  0.00  0.00    -0.081 HD
ENDBRANCH  18  26
ENDBRANCH  17  18
ENDBRANCH   1  17
TORSDOF 6
