REMARK  Name = ZINC24978204
REMARK  5 active torsions:
REMARK  status: ('A' for Active; 'I' for Inactive)
REMARK    1  A    between atoms: C_3  and  S_6
REMARK    2  A    between atoms: S_6  and  N_9
REMARK    3  A    between atoms: N_9  and  C_10
REMARK    4  A    between atoms: C_10  and  C_11
REMARK    5  A    between atoms: C_11  and  N_12
REMARK                            x       y       z     vdW  Elec       q    Type
REMARK                         _______ _______ _______ _____ _____    ______ ____
ROOT
ATOM      1  N   UNL     1       4.912   4.459  -1.082  0.00  0.00    +0.383 N 
ATOM      2  C   UNL     1       4.823   3.528   0.052  0.00  0.00    -0.060 C 
ATOM      3  C   UNL     1       3.498   2.767  -0.019  0.00  0.00    +0.088 C 
ATOM      4  N   UNL     1       2.383   3.725   0.001  0.00  0.00    -0.319 N 
ATOM      5  C   UNL     1       2.472   4.655  -1.133  0.00  0.00    +0.088 C 
ATOM      6  C   UNL     1       3.798   5.417  -1.062  0.00  0.00    -0.060 C 
ATOM      7  C   UNL     1       1.157   3.064   0.010  0.00  0.00    +0.120 A 
ATOM      8  C   UNL     1      -0.032   3.809   0.029  0.00  0.00    +0.069 A 
ATOM      9  C   UNL     1      -1.236   3.132   0.031  0.00  0.00    -0.022 A 
ATOM     10  C   UNL     1      -1.220   1.741   0.017  0.00  0.00    +0.023 A 
ATOM     11  C   UNL     1      -0.013   1.076   0.008  0.00  0.00    +0.084 A 
ATOM     12  N   UNL     1       1.127   1.744   0.001  0.00  0.00    -0.348 N 
ATOM     13  C   UNL     1      -2.560   3.848   0.035  0.00  0.00    +0.038 C 
ATOM     14  C   UNL     1      -2.350   5.312   0.431  0.00  0.00    +0.023 C 
ATOM     15  C   UNL     1      -1.175   5.861  -0.388  0.00  0.00    +0.102 C 
ATOM     16  N   UNL     1       0.056   5.202   0.054  0.00  0.00    -0.341 N 
ATOM     17  H   UNL     1       0.924   5.805   0.359  0.00  0.00    +0.146 HD
ATOM     18  H   UNL     1       2.066   1.172  -0.014  0.00  0.00    +0.167 HD
ATOM     19  H   UNL     1       4.839   3.872  -2.009  0.00  0.00    -0.082 HD
ENDROOT
BRANCH   1  20
ATOM     20  C   UNL     1       6.205   5.155  -1.091  0.00  0.00    -0.062 C 
BRANCH  20  21
ATOM     21  C   UNL     1       6.363   5.920  -2.407  0.00  0.00    +0.087 C 
BRANCH  21  22
ATOM     22  N   UNL     1       7.653   6.614  -2.417  0.00  0.00    -0.191 NA
ATOM     23  H   UNL     1       8.138   6.886  -1.468  0.00  0.00    +0.148 HD
BRANCH  22  24
ATOM     24  S   UNL     1       8.261   7.211  -3.837  0.00  0.00    +0.065 S 
ATOM     25  O   UNL     1       9.493   7.843  -3.517  0.00  0.00    -0.153 OA
ATOM     26  O   UNL     1       8.169   6.162  -4.791  0.00  0.00    -0.153 OA
BRANCH  24  29
ATOM     27  C   UNL     1       6.227  10.629  -4.643  0.00  0.00    +0.010 A 
ATOM     28  C   UNL     1       7.196   9.809  -4.098  0.00  0.00    +0.036 A 
ATOM     29  C   UNL     1       7.169   8.483  -4.378  0.00  0.00    +0.142 A 
ATOM     30  S   UNL     1       5.734   8.358  -5.433  0.00  0.00    -0.077 S 
ATOM     31  C   UNL     1       5.271  10.082  -5.434  0.00  0.00    +0.047 A 
ENDBRANCH  24  29
ENDBRANCH  22  24
ENDBRANCH  21  22
ENDBRANCH  20  21
ENDBRANCH   1  20
TORSDOF 5
