REMARK  Name = ZINC05749109
REMARK  3 active torsions:
REMARK  status: ('A' for Active; 'I' for Inactive)
REMARK    1  A    between atoms: C_2  and  C_11
REMARK    2  A    between atoms: C_24  and  N_28
REMARK    3  A    between atoms: C_25  and  C_26
REMARK                            x       y       z     vdW  Elec       q    Type
REMARK                         _______ _______ _______ _____ _____    ______ ____
ROOT
ATOM      1  C   UNL     1      -2.522   1.632   0.023  0.00  0.00    +0.083 C 
ATOM      2  C   UNL     1      -3.406   2.102  -1.134  0.00  0.00    +0.147 C 
ATOM      3  C   UNL     1      -3.909   3.512  -0.794  0.00  0.00    +0.278 C 
ATOM      4  N   UNL     1      -4.578   4.066  -1.966  0.00  0.00    -0.263 N 
ATOM      5  C   UNL     1      -4.085   3.838  -3.195  0.00  0.00    +0.309 C 
ATOM      6  O   UNL     1      -4.592   4.392  -4.150  0.00  0.00    -0.252 OA
ATOM      7  N   UNL     1      -3.050   3.004  -3.394  0.00  0.00    -0.240 N 
ATOM      8  C   UNL     1      -2.634   2.164  -2.423  0.00  0.00    +0.230 C 
ATOM      9  O   UNL     1      -1.654   1.470  -2.588  0.00  0.00    -0.275 OA
ATOM     10  O   UNL     1      -4.787   3.407   0.326  0.00  0.00    -0.457 OA
ATOM     11  C   UNL     1      -4.317   2.721   1.391  0.00  0.00    +0.194 C 
ATOM     12  C   UNL     1      -3.261   1.879   1.315  0.00  0.00    +0.094 C 
ATOM     13  H   UNL     1      -5.376   4.607  -1.859  0.00  0.00    +0.154 HD
ATOM     14  H   UNL     1      -2.594   3.006  -4.250  0.00  0.00    +0.159 HD
ENDROOT
BRANCH   1  16
ATOM     15  C   UNL     1      -1.219   3.734   0.407  0.00  0.00    +0.055 A 
ATOM     16  C   UNL     1      -1.229   2.406   0.021  0.00  0.00    -0.016 A 
ATOM     17  C   UNL     1      -0.054   1.785  -0.361  0.00  0.00    +0.048 A 
ATOM     18  C   UNL     1       1.135   2.494  -0.370  0.00  0.00    +0.069 A 
ATOM     19  C   UNL     1       1.150   3.825   0.010  0.00  0.00    +0.168 A 
ATOM     20  C   UNL     1      -0.033   4.449   0.400  0.00  0.00    +0.167 A 
ATOM     21  O   UNL     1       0.243   5.746   0.724  0.00  0.00    -0.453 OA
ATOM     22  C   UNL     1       1.530   6.022   0.139  0.00  0.00    +0.466 C 
ATOM     23  O   UNL     1       2.167   4.732   0.089  0.00  0.00    -0.453 OA
ATOM     24 CL   UNL     1      -0.071   0.116  -0.838  0.00  0.00    -0.083 Cl
ENDBRANCH   1  16
BRANCH  11  25
ATOM     25  N   UNL     1      -4.938   2.887   2.603  0.00  0.00    -0.329 N 
ATOM     26  H   UNL     1      -4.617   2.405   3.382  0.00  0.00    +0.145 HD
ATOM     27  H   UNL     1      -5.697   3.486   2.682  0.00  0.00    +0.145 HD
ENDBRANCH  11  25
BRANCH  12  28
ATOM     28  C   UNL     1      -2.830   1.200   2.500  0.00  0.00    +0.100 C 
ATOM     29  N   UNL     1      -2.487   0.662   3.441  0.00  0.00    -0.191 NA
ENDBRANCH  12  28
TORSDOF 3
