REMARK  Name = ZINC38776346
REMARK  4 active torsions:
REMARK  status: ('A' for Active; 'I' for Inactive)
REMARK    1  A    between atoms: C_7  and  C_10
REMARK    2  A    between atoms: C_10  and  C_11
REMARK    3  A    between atoms: C_11  and  C_13
REMARK    4  A    between atoms: C_11  and  N_21
REMARK                            x       y       z     vdW  Elec       q    Type
REMARK                         _______ _______ _______ _____ _____    ______ ____
ROOT
ATOM      1  C   UNL     1      -4.438   3.680  -1.369  0.00  0.00    +0.176 C 
ENDROOT
BRANCH   1   2
ATOM      2  N   UNL     1      -5.495   2.753  -1.781  0.00  0.00    -0.211 N 
ATOM      3  C   UNL     1      -5.321   1.991  -2.880  0.00  0.00    +0.236 C 
ATOM      4  O   UNL     1      -4.271   2.030  -3.485  0.00  0.00    -0.274 OA
ATOM      5  C   UNL     1      -6.424   1.099  -3.351  0.00  0.00    +0.144 C 
ATOM      6  C   UNL     1      -5.941  -0.200  -3.907  0.00  0.00    -0.008 C 
ATOM      7  C   UNL     1      -6.645  -1.322  -3.751  0.00  0.00    -0.003 C 
ATOM      8  C   UNL     1      -7.871  -1.331  -3.046  0.00  0.00    +0.001 C 
ATOM      9  C   UNL     1      -8.266  -0.255  -2.316  0.00  0.00    +0.022 C 
ATOM     10  C   UNL     1      -7.443   0.878  -2.274  0.00  0.00    +0.051 C 
ATOM     11  N   UNL     1      -7.526   1.704  -1.254  0.00  0.00    -0.166 NA
ATOM     12  C   UNL     1      -6.623   2.669  -1.057  0.00  0.00    +0.333 C 
ATOM     13  O   UNL     1      -6.833   3.503  -0.195  0.00  0.00    -0.250 OA
ENDBRANCH   1   2
BRANCH   1  14
ATOM     14  C   UNL     1      -4.978   5.087  -1.361  0.00  0.00    +0.237 C 
ATOM     15  O   UNL     1      -6.162   5.283  -1.536  0.00  0.00    -0.274 OA
ATOM     16  N   UNL     1      -4.144   6.127  -1.161  0.00  0.00    -0.300 N 
ATOM     17  C   UNL     1      -2.693   5.917  -1.068  0.00  0.00    +0.108 C 
ATOM     18  C   UNL     1      -1.996   6.837  -2.074  0.00  0.00    +0.019 C 
ATOM     19  C   UNL     1      -2.439   8.282  -1.830  0.00  0.00    +0.003 C 
ATOM     20  C   UNL     1      -3.951   8.396  -2.038  0.00  0.00    +0.019 C 
ATOM     21  C   UNL     1      -4.670   7.494  -1.037  0.00  0.00    +0.108 C 
ENDBRANCH   1  14
BRANCH   1  22
ATOM     22  C   UNL     1      -3.955   3.311   0.035  0.00  0.00    +0.069 C 
BRANCH  22  29
ATOM     23  C   UNL     1       0.378   1.841  -0.982  0.00  0.00    +0.001 A 
ATOM     24  C   UNL     1       0.521   0.464  -0.876  0.00  0.00    +0.002 A 
ATOM     25  C   UNL     1      -0.545  -0.327  -0.506  0.00  0.00    +0.026 A 
ATOM     26  C   UNL     1      -1.777   0.258  -0.234  0.00  0.00    +0.047 A 
ATOM     27  N   UNL     1      -3.001  -0.244   0.148  0.00  0.00    -0.360 N 
ATOM     28  C   UNL     1      -3.901   0.778   0.285  0.00  0.00    +0.087 A 
ATOM     29  C   UNL     1      -3.309   1.950   0.003  0.00  0.00    -0.020 A 
ATOM     30  C   UNL     1      -1.917   1.654  -0.342  0.00  0.00    +0.003 A 
ATOM     31  C   UNL     1      -0.822   2.437  -0.714  0.00  0.00    +0.010 A 
ATOM     32  H   UNL     1      -3.197  -1.182   0.298  0.00  0.00    +0.165 HD
ENDBRANCH  22  29
ENDBRANCH   1  22
TORSDOF 4
