REMARK  Name = ZINC12832923
REMARK  12 active torsions:
REMARK  status: ('A' for Active; 'I' for Inactive)
REMARK    1  A    between atoms: C_1  and  C_2
REMARK    2  A    between atoms: C_2  and  C_3
REMARK    3  A    between atoms: C_3  and  C_4
REMARK    4  A    between atoms: C_3  and  C_5
REMARK    5  A    between atoms: C_3  and  N_6
REMARK    6  A    between atoms: C_7  and  C_11
REMARK    7  A    between atoms: C_11  and  N_68
REMARK    8  A    between atoms: C_12  and  C_13
REMARK    9  A    between atoms: C_12  and  N_68
REMARK   10  A    between atoms: C_18  and  C_26
REMARK   11  A    between atoms: C_19  and  C_25
REMARK   12  A    between atoms: C_27  and  N_68
REMARK                            x       y       z     vdW  Elec       q    Type
REMARK                         _______ _______ _______ _____ _____    ______ ____
ROOT
ATOM      1  N   UNL     1      -0.104   0.613  -2.672  0.00  0.00    +0.389 N 
ATOM      2  H   UNL     1       0.043  -0.403  -2.666  0.00  0.00    -0.080 HD
ENDROOT
BRANCH   1   3
ATOM      3  C   UNL     1      -0.843   1.000  -1.452  0.00  0.00    -0.068 C 
ATOM      4  C   UNL     1      -0.615   2.479  -1.135  0.00  0.00    -0.015 C 
ATOM      5  C   UNL     1      -1.381   2.852   0.136  0.00  0.00    -0.002 C 
ATOM      6  C   UNL     1      -0.880   1.997   1.302  0.00  0.00    -0.000 C 
ATOM      7  C   UNL     1      -1.108   0.518   0.985  0.00  0.00    -0.002 C 
ATOM      8  C   UNL     1      -0.342   0.145  -0.286  0.00  0.00    -0.015 C 
ENDBRANCH   1   3
BRANCH   1   9
ATOM      9  C   UNL     1       1.211   1.288  -2.701  0.00  0.00    +0.001 C 
BRANCH   9  11
ATOM     10  N   UNL     1       2.836  -0.519  -1.928  0.00  0.00    -0.226 N 
ATOM     11  C   UNL     1       2.127   0.606  -1.718  0.00  0.00    +0.136 A 
ATOM     12  N   UNL     1       2.391   0.995  -0.495  0.00  0.00    -0.115 NA
ATOM     13  N   UNL     1       3.214   0.149   0.022  0.00  0.00    -0.023 NA
ATOM     14  N   UNL     1       3.487  -0.765  -0.842  0.00  0.00    -0.043 NA
BRANCH  10  15
ATOM     15  C   UNL     1       2.864  -1.313  -3.159  0.00  0.00    +0.061 C 
ATOM     16  C   UNL     1       1.434  -1.687  -3.556  0.00  0.00    +0.036 C 
ATOM     17  C   UNL     1       3.507  -0.496  -4.280  0.00  0.00    +0.036 C 
BRANCH  15  19
ATOM     18  C   UNL     1       3.706  -3.418  -4.209  0.00  0.00    +0.006 C 
ATOM     19  C   UNL     1       3.678  -2.588  -2.925  0.00  0.00    +0.026 C 
ENDBRANCH  15  19
ENDBRANCH  10  15
ENDBRANCH   9  11
ENDBRANCH   1   9
BRANCH   1  20
ATOM     20  C   UNL     1      -0.885   0.978  -3.873  0.00  0.00    -0.037 C 
BRANCH  20  21
ATOM     21  C   UNL     1      -2.074   0.057  -3.976  0.00  0.00    +0.001 A 
ATOM     22  C   UNL     1      -3.281   0.458  -3.508  0.00  0.00    +0.017 A 
ATOM     23  C   UNL     1      -4.416  -0.460  -3.623  0.00  0.00    -0.001 A 
ATOM     24  C   UNL     1      -5.686  -0.102  -3.159  0.00  0.00    +0.010 A 
ATOM     25  C   UNL     1      -6.724  -0.982  -3.281  0.00  0.00    +0.004 A 
ATOM     26  C   UNL     1      -6.530  -2.228  -3.862  0.00  0.00    -0.046 A 
ATOM     27  C   UNL     1      -5.287  -2.602  -4.325  0.00  0.00    -0.024 A 
ATOM     28  C   UNL     1      -4.215  -1.723  -4.212  0.00  0.00    +0.052 A 
ATOM     29  N   UNL     1      -2.962  -2.070  -4.668  0.00  0.00    -0.322 N 
ATOM     30  H   UNL     1      -2.825  -2.940  -5.074  0.00  0.00    +0.169 HD
ATOM     31  C   UNL     1      -1.927  -1.218  -4.564  0.00  0.00    +0.251 A 
ATOM     32  O   UNL     1      -0.833  -1.557  -4.982  0.00  0.00    -0.268 OA
ATOM     33  C   UNL     1      -5.090  -3.958  -4.953  0.00  0.00    +0.046 C 
ATOM     34  C   UNL     1      -7.690  -3.182  -3.986  0.00  0.00    +0.044 C 
ENDBRANCH  20  21
ENDBRANCH   1  20
TORSDOF 7
