REMARK  Name = ZINC03347644
REMARK  7 active torsions:
REMARK  status: ('A' for Active; 'I' for Inactive)
REMARK    1  A    between atoms: C_4  and  C_7
REMARK    2  A    between atoms: C_10  and  S_18
REMARK    3  A    between atoms: N_11  and  C_12
REMARK    4  A    between atoms: S_18  and  C_19
REMARK    5  A    between atoms: C_19  and  C_20
REMARK    6  A    between atoms: C_20  and  C_22
REMARK    7  A    between atoms: C_22  and  C_32
REMARK                            x       y       z     vdW  Elec       q    Type
REMARK                         _______ _______ _______ _____ _____    ______ ____
ROOT
ATOM      1  S   UNL     1      -2.689   0.752   0.019  0.00  0.00    -0.078 S 
ENDROOT
BRANCH   1   5
ATOM      2  C   UNL     1      -6.086   2.689   0.046  0.00  0.00    +0.169 A 
ATOM      3  N   UNL     1      -5.199   3.658   0.046  0.00  0.00    -0.128 NA
ATOM      4  N   UNL     1      -4.012   3.167   0.038  0.00  0.00    -0.122 NA
ATOM      5  C   UNL     1      -4.064   1.854   0.031  0.00  0.00    +0.197 A 
ATOM      6  N   UNL     1      -5.386   1.502   0.030  0.00  0.00    -0.270 N 
BRANCH   2  10
ATOM      7  C   UNL     1     -10.310   3.131   0.069  0.00  0.00    +0.000 A 
ATOM      8  C   UNL     1      -9.506   4.214  -0.239  0.00  0.00    +0.001 A 
ATOM      9  C   UNL     1      -8.133   4.077  -0.249  0.00  0.00    +0.011 A 
ATOM     10  C   UNL     1      -7.556   2.843   0.054  0.00  0.00    +0.020 A 
ATOM     11  C   UNL     1      -8.373   1.753   0.359  0.00  0.00    +0.011 A 
ATOM     12  C   UNL     1      -9.744   1.905   0.370  0.00  0.00    +0.001 A 
ENDBRANCH   2  10
BRANCH   6  13
ATOM     13  C   UNL     1      -5.918   0.205   0.018  0.00  0.00    +0.051 A 
ATOM     14  C   UNL     1      -6.658  -0.233  -1.071  0.00  0.00    +0.026 A 
ATOM     15  C   UNL     1      -7.177  -1.513  -1.083  0.00  0.00    +0.002 A 
ATOM     16  C   UNL     1      -6.969  -2.354  -0.005  0.00  0.00    +0.000 A 
ATOM     17  C   UNL     1      -6.237  -1.919   1.084  0.00  0.00    +0.002 A 
ATOM     18  C   UNL     1      -5.711  -0.642   1.099  0.00  0.00    +0.026 A 
ENDBRANCH   6  13
ENDBRANCH   1   5
BRANCH   1  19
ATOM     19  C   UNL     1      -1.330   1.947   0.019  0.00  0.00    +0.157 C 
BRANCH  19  20
ATOM     20  C   UNL     1      -0.014   1.211   0.009  0.00  0.00    +0.187 C 
ATOM     21  O   UNL     1       0.002  -0.004   0.002  0.00  0.00    -0.290 OA
BRANCH  20  22
ATOM     22  C   UNL     1       1.193   1.930   0.001  0.00  0.00    +0.131 C 
ATOM     23  C   UNL     1       2.420   1.244  -0.014  0.00  0.00    +0.114 C 
ATOM     24  N   UNL     1       2.566  -0.106  -0.017  0.00  0.00    -0.300 N 
ATOM     25  C   UNL     1       3.925  -0.398  -0.036  0.00  0.00    +0.054 A 
ATOM     26  C   UNL     1       4.639  -1.589  -0.048  0.00  0.00    +0.025 A 
ATOM     27  C   UNL     1       6.019  -1.563  -0.060  0.00  0.00    +0.002 A 
ATOM     28  C   UNL     1       6.695  -0.354  -0.061  0.00  0.00    +0.002 A 
ATOM     29  C   UNL     1       5.995   0.836  -0.049  0.00  0.00    +0.025 A 
ATOM     30  C   UNL     1       4.607   0.821  -0.037  0.00  0.00    +0.054 A 
ATOM     31  N   UNL     1       3.647   1.826  -0.023  0.00  0.00    -0.300 N 
ATOM     32  H   UNL     1       1.845  -0.756  -0.009  0.00  0.00    +0.153 HD
ATOM     33  H   UNL     1       3.823   2.780  -0.020  0.00  0.00    +0.153 HD
BRANCH  22  34
ATOM     34  C   UNL     1       1.173   3.362   0.009  0.00  0.00    +0.106 C 
ATOM     35  N   UNL     1       1.158   4.498   0.015  0.00  0.00    -0.191 NA
ENDBRANCH  22  34
ENDBRANCH  20  22
ENDBRANCH  19  20
ENDBRANCH   1  19
TORSDOF 7
