REMARK  Name = ZINC29003688
REMARK  7 active torsions:
REMARK  status: ('A' for Active; 'I' for Inactive)
REMARK    1  A    between atoms: C_1  and  C_2
REMARK    2  A    between atoms: C_2  and  C_28
REMARK    3  A    between atoms: C_7  and  N_8
REMARK    4  A    between atoms: N_8  and  C_9
REMARK    5  A    between atoms: C_14  and  C_15
REMARK    6  A    between atoms: N_17  and  C_18
REMARK    7  A    between atoms: C_18  and  C_19
REMARK                            x       y       z     vdW  Elec       q    Type
REMARK                         _______ _______ _______ _____ _____    ______ ____
ROOT
ATOM      1  C   UNL     1      -1.878   6.387  -3.295  0.00  0.00    +0.043 A 
ATOM      2  C   UNL     1      -1.905   7.775  -3.259  0.00  0.00    +0.024 A 
ATOM      3  C   UNL     1      -1.405   8.448  -2.162  0.00  0.00    +0.002 A 
ATOM      4  C   UNL     1      -0.877   7.747  -1.090  0.00  0.00    +0.001 A 
ATOM      5  C   UNL     1      -0.847   6.369  -1.107  0.00  0.00    +0.015 A 
ATOM      6  C   UNL     1      -1.349   5.674  -2.209  0.00  0.00    +0.058 A 
ENDROOT
BRANCH   6   7
ATOM      7  C   UNL     1      -1.318   4.199  -2.234  0.00  0.00    +0.246 C 
ATOM      8  O   UNL     1      -1.853   3.595  -3.143  0.00  0.00    -0.270 OA
ATOM      9  N   UNL     1      -0.697   3.522  -1.248  0.00  0.00    -0.309 N 
ATOM     10  H   UNL     1      -0.213   4.068  -0.425  0.00  0.00    +0.149 HD
BRANCH   9  11
ATOM     11  C   UNL     1      -0.667   2.057  -1.272  0.00  0.00    +0.136 C 
BRANCH  11  12
ATOM     12  C   UNL     1       0.094   1.542  -0.049  0.00  0.00    +0.135 C 
ATOM     13  C   UNL     1       0.132   0.002  -0.065  0.00  0.00    +0.035 C 
ATOM     14  C   UNL     1       1.641  -0.341  -0.066  0.00  0.00    +0.031 C 
ATOM     15  C   UNL     1       2.270   0.963   0.490  0.00  0.00    +0.160 C 
ATOM     16  O   UNL     1       1.455   2.004  -0.090  0.00  0.00    -0.375 OA
ENDBRANCH  11  12
ENDBRANCH   9  11
ENDBRANCH   6   7
BRANCH   1  17
ATOM     17  N   UNL     1      -2.376   5.707  -4.402  0.00  0.00    -0.319 N 
ATOM     18  H   UNL     1      -2.441   4.609  -4.390  0.00  0.00    +0.152 HD
BRANCH  17  25
ATOM     19  C   UNL     1      -6.042   3.774  -9.357  0.00  0.00    +0.012 C 
ATOM     20  C   UNL     1      -4.801   4.346  -8.668  0.00  0.00    -0.021 C 
ATOM     21  C   UNL     1      -4.971   5.857  -8.489  0.00  0.00    +0.086 C 
ATOM     22  C   UNL     1      -3.733   6.413  -7.814  0.00  0.00    +0.168 C 
ATOM     23  O   UNL     1      -3.147   7.381  -8.252  0.00  0.00    -0.292 OA
ATOM     24  C   UNL     1      -3.277   5.715  -6.594  0.00  0.00    +0.073 C 
ATOM     25  C   UNL     1      -2.779   6.393  -5.490  0.00  0.00    +0.087 C 
ATOM     26  C   UNL     1      -3.382   4.242  -6.638  0.00  0.00    +0.168 C 
ATOM     27  O   UNL     1      -2.523   3.526  -6.164  0.00  0.00    -0.292 OA
ATOM     28  C   UNL     1      -4.623   3.674  -7.303  0.00  0.00    +0.086 C 
ATOM     29  C   UNL     1      -3.570   4.072  -9.534  0.00  0.00    +0.012 C 
ENDBRANCH  17  25
ENDBRANCH   1  17
TORSDOF 5
