REMARK  Name = ZINC12466917
REMARK  4 active torsions:
REMARK  status: ('A' for Active; 'I' for Inactive)
REMARK    1  A    between atoms: C_1  and  C_2
REMARK    2  A    between atoms: C_12  and  C_14
REMARK    3  A    between atoms: N_19  and  S_20
REMARK    4  A    between atoms: S_20  and  C_23
REMARK                            x       y       z     vdW  Elec       q    Type
REMARK                         _______ _______ _______ _____ _____    ______ ____
ROOT
ATOM      1  C   UNL     1      -0.018   1.503   0.010  0.00  0.00    +0.047 C 
ATOM      2  C   UNL     1       0.002  -0.004   0.002  0.00  0.00    -0.006 A 
ATOM      3  C   UNL     1       0.023  -0.689   1.190  0.00  0.00    +0.046 A 
ATOM      4  C   UNL     1       0.042  -2.076   1.227  0.00  0.00    +0.021 A 
ATOM      5  C   UNL     1       0.040  -2.785   0.040  0.00  0.00    +0.019 A 
ATOM      6  C   UNL     1       0.020  -2.108  -1.154  0.00  0.00    +0.041 A 
ATOM      7  C   UNL     1      -0.006  -0.697  -1.230  0.00  0.00    +0.085 A 
ATOM      8  N   UNL     1      -0.031  -0.179  -2.478  0.00  0.00    -0.224 NA
ATOM      9  C   UNL     1      -0.037  -0.931  -3.554  0.00  0.00    +0.165 A 
ATOM     10  S   UNL     1       0.010  -2.580  -2.867  0.00  0.00    -0.052 S 
ATOM     11  N   UNL     1      -0.061  -0.544  -4.884  0.00  0.00    -0.263 N 
ATOM     12  C   UNL     1      -0.063  -1.476  -5.857  0.00  0.00    +0.238 C 
ATOM     13  O   UNL     1      -0.043  -2.654  -5.568  0.00  0.00    -0.274 OA
ATOM     14 CL   UNL     1       0.025   0.200   2.682  0.00  0.00    -0.083 Cl
ATOM     15  H   UNL     1      -0.077   0.398  -5.115  0.00  0.00    +0.157 HD
ENDROOT
BRANCH  12  16
ATOM     16  C   UNL     1      -0.089  -1.056  -7.304  0.00  0.00    +0.166 C 
ATOM     17  C   UNL     1       1.170  -0.226  -7.632  0.00  0.00    +0.031 C 
ATOM     18  C   UNL     1       1.538  -0.704  -9.062  0.00  0.00    +0.019 C 
ATOM     19  C   UNL     1       1.151  -2.203  -8.998  0.00  0.00    +0.110 C 
ATOM     20  N   UNL     1      -0.068  -2.243  -8.170  0.00  0.00    -0.164 NA
BRANCH  20  21
ATOM     21  S   UNL     1      -1.222  -3.430  -8.209  0.00  0.00    +0.068 S 
ATOM     22  O   UNL     1      -0.587  -4.598  -8.713  0.00  0.00    -0.152 OA
ATOM     23  O   UNL     1      -1.876  -3.402  -6.948  0.00  0.00    -0.152 OA
BRANCH  21  24
ATOM     24  C   UNL     1      -2.421  -2.952  -9.409  0.00  0.00    +0.144 A 
ATOM     25  C   UNL     1      -2.456  -3.226 -10.736  0.00  0.00    +0.038 A 
ATOM     26  C   UNL     1      -3.507  -2.741 -11.492  0.00  0.00    +0.030 A 
ATOM     27  C   UNL     1      -4.471  -2.006 -10.884  0.00  0.00    +0.080 A 
ATOM     28  S   UNL     1      -3.907  -1.988  -9.190  0.00  0.00    -0.057 S 
ATOM     29 CL   UNL     1      -5.888  -1.277 -11.572  0.00  0.00    -0.076 Cl
ENDBRANCH  21  24
ENDBRANCH  20  21
ENDBRANCH  12  16
TORSDOF 3
