REMARK  Name = ZINC63557283
REMARK  7 active torsions:
REMARK  status: ('A' for Active; 'I' for Inactive)
REMARK    1  A    between atoms: C_1  and  C_2
REMARK    2  A    between atoms: C_2  and  C_36
REMARK    3  A    between atoms: C_6  and  N_14
REMARK    4  A    between atoms: C_15  and  C_17
REMARK    5  A    between atoms: N_22  and  C_24
REMARK    6  A    between atoms: C_24  and  C_25
REMARK    7  A    between atoms: C_25  and  C_26
REMARK                            x       y       z     vdW  Elec       q    Type
REMARK                         _______ _______ _______ _____ _____    ______ ____
ROOT
ATOM      1  C   UNL     1      -2.178  -6.826  -3.327  0.00  0.00    +0.101 C 
ATOM      2  C   UNL     1      -3.307  -6.311  -4.251  0.00  0.00    +0.110 C 
ATOM      3  C   UNL     1      -3.682  -7.516  -5.085  0.00  0.00    +0.216 C 
ATOM      4  O   UNL     1      -4.323  -7.476  -6.114  0.00  0.00    -0.276 OA
ATOM      5  N   UNL     1      -3.201  -8.637  -4.521  0.00  0.00    -0.300 N 
ATOM      6  C   UNL     1      -2.477  -8.341  -3.279  0.00  0.00    +0.121 C 
ENDROOT
BRANCH   1   8
ATOM      7  N   UNL     1      -2.118  -4.883  -1.797  0.00  0.00    -0.288 N 
ATOM      8  C   UNL     1      -2.282  -6.212  -1.955  0.00  0.00    +0.220 C 
ATOM      9  O   UNL     1      -2.513  -6.913  -0.993  0.00  0.00    -0.275 OA
ATOM     10  H   UNL     1      -1.933  -4.323  -2.567  0.00  0.00    +0.151 HD
BRANCH   7  16
ATOM     11  C   UNL     1      -0.019   1.526   0.010  0.00  0.00    +0.011 C 
ATOM     12  C   UNL     1       0.002  -0.004   0.002  0.00  0.00    -0.023 C 
ATOM     13  C   UNL     1      -1.435  -0.528  -0.013  0.00  0.00    +0.058 C 
ATOM     14  C   UNL     1      -1.390  -2.058   0.013  0.00  0.00    +0.023 C 
ATOM     15  N   UNL     1      -2.364  -2.821  -0.543  0.00  0.00    -0.320 N 
ATOM     16  C   UNL     1      -2.218  -4.286  -0.463  0.00  0.00    +0.224 C 
ATOM     17  S   UNL     1      -0.622  -4.409   0.446  0.00  0.00    -0.079 S 
ATOM     18  C   UNL     1      -0.325  -2.670   0.620  0.00  0.00    +0.070 C 
ATOM     19  H   UNL     1      -3.131  -2.417  -0.978  0.00  0.00    +0.148 HD
ATOM     20  C   UNL     1       0.747  -2.021   1.235  0.00  0.00    +0.171 C 
ATOM     21  O   UNL     1       1.653  -2.650   1.747  0.00  0.00    -0.291 OA
ATOM     22  C   UNL     1       0.743  -0.506   1.243  0.00  0.00    +0.087 C 
ATOM     23  C   UNL     1       0.730  -0.492  -1.252  0.00  0.00    +0.011 C 
ENDBRANCH   7  16
ENDBRANCH   1   8
BRANCH   5  24
ATOM     24  C   UNL     1      -3.376  -9.982  -5.075  0.00  0.00    +0.112 C 
BRANCH  24  25
ATOM     25  C   UNL     1      -2.212 -10.301  -6.016  0.00  0.00    +0.052 C 
BRANCH  25  26
ATOM     26  C   UNL     1      -2.391 -11.684  -6.586  0.00  0.00    -0.040 C 
ATOM     27  C   UNL     1      -2.958 -12.008  -7.771  0.00  0.00    +0.000 A 
ATOM     28  C   UNL     1      -3.554 -11.200  -8.842  0.00  0.00    +0.030 A 
ATOM     29  C   UNL     1      -4.052 -11.824  -9.934  0.00  0.00    +0.042 A 
ATOM     30  C   UNL     1      -4.014 -13.220 -10.068  0.00  0.00    +0.022 A 
ATOM     31  C   UNL     1      -3.482 -14.028  -9.126  0.00  0.00    +0.027 A 
ATOM     32  C   UNL     1      -2.929 -13.479  -7.936  0.00  0.00    +0.043 A 
ATOM     33  N   UNL     1      -2.367 -14.042  -6.895  0.00  0.00    -0.380 N 
ATOM     34  C   UNL     1      -1.969 -12.991  -5.952  0.00  0.00    +0.144 C 
ATOM     35 CL   UNL     1      -4.758 -10.872 -11.203  0.00  0.00    -0.084 Cl
ATOM     36  H   UNL     1      -2.233 -14.995  -6.770  0.00  0.00    +0.160 HD
ENDBRANCH  25  26
ENDBRANCH  24  25
ENDBRANCH   5  24
TORSDOF 5
