REMARK  Name = ZINC36309288
REMARK  14 active torsions:
REMARK  status: ('A' for Active; 'I' for Inactive)
REMARK    1  A    between atoms: C_1  and  C_2
REMARK    2  A    between atoms: C_2  and  C_3
REMARK    3  A    between atoms: C_3  and  N_4
REMARK    4  A    between atoms: N_4  and  C_5
REMARK    5  A    between atoms: N_4  and  C_12
REMARK    6  A    between atoms: C_5  and  C_6
REMARK    7  A    between atoms: C_6  and  C_8
REMARK    8  A    between atoms: C_6  and  O_11
REMARK    9  A    between atoms: C_8  and  O_9
REMARK   10  A    between atoms: O_9  and  C_10
REMARK   11  A    between atoms: C_12  and  C_13
REMARK   12  A    between atoms: C_23  and  C_25
REMARK   13  A    between atoms: C_25  and  O_26
REMARK   14  A    between atoms: O_26  and  C_27
REMARK                            x       y       z     vdW  Elec       q    Type
REMARK                         _______ _______ _______ _____ _____    ______ ____
ROOT
ATOM      1  C   UNL     1       0.719  -1.800  -1.135  0.00  0.00    +0.200 C 
ATOM      2  O   UNL     1      -0.281  -1.124  -1.018  0.00  0.00    -0.278 OA
ATOM      3  N   UNL     1       1.236  -2.031  -2.358  0.00  0.00    -0.292 N 
ATOM      4  C   UNL     1       2.444  -2.855  -2.514  0.00  0.00    +0.113 C 
ATOM      5  C   UNL     1       2.067  -4.123  -3.294  0.00  0.00    +0.061 C 
ATOM      6  C   UNL     1       1.173  -3.740  -4.428  0.00  0.00    -0.004 A 
ATOM      7  C   UNL     1       0.489  -2.575  -4.597  0.00  0.00    -0.014 A 
ATOM      8  C   UNL     1      -0.289  -2.469  -5.748  0.00  0.00    +0.013 A 
ATOM      9  C   UNL     1      -0.333  -3.491  -6.633  0.00  0.00    +0.046 A 
ATOM     10  S   UNL     1       0.750  -4.687  -5.866  0.00  0.00    -0.101 S 
ATOM     11  C   UNL     1       0.597  -1.468  -3.556  0.00  0.00    +0.144 C 
ENDROOT
BRANCH   1  12
ATOM     12  C   UNL     1       1.383  -2.382   0.086  0.00  0.00    +0.019 C 
BRANCH  12  13
ATOM     13  N   UNL     1       0.551  -2.119   1.268  0.00  0.00    +0.387 N 
ATOM     14  H   UNL     1       0.347  -1.133   1.323  0.00  0.00    -0.081 HD
BRANCH  13  15
ATOM     15  C   UNL     1       1.272  -2.539   2.477  0.00  0.00    -0.078 C 
BRANCH  15  17
ATOM     16  C   UNL     1       3.182  -1.999   3.995  0.00  0.00    +0.002 C 
ATOM     17  C   UNL     1       2.512  -1.661   2.661  0.00  0.00    -0.022 C 
ENDBRANCH  15  17
ENDBRANCH  13  15
BRANCH  13  18
ATOM     18  C   UNL     1      -0.705  -2.873   1.160  0.00  0.00    -0.044 C 
BRANCH  18  19
ATOM     19  C   UNL     1      -1.623  -2.504   2.327  0.00  0.00    +0.124 C 
BRANCH  19  20
ATOM     20  O   UNL     1      -1.998  -1.129   2.222  0.00  0.00    -0.391 OA
ATOM     21  H   UNL     1      -2.470  -0.912   1.407  0.00  0.00    +0.210 HD
ENDBRANCH  19  20
BRANCH  19  22
ATOM     22  C   UNL     1      -2.877  -3.379   2.285  0.00  0.00    +0.188 C 
BRANCH  22  23
ATOM     23  O   UNL     1      -3.680  -3.117   3.439  0.00  0.00    -0.381 OA
ATOM     24  C   UNL     1      -4.882  -3.887   3.498  0.00  0.00    +0.194 C 
ENDBRANCH  22  23
ENDBRANCH  19  22
ENDBRANCH  18  19
ENDBRANCH  13  18
ENDBRANCH  12  13
ENDBRANCH   1  12
BRANCH  11  25
ATOM     25  C   UNL     1       1.449  -0.325  -4.109  0.00  0.00    +0.256 C 
BRANCH  25  26
ATOM     26  O   UNL     1       2.703  -0.840  -4.561  0.00  0.00    -0.490 OA
BRANCH  26  27
ATOM     27  C   UNL     1       3.584   0.052  -5.085  0.00  0.00    +0.121 A 
ATOM     28  C   UNL     1       3.251   1.397  -5.157  0.00  0.00    +0.047 A 
ATOM     29  C   UNL     1       4.148   2.302  -5.691  0.00  0.00    +0.023 A 
ATOM     30  C   UNL     1       5.378   1.868  -6.153  0.00  0.00    +0.041 A 
ATOM     31  C   UNL     1       5.712   0.527  -6.082  0.00  0.00    +0.023 A 
ATOM     32  C   UNL     1       4.821  -0.380  -5.543  0.00  0.00    +0.047 A 
ATOM     33 CL   UNL     1       6.504   3.007  -6.823  0.00  0.00    -0.084 Cl
ENDBRANCH  26  27
ENDBRANCH  25  26
ENDBRANCH  11  25
TORSDOF 12
