REMARK  Name = ZINC13174371
REMARK  9 active torsions:
REMARK  status: ('A' for Active; 'I' for Inactive)
REMARK    1  A    between atoms: C_1  and  C_2
REMARK    2  A    between atoms: C_5  and  C_37
REMARK    3  A    between atoms: C_6  and  N_8
REMARK    4  A    between atoms: C_9  and  C_11
REMARK    5  A    between atoms: C_11  and  S_12
REMARK    6  A    between atoms: S_12  and  C_13
REMARK    7  A    between atoms: C_14  and  C_35
REMARK    8  A    between atoms: C_15  and  C_25
REMARK    9  A    between atoms: C_30  and  C_31
REMARK                            x       y       z     vdW  Elec       q    Type
REMARK                         _______ _______ _______ _____ _____    ______ ____
ROOT
ATOM      1  C   UNL     1       0.576  -2.671   7.672  0.00  0.00    +0.112 C 
ATOM      2  C   UNL     1       0.682  -2.136   8.944  0.00  0.00    +0.073 C 
ATOM      3  C   UNL     1       0.761  -3.112  10.104  0.00  0.00    +0.098 C 
ATOM      4  C   UNL     1       0.712  -4.583   9.735  0.00  0.00    +0.029 C 
ATOM      5  C   UNL     1       0.772  -5.518  10.697  0.00  0.00    +0.162 C 
ATOM      6  C   UNL     1       0.728  -6.986  10.365  0.00  0.00    +0.080 C 
ATOM      7  C   UNL     1      -0.084  -7.190   9.082  0.00  0.00    +0.014 C 
ATOM      8  C   UNL     1       0.553  -6.368   7.958  0.00  0.00    +0.056 C 
ATOM      9  C   UNL     1       0.602  -4.916   8.373  0.00  0.00    +0.050 C 
ATOM     10  N   UNL     1       0.536  -3.987   7.452  0.00  0.00    -0.244 NA
ATOM     11  O   UNL     1       0.875  -5.135  11.985  0.00  0.00    -0.292 OA
ENDROOT
BRANCH   3  12
ATOM     12  C   UNL     1      -0.387  -2.827  11.038  0.00  0.00    -0.023 A 
ATOM     13  C   UNL     1      -1.685  -3.084  10.638  0.00  0.00    +0.005 A 
ATOM     14  C   UNL     1      -2.737  -2.822  11.494  0.00  0.00    +0.000 A 
ATOM     15  C   UNL     1      -2.492  -2.304  12.752  0.00  0.00    +0.001 A 
ATOM     16  C   UNL     1      -1.194  -2.048  13.154  0.00  0.00    +0.012 A 
ATOM     17  C   UNL     1      -0.141  -2.314  12.298  0.00  0.00    +0.059 A 
BRANCH  17  18
ATOM     18  C   UNL     1       1.274  -2.040  12.737  0.00  0.00    +0.418 C 
ATOM     19  F   UNL     1       1.262  -1.425  13.994  0.00  0.00    -0.166 F 
ATOM     20  F   UNL     1       1.980  -3.245  12.815  0.00  0.00    -0.166 F 
ATOM     21  F   UNL     1       1.895  -1.195  11.811  0.00  0.00    -0.166 F 
ENDBRANCH  17  18
ENDBRANCH   3  12
BRANCH   2  22
ATOM     22  C   UNL     1       0.718  -0.721   9.157  0.00  0.00    +0.098 C 
ATOM     23  N   UNL     1       0.746   0.403   9.326  0.00  0.00    -0.191 NA
ENDBRANCH   2  22
BRANCH   1  24
ATOM     24  S   UNL     1       0.481  -1.576   6.295  0.00  0.00    -0.096 S 
BRANCH  24  25
ATOM     25  C   UNL     1       0.346  -2.682   4.863  0.00  0.00    +0.172 C 
BRANCH  25  27
ATOM     26  N   UNL     1       0.149  -2.475   2.406  0.00  0.00    -0.285 N 
ATOM     27  C   UNL     1       0.257  -1.862   3.602  0.00  0.00    +0.227 C 
ATOM     28  O   UNL     1       0.281  -0.651   3.662  0.00  0.00    -0.275 OA
ATOM     29  H   UNL     1       0.051  -3.439   2.362  0.00  0.00    +0.155 HD
BRANCH  26  35
ATOM     30  C   UNL     1       1.509   1.609   0.031  0.00  0.00    +0.044 C 
ATOM     31  C   UNL     1       0.832   0.263   0.049  0.00  0.00    -0.049 A 
ATOM     32  C   UNL     1       0.241  -0.228  -1.101  0.00  0.00    +0.004 A 
ATOM     33  C   UNL     1      -0.381  -1.463  -1.089  0.00  0.00    +0.005 A 
ATOM     34  C   UNL     1      -0.412  -2.210   0.072  0.00  0.00    -0.029 A 
ATOM     35  C   UNL     1       0.180  -1.720   1.228  0.00  0.00    +0.037 A 
ATOM     36  C   UNL     1       0.808  -0.481   1.211  0.00  0.00    +0.027 A 
ATOM     37  C   UNL     1      -1.091  -3.556   0.084  0.00  0.00    +0.045 C 
ENDBRANCH  26  35
ENDBRANCH  25  27
ENDBRANCH  24  25
ENDBRANCH   1  24
TORSDOF 7
