REMARK  Name = ZINC67396831
REMARK  7 active torsions:
REMARK  status: ('A' for Active; 'I' for Inactive)
REMARK    1  A    between atoms: C_1  and  C_2
REMARK    2  A    between atoms: C_2  and  C_4
REMARK    3  A    between atoms: C_2  and  N_12
REMARK    4  A    between atoms: C_4  and  C_5
REMARK    5  A    between atoms: C_8  and  O_11
REMARK    6  A    between atoms: C_13  and  C_15
REMARK    7  A    between atoms: N_17  and  C_18
REMARK                            x       y       z     vdW  Elec       q    Type
REMARK                         _______ _______ _______ _____ _____    ______ ____
ROOT
ATOM      1  C   UNL     1       0.706  -1.086  -3.588  0.00  0.00    +0.303 C 
ATOM      2  O   UNL     1       1.890  -1.348  -3.549  0.00  0.00    -0.265 OA
ATOM      3  N   UNL     1       0.024  -1.221  -4.742  0.00  0.00    -0.278 N 
ATOM      4  H   UNL     1      -0.935  -1.076  -4.759  0.00  0.00    +0.155 HD
ENDROOT
BRANCH   3   5
ATOM      5  C   UNL     1       0.697  -1.571  -5.915  0.00  0.00    +0.037 A 
ATOM      6  C   UNL     1       0.287  -1.037  -7.134  0.00  0.00    +0.024 A 
ATOM      7  C   UNL     1       0.947  -1.378  -8.294  0.00  0.00    +0.014 A 
ATOM      8  C   UNL     1       2.025  -2.256  -8.244  0.00  0.00    +0.028 A 
ATOM      9  C   UNL     1       2.933  -2.820  -9.261  0.00  0.00    +0.028 A 
ATOM     10  C   UNL     1       3.045  -2.681 -10.640  0.00  0.00    +0.012 A 
ATOM     11  C   UNL     1       4.032  -3.364 -11.319  0.00  0.00    +0.001 A 
ATOM     12  C   UNL     1       4.909  -4.186 -10.629  0.00  0.00    +0.004 A 
ATOM     13  C   UNL     1       4.807  -4.331  -9.262  0.00  0.00    +0.047 A 
ATOM     14  C   UNL     1       3.819  -3.651  -8.560  0.00  0.00    +0.136 A 
ATOM     15  O   UNL     1       3.499  -3.611  -7.248  0.00  0.00    -0.455 OA
ATOM     16  C   UNL     1       2.444  -2.797  -7.020  0.00  0.00    +0.138 A 
ATOM     17  C   UNL     1       1.774  -2.442  -5.857  0.00  0.00    +0.070 A 
ENDBRANCH   3   5
BRANCH   1  19
ATOM     18  N   UNL     1       0.686  -0.479  -1.203  0.00  0.00    -0.305 N 
ATOM     19  C   UNL     1       0.004  -0.614  -2.357  0.00  0.00    +0.300 C 
ATOM     20  O   UNL     1      -1.180  -0.352  -2.396  0.00  0.00    -0.265 OA
ATOM     21  H   UNL     1       1.633  -0.688  -1.171  0.00  0.00    +0.149 HD
BRANCH  18  23
ATOM     22  C   UNL     1      -0.037   1.514   0.017  0.00  0.00    +0.028 C 
ATOM     23  C   UNL     1      -0.002  -0.015   0.005  0.00  0.00    +0.075 C 
BRANCH  23  24
ATOM     24  C   UNL     1       0.745  -0.518   1.242  0.00  0.00    +0.057 C 
BRANCH  24  25
ATOM     25  C   UNL     1       0.673  -2.022   1.295  0.00  0.00    -0.045 A 
ATOM     26  C   UNL     1      -0.373  -2.641   1.953  0.00  0.00    +0.007 A 
ATOM     27  C   UNL     1      -0.441  -4.020   2.003  0.00  0.00    +0.045 A 
ATOM     28  C   UNL     1       0.543  -4.784   1.392  0.00  0.00    +0.117 A 
ATOM     29  C   UNL     1       1.592  -4.161   0.732  0.00  0.00    +0.045 A 
ATOM     30  C   UNL     1       1.652  -2.782   0.680  0.00  0.00    +0.007 A 
BRANCH  28  31
ATOM     31  O   UNL     1       0.479  -6.141   1.441  0.00  0.00    -0.507 OA
ATOM     32  H   UNL     1      -0.008  -6.538   0.706  0.00  0.00    +0.292 HD
ENDBRANCH  28  31
ENDBRANCH  24  25
ENDBRANCH  23  24
ENDBRANCH  18  23
ENDBRANCH   1  19
TORSDOF 6
