REMARK  Name = ZINC17042378
REMARK  10 active torsions:
REMARK  status: ('A' for Active; 'I' for Inactive)
REMARK    1  A    between atoms: C_1  and  C_2
REMARK    2  A    between atoms: C_4  and  N_11
REMARK    3  A    between atoms: C_5  and  O_9
REMARK    4  A    between atoms: O_9  and  C_10
REMARK    5  A    between atoms: C_12  and  C_14
REMARK    6  A    between atoms: C_14  and  C_16
REMARK    7  A    between atoms: C_14  and  O_17
REMARK    8  A    between atoms: O_17  and  C_18
REMARK    9  A    between atoms: C_18  and  C_20
REMARK   10  A    between atoms: C_20  and  N_21
REMARK                            x       y       z     vdW  Elec       q    Type
REMARK                         _______ _______ _______ _____ _____    ______ ____
ROOT
ATOM      1  C   UNL     1       4.058   0.995  -1.459  0.00  0.00    +0.326 C 
ATOM      2  O   UNL     1       3.269   0.921  -2.371  0.00  0.00    -0.249 OA
ENDROOT
BRANCH   1   3
ATOM      3  O   UNL     1       5.369   1.134  -1.714  0.00  0.00    -0.451 OA
BRANCH   3   4
ATOM      4  C   UNL     1       5.766   1.187  -3.110  0.00  0.00    +0.259 C 
ATOM      5  C   UNL     1       5.757   2.640  -3.588  0.00  0.00    +0.062 C 
BRANCH   4   7
ATOM      6  N   UNL     1       7.734   0.565  -4.474  0.00  0.00    -0.280 N 
ATOM      7  C   UNL     1       7.154   0.618  -3.259  0.00  0.00    +0.258 C 
ATOM      8  O   UNL     1       7.749   0.209  -2.284  0.00  0.00    -0.271 OA
ATOM      9  H   UNL     1       7.234   0.832  -5.262  0.00  0.00    +0.155 HD
BRANCH   6  13
ATOM     10  C   UNL     1      11.373  -2.385  -2.978  0.00  0.00    +0.045 C 
ATOM     11  C   UNL     1      10.848  -1.305  -3.889  0.00  0.00    -0.030 A 
ATOM     12  C   UNL     1       9.542  -0.871  -3.763  0.00  0.00    +0.031 A 
ATOM     13  C   UNL     1       9.058   0.123  -4.600  0.00  0.00    +0.076 A 
ATOM     14  C   UNL     1       9.889   0.678  -5.571  0.00  0.00    +0.143 A 
ATOM     15  C   UNL     1      11.199   0.242  -5.689  0.00  0.00    +0.067 A 
ATOM     16  C   UNL     1      11.675  -0.750  -4.850  0.00  0.00    +0.047 A 
ATOM     17 CL   UNL     1      13.315  -1.301  -5.003  0.00  0.00    -0.083 Cl
BRANCH  14  18
ATOM     18  O   UNL     1       9.418   1.649  -6.398  0.00  0.00    -0.493 OA
ATOM     19  C   UNL     1      10.327   2.171  -7.369  0.00  0.00    +0.277 C 
ENDBRANCH  14  18
ENDBRANCH   6  13
ENDBRANCH   4   7
ENDBRANCH   3   4
ENDBRANCH   1   3
BRANCH   1  20
ATOM     20  C   UNL     1       3.571   0.933  -0.034  0.00  0.00    +0.238 C 
BRANCH  20  21
ATOM     21  N   UNL     1       2.114   0.781  -0.023  0.00  0.00    -0.213 N 
ATOM     22  C   UNL     1       1.475  -0.407  -0.026  0.00  0.00    +0.252 C 
ATOM     23  O   UNL     1       1.978  -1.510  -0.039  0.00  0.00    -0.272 OA
ATOM     24  C   UNL     1      -0.000  -0.074  -0.012  0.00  0.00    +0.138 C 
ATOM     25  C   UNL     1      -0.675  -0.611  -1.267  0.00  0.00    +0.040 C 
ATOM     26  C   UNL     1      -2.191  -0.421  -1.123  0.00  0.00    +0.008 C 
ATOM     27  C   UNL     1      -2.696  -1.367  -0.036  0.00  0.00    +0.035 C 
ATOM     28  C   UNL     1      -1.887  -1.209   1.225  0.00  0.00    -0.042 A 
ATOM     29  C   UNL     1      -0.641  -0.619   1.234  0.00  0.00    -0.012 A 
ATOM     30  C   UNL     1       0.060  -0.515   2.428  0.00  0.00    +0.006 A 
ATOM     31  C   UNL     1      -0.480  -0.994   3.603  0.00  0.00    +0.000 A 
ATOM     32  C   UNL     1      -1.732  -1.581   3.594  0.00  0.00    +0.000 A 
ATOM     33  C   UNL     1      -2.430  -1.687   2.409  0.00  0.00    +0.004 A 
ATOM     34  N   UNL     1      -0.032   1.395  -0.001  0.00  0.00    -0.281 N 
ATOM     35  C   UNL     1       1.251   1.804  -0.008  0.00  0.00    +0.310 C 
ATOM     36  O   UNL     1       1.587   2.972  -0.001  0.00  0.00    -0.252 OA
ATOM     37  H   UNL     1      -0.821   1.959   0.006  0.00  0.00    +0.152 HD
ENDBRANCH  20  21
ENDBRANCH   1  20
TORSDOF 7
