REMARK  Name = ZINC12048961
REMARK  8 active torsions:
REMARK  status: ('A' for Active; 'I' for Inactive)
REMARK    1  A    between atoms: C_1  and  C_2
REMARK    2  A    between atoms: N_5  and  C_7
REMARK    3  A    between atoms: C_7  and  C_8
REMARK    4  A    between atoms: N_10  and  C_11
REMARK    5  A    between atoms: C_11  and  C_12
REMARK    6  A    between atoms: C_19  and  C_22
REMARK    7  A    between atoms: C_26  and  S_28
REMARK    8  A    between atoms: S_28  and  C_29
REMARK                            x       y       z     vdW  Elec       q    Type
REMARK                         _______ _______ _______ _____ _____    ______ ____
ROOT
ATOM      1  C   UNL     1       3.571   2.193  -0.020  0.00  0.00    +0.195 C 
ATOM      2  C   UNL     1       4.938   1.468  -0.032  0.00  0.00    +0.085 C 
ATOM      3  C   UNL     1       5.780   2.374   0.846  0.00  0.00    +0.001 A 
ATOM      4  C   UNL     1       7.142   2.478   1.027  0.00  0.00    +0.045 A 
ATOM      5  C   UNL     1       7.661   3.427   1.895  0.00  0.00    +0.125 A 
ATOM      6  C   UNL     1       6.809   4.271   2.581  0.00  0.00    +0.052 A 
ATOM      7  C   UNL     1       5.431   4.168   2.406  0.00  0.00    +0.045 A 
ATOM      8  C   UNL     1       4.905   3.205   1.530  0.00  0.00    +0.134 A 
ATOM      9  O   UNL     1       3.611   2.926   1.216  0.00  0.00    -0.486 OA
ATOM     10  F   UNL     1       8.997   3.526   2.070  0.00  0.00    -0.205 F 
ENDROOT
BRANCH   7  11
ATOM     11  C   UNL     1       4.521   5.076   3.143  0.00  0.00    +0.079 A 
ATOM     12  C   UNL     1       5.034   6.039   4.018  0.00  0.00    +0.048 A 
ATOM     13  C   UNL     1       4.146   6.864   4.683  0.00  0.00    +0.116 A 
ATOM     14  N   UNL     1       2.846   6.719   4.475  0.00  0.00    -0.230 NA
ATOM     15  C   UNL     1       2.388   5.798   3.639  0.00  0.00    +0.188 A 
ATOM     16  N   UNL     1       3.203   4.991   2.978  0.00  0.00    -0.222 NA
BRANCH  15  17
ATOM     17  S   UNL     1       0.649   5.648   3.397  0.00  0.00    -0.089 S 
ATOM     18  C   UNL     1       0.064   6.956   4.504  0.00  0.00    +0.093 C 
ENDBRANCH  15  17
ENDBRANCH   7  11
BRANCH   1  19
ATOM     19  C   UNL     1       2.422   1.183  -0.015  0.00  0.00    +0.149 C 
BRANCH  19  22
ATOM     20  C   UNL     1      -0.014   1.209   0.009  0.00  0.00    +0.235 C 
ATOM     21  O   UNL     1       0.002  -0.004   0.002  0.00  0.00    -0.274 OA
ATOM     22  N   UNL     1       1.143   1.898   0.001  0.00  0.00    -0.310 N 
ATOM     23  H   UNL     1       1.130   2.868   0.007  0.00  0.00    +0.149 HD
BRANCH  20  24
ATOM     24  C   UNL     1      -1.330   1.944   0.019  0.00  0.00    +0.239 C 
BRANCH  24  29
ATOM     25  C   UNL     1      -4.290  -1.882  -1.319  0.00  0.00    +0.067 C 
ATOM     26  C   UNL     1      -3.711  -0.701  -0.584  0.00  0.00    +0.060 A 
ATOM     27  C   UNL     1      -4.242  -0.110   0.567  0.00  0.00    +0.044 A 
ATOM     28  C   UNL     1      -3.435   0.918   0.917  0.00  0.00    +0.109 A 
ATOM     29  N   UNL     1      -2.430   0.977   0.019  0.00  0.00    -0.262 N 
ATOM     30  N   UNL     1      -2.628  -0.046  -0.917  0.00  0.00    -0.176 NA
ENDBRANCH  24  29
ENDBRANCH  20  24
ENDBRANCH  19  22
ENDBRANCH   1  19
TORSDOF 6
