REMARK  Name = ZINC06134723
REMARK  12 active torsions:
REMARK  status: ('A' for Active; 'I' for Inactive)
REMARK    1  A    between atoms: C_1  and  C_2
REMARK    2  A    between atoms: C_2  and  C_3
REMARK    3  A    between atoms: C_5  and  C_27
REMARK    4  A    between atoms: C_6  and  N_8
REMARK    5  A    between atoms: C_9  and  C_11
REMARK    6  A    between atoms: C_13  and  N_24
REMARK    7  A    between atoms: C_16  and  N_17
REMARK    8  A    between atoms: C_22  and  C_23
REMARK    9  A    between atoms: C_22  and  N_60
REMARK   10  A    between atoms: C_27  and  O_29
REMARK   11  A    between atoms: O_29  and  C_30
REMARK   12  A    between atoms: C_30  and  C_31
REMARK                            x       y       z     vdW  Elec       q    Type
REMARK                         _______ _______ _______ _____ _____    ______ ____
ROOT
ATOM      1  C   UNL     1       2.811   6.521   0.011  0.00  0.00    +0.060 A 
ATOM      2  C   UNL     1       4.155   6.139  -0.003  0.00  0.00    +0.047 A 
ATOM      3  C   UNL     1       5.143   7.099  -0.008  0.00  0.00    +0.127 A 
ATOM      4  C   UNL     1       4.811   8.445   0.002  0.00  0.00    +0.034 A 
ATOM      5  C   UNL     1       3.489   8.839   0.017  0.00  0.00    +0.026 A 
ATOM      6  C   UNL     1       2.478   7.885   0.016  0.00  0.00    +0.042 A 
ENDROOT
BRANCH   6   7
ATOM      7  N   UNL     1       1.147   8.278   0.024  0.00  0.00    -0.333 N 
ATOM      8  C   UNL     1       0.806   9.011  -1.203  0.00  0.00    +0.086 C 
ATOM      9  C   UNL     1      -0.685   9.357  -1.191  0.00  0.00    -0.060 C 
ATOM     10  C   UNL     1      -0.648   9.429   1.228  0.00  0.00    -0.060 C 
ATOM     11  C   UNL     1       0.843   9.083   1.216  0.00  0.00    +0.086 C 
ATOM     12  N   UNL     1      -0.972  10.184  -0.001  0.00  0.00    +0.382 N 
ATOM     13  H   UNL     1      -0.392  11.031  -0.035  0.00  0.00    -0.082 HD
BRANCH  12  14
ATOM     14  C   UNL     1      -2.397  10.578   0.010  0.00  0.00    -0.082 C 
ATOM     15  C   UNL     1      -2.780  11.111  -1.372  0.00  0.00    -0.017 C 
ENDBRANCH  12  14
ENDBRANCH   6   7
BRANCH   1  17
ATOM     16  N   UNL     1       2.074   4.191   0.005  0.00  0.00    -0.275 N 
ATOM     17  C   UNL     1       1.749   5.499   0.015  0.00  0.00    +0.250 C 
ATOM     18  O   UNL     1       0.581   5.836   0.028  0.00  0.00    -0.270 OA
ATOM     19  H   UNL     1       3.006   3.922  -0.005  0.00  0.00    +0.156 HD
BRANCH  16  23
ATOM     20  C   UNL     1      -1.170   1.761   0.017  0.00  0.00    -0.008 A 
ATOM     21  C   UNL     1      -0.013   1.076   0.008  0.00  0.00    +0.028 A 
ATOM     22  C   UNL     1       1.209   1.845   0.000  0.00  0.00    +0.088 A 
ATOM     23  C   UNL     1       1.076   3.230   0.009  0.00  0.00    +0.086 A 
ATOM     24  S   UNL     1      -0.640   3.461   0.027  0.00  0.00    -0.078 S 
BRANCH  20  26
ATOM     25  C   UNL     1      -3.046   1.029   1.464  0.00  0.00    +0.009 C 
ATOM     26  C   UNL     1      -2.576   1.220   0.021  0.00  0.00    +0.039 C 
ENDBRANCH  20  26
BRANCH  22  27
ATOM     27  C   UNL     1       2.524   1.200  -0.015  0.00  0.00    +0.342 C 
ATOM     28  O   UNL     1       3.534   1.877  -0.021  0.00  0.00    -0.245 OA
BRANCH  27  29
ATOM     29  O   UNL     1       2.614  -0.146  -0.023  0.00  0.00    -0.461 OA
BRANCH  29  30
ATOM     30  C   UNL     1       3.949  -0.717  -0.039  0.00  0.00    +0.229 C 
ATOM     31  C   UNL     1       3.851  -2.244  -0.046  0.00  0.00    +0.048 C 
ENDBRANCH  29  30
ENDBRANCH  27  29
ENDBRANCH  22  27
ENDBRANCH  16  23
ENDBRANCH   1  17
BRANCH   3  32
ATOM     32  N   UNL     1       6.566   6.692  -0.024  0.00  0.00    +0.056 N 
ATOM     33  O   UNL     1       6.861   5.510  -0.033  0.00  0.00    -0.126 OA
ATOM     34  O   UNL     1       7.441   7.538  -0.027  0.00  0.00    -0.126 OA
ENDBRANCH   3  32
TORSDOF 9
