REMARK  Name = ZINC08879943
REMARK  6 active torsions:
REMARK  status: ('A' for Active; 'I' for Inactive)
REMARK    1  A    between atoms: C_4  and  C_7
REMARK    2  A    between atoms: N_14  and  C_32
REMARK    3  A    between atoms: C_15  and  C_17
REMARK    4  A    between atoms: C_17  and  N_55
REMARK    5  A    between atoms: C_21  and  C_23
REMARK    6  A    between atoms: C_32  and  C_33
REMARK                            x       y       z     vdW  Elec       q    Type
REMARK                         _______ _______ _______ _____ _____    ______ ____
ROOT
ATOM      1  C   UNL     1      -2.825   3.023   4.572  0.00  0.00    +0.004 A 
ATOM      2  C   UNL     1      -3.908   3.767   4.237  0.00  0.00    +0.056 A 
ATOM      3  S   UNL     1      -3.885   3.749   2.455  0.00  0.00    -0.076 S 
ATOM      4  C   UNL     1      -2.437   2.755   2.203  0.00  0.00    +0.116 A 
ATOM      5  C   UNL     1      -2.005   2.459   3.506  0.00  0.00    +0.080 A 
ATOM      6  C   UNL     1      -0.828   1.650   3.601  0.00  0.00    +0.264 A 
ATOM      7  O   UNL     1      -0.376   1.341   4.689  0.00  0.00    -0.267 OA
ATOM      8  N   UNL     1      -0.228   1.237   2.469  0.00  0.00    -0.284 N 
ATOM      9  C   UNL     1      -0.718   1.572   1.248  0.00  0.00    +0.098 A 
ATOM     10  N   UNL     1      -1.787   2.313   1.129  0.00  0.00    -0.228 NA
ENDROOT
BRANCH   1  14
ATOM     11  C   UNL     1      -1.839   2.350   8.652  0.00  0.00    +0.000 A 
ATOM     12  C   UNL     1      -2.088   3.636   8.206  0.00  0.00    +0.001 A 
ATOM     13  C   UNL     1      -2.409   3.860   6.883  0.00  0.00    +0.008 A 
ATOM     14  C   UNL     1      -2.481   2.788   5.994  0.00  0.00    -0.017 A 
ATOM     15  C   UNL     1      -2.234   1.494   6.450  0.00  0.00    +0.008 A 
ATOM     16  C   UNL     1      -1.909   1.282   7.774  0.00  0.00    +0.001 A 
ENDBRANCH   1  14
BRANCH   9  17
ATOM     17  C   UNL     1      -0.013   1.086   0.008  0.00  0.00    -0.002 C 
BRANCH  17  22
ATOM     18  C   UNL     1      -1.984   0.816  -1.396  0.00  0.00    -0.077 C 
ATOM     19  C   UNL     1      -2.319   1.032  -2.887  0.00  0.00    -0.020 C 
ATOM     20  C   UNL     1      -0.970   1.364  -3.557  0.00  0.00    -0.010 C 
ATOM     21  C   UNL     1       0.067   1.320  -2.414  0.00  0.00    -0.011 C 
ATOM     22  N   UNL     1      -0.732   1.561  -1.216  0.00  0.00    +0.390 N 
ATOM     23  H   UNL     1      -0.931   2.564  -1.122  0.00  0.00    -0.080 HD
BRANCH  21  24
ATOM     24  C   UNL     1       1.104   2.398  -2.604  0.00  0.00    +0.066 A 
ATOM     25  N   UNL     1       0.959   3.688  -2.488  0.00  0.00    -0.246 NA
ATOM     26  C   UNL     1       1.978   4.551  -2.681  0.00  0.00    +0.078 A 
ATOM     27  C   UNL     1       1.980   5.961  -2.589  0.00  0.00    +0.029 A 
ATOM     28  C   UNL     1       3.115   6.671  -2.828  0.00  0.00    +0.002 A 
ATOM     29  C   UNL     1       4.307   6.046  -3.168  0.00  0.00    +0.001 A 
ATOM     30  C   UNL     1       4.346   4.668  -3.269  0.00  0.00    +0.017 A 
ATOM     31  C   UNL     1       3.205   3.942  -3.030  0.00  0.00    +0.039 A 
ATOM     32  S   UNL     1       2.776   2.219  -3.035  0.00  0.00    -0.074 S 
ENDBRANCH  21  24
ENDBRANCH  17  22
ENDBRANCH   9  17
BRANCH   8  33
ATOM     33  C   UNL     1       0.977   0.408   2.557  0.00  0.00    +0.245 C 
BRANCH  33  34
ATOM     34  C   UNL     1       2.167   1.275   2.584  0.00  0.00    +0.084 C 
ATOM     35  N   UNL     1       3.085   1.943   2.606  0.00  0.00    -0.195 NA
ENDBRANCH  33  34
ENDBRANCH   8  33
TORSDOF 6
