REMARK  Name = ZINC19210539
REMARK  8 active torsions:
REMARK  status: ('A' for Active; 'I' for Inactive)
REMARK    1  A    between atoms: C_1  and  C_2
REMARK    2  A    between atoms: C_5  and  N_8
REMARK    3  A    between atoms: C_13  and  C_26
REMARK    4  A    between atoms: C_16  and  C_21
REMARK    5  A    between atoms: C_16  and  C_22
REMARK    6  A    between atoms: C_22  and  O_24
REMARK    7  A    between atoms: O_24  and  C_25
REMARK    8  A    between atoms: C_29  and  O_32
REMARK                            x       y       z     vdW  Elec       q    Type
REMARK                         _______ _______ _______ _____ _____    ______ ____
ROOT
ATOM      1  N   UNL     1       0.059  -4.172  -0.021  0.00  0.00    -0.210 N 
ATOM      2  C   UNL     1      -0.030  -4.891  -1.146  0.00  0.00    +0.229 C 
ATOM      3  O   UNL     1      -0.135  -4.433  -2.264  0.00  0.00    -0.275 OA
ATOM      4  C   UNL     1       0.021  -6.364  -0.806  0.00  0.00    +0.077 C 
ATOM      5  C   UNL     1      -1.353  -7.000  -1.101  0.00  0.00    -0.027 C 
ATOM      6  N   UNL     1      -1.647  -7.833   0.093  0.00  0.00    +0.395 N 
ATOM      7  C   UNL     1      -1.175  -7.011   1.236  0.00  0.00    +0.041 C 
ATOM      8  C   UNL     1       0.157  -6.370   0.740  0.00  0.00    +0.086 C 
ATOM      9  C   UNL     1       0.172  -4.901   1.096  0.00  0.00    +0.229 C 
ATOM     10  O   UNL     1       0.270  -4.452   2.218  0.00  0.00    -0.275 OA
ATOM     11  C   UNL     1      -2.201  -5.928   1.574  0.00  0.00    +0.002 C 
ATOM     12  H   UNL     1      -2.639  -8.005   0.168  0.00  0.00    -0.083 HD
ATOM     13  H   UNL     1      -1.139  -8.703   0.050  0.00  0.00    -0.083 HD
ENDROOT
BRANCH   1  18
ATOM     14  C   UNL     1      -0.016   1.503   0.009  0.00  0.00    +0.044 C 
ATOM     15  C   UNL     1       0.004  -0.004   0.001  0.00  0.00    -0.050 A 
ATOM     16  C   UNL     1       1.156  -0.681   0.357  0.00  0.00    +0.005 A 
ATOM     17  C   UNL     1       1.177  -2.062   0.351  0.00  0.00    +0.024 A 
ATOM     18  C   UNL     1       0.040  -2.771  -0.013  0.00  0.00    +0.044 A 
ATOM     19  C   UNL     1      -1.115  -2.088  -0.370  0.00  0.00    +0.024 A 
ATOM     20  C   UNL     1      -1.132  -0.707  -0.357  0.00  0.00    +0.005 A 
ENDBRANCH   1  18
BRANCH   5  21
ATOM     21  C   UNL     1      -1.280  -7.859  -2.337  0.00  0.00    -0.060 A 
ATOM     22  C   UNL     1      -0.761  -9.138  -2.260  0.00  0.00    +0.005 A 
ATOM     23  C   UNL     1      -0.692  -9.927  -3.392  0.00  0.00    +0.045 A 
ATOM     24  C   UNL     1      -1.144  -9.435  -4.607  0.00  0.00    +0.117 A 
ATOM     25  C   UNL     1      -1.665  -8.151  -4.683  0.00  0.00    +0.045 A 
ATOM     26  C   UNL     1      -1.737  -7.368  -3.547  0.00  0.00    +0.005 A 
BRANCH  24  27
ATOM     27  O   UNL     1      -1.077 -10.209  -5.722  0.00  0.00    -0.507 OA
ATOM     28  H   UNL     1      -1.864 -10.750  -5.873  0.00  0.00    +0.292 HD
ENDBRANCH  24  27
ENDBRANCH   5  21
BRANCH   7  29
ATOM     29  C   UNL     1      -0.915  -7.882   2.438  0.00  0.00    +0.296 C 
ATOM     30  O   UNL     1       0.009  -7.634   3.175  0.00  0.00    -0.252 OA
BRANCH  29  31
ATOM     31  O   UNL     1      -1.710  -8.934   2.688  0.00  0.00    -0.469 OA
ATOM     32  C   UNL     1      -1.405  -9.717   3.844  0.00  0.00    +0.280 C 
ENDBRANCH  29  31
ENDBRANCH   7  29
TORSDOF 5
