REMARK  Name = ZINC21604999
REMARK  9 active torsions:
REMARK  status: ('A' for Active; 'I' for Inactive)
REMARK    1  A    between atoms: C_1  and  C_2
REMARK    2  A    between atoms: C_3  and  C_32
REMARK    3  A    between atoms: C_9  and  C_12
REMARK    4  A    between atoms: C_12  and  O_14
REMARK    5  A    between atoms: O_14  and  C_15
REMARK    6  A    between atoms: C_15  and  C_17
REMARK    7  A    between atoms: C_15  and  C_18
REMARK    8  A    between atoms: N_20  and  C_21
REMARK    9  A    between atoms: C_22  and  C_29
REMARK                            x       y       z     vdW  Elec       q    Type
REMARK                         _______ _______ _______ _____ _____    ______ ____
ROOT
ATOM      1  C   UNL     1       2.342   5.773   0.013  0.00  0.00    +0.259 C 
ATOM      2  C   UNL     1       3.107   5.941  -1.301  0.00  0.00    +0.062 C 
ENDROOT
BRANCH   1   3
ATOM      3  C   UNL     1       1.629   4.445   0.012  0.00  0.00    +0.258 C 
ATOM      4  O   UNL     1       0.416   4.408   0.024  0.00  0.00    -0.271 OA
ATOM      5  N   UNL     1       2.338   3.299  -0.002  0.00  0.00    -0.276 N 
ATOM      6  H   UNL     1       3.437   3.333  -0.013  0.00  0.00    +0.155 HD
BRANCH   5   7
ATOM      7  C   UNL     1       1.681   2.078  -0.003  0.00  0.00    +0.084 A 
ATOM      8  C   UNL     1       2.229   0.806  -0.015  0.00  0.00    +0.068 A 
ATOM      9  C   UNL     1       1.307  -0.329  -0.013  0.00  0.00    -0.023 A 
ATOM     10  C   UNL     1       0.002  -0.004   0.002  0.00  0.00    -0.004 A 
ATOM     11  S   UNL     1      -0.022   1.772   0.012  0.00  0.00    -0.077 S 
ATOM     12  C   UNL     1      -0.882  -1.222   0.007  0.00  0.00    +0.043 C 
ATOM     13  C   UNL     1       0.051  -2.378   0.429  0.00  0.00    +0.010 C 
ATOM     14  C   UNL     1       1.427  -1.853  -0.025  0.00  0.00    +0.037 C 
BRANCH   8  15
ATOM     15  C   UNL     1       3.682   0.606  -0.029  0.00  0.00    +0.244 C 
ATOM     16  O   UNL     1       4.275   0.528  -1.089  0.00  0.00    -0.270 OA
ATOM     17  N   UNL     1       4.360   0.506   1.131  0.00  0.00    -0.325 N 
ATOM     18  H   UNL     1       5.450   0.355   1.120  0.00  0.00    +0.145 HD
ATOM     19  H   UNL     1       3.824   0.576   2.089  0.00  0.00    +0.145 HD
ENDBRANCH   8  15
ENDBRANCH   5   7
ENDBRANCH   1   3
BRANCH   1  20
ATOM     20  O   UNL     1       1.371   6.844   0.148  0.00  0.00    -0.449 OA
BRANCH  20  21
ATOM     21  C   UNL     1       1.782   7.967   0.769  0.00  0.00    +0.340 C 
ATOM     22  O   UNL     1       2.920   8.049   1.185  0.00  0.00    -0.245 OA
BRANCH  21  31
ATOM     23  C   UNL     1       1.698  13.243   3.011  0.00  0.00    +0.046 C 
ATOM     24  C   UNL     1       0.483  12.647   2.347  0.00  0.00    -0.022 A 
ATOM     25  C   UNL     1      -0.715  13.234   2.198  0.00  0.00    +0.017 A 
ATOM     26  N   UNL     1      -1.571  12.388   1.546  0.00  0.00    -0.358 N 
ATOM     27  H   UNL     1      -2.604  12.706   1.337  0.00  0.00    +0.166 HD
ATOM     28  C   UNL     1      -0.933  11.208   1.252  0.00  0.00    +0.047 A 
ATOM     29  C   UNL     1       0.384  11.316   1.741  0.00  0.00    +0.004 A 
ATOM     30  C   UNL     1       1.274  10.257   1.584  0.00  0.00    +0.025 A 
ATOM     31  C   UNL     1       0.849   9.097   0.942  0.00  0.00    +0.060 A 
ATOM     32  C   UNL     1      -0.463   9.004   0.456  0.00  0.00    +0.017 A 
ATOM     33  C   UNL     1      -1.337  10.038   0.613  0.00  0.00    +0.027 A 
ATOM     34  C   UNL     1      -1.064  14.619   2.676  0.00  0.00    +0.063 C 
ENDBRANCH  21  31
ENDBRANCH  20  21
ENDBRANCH   1  20
TORSDOF 6
