REMARK  Name = ZINC38639438
REMARK  5 active torsions:
REMARK  status: ('A' for Active; 'I' for Inactive)
REMARK    1  A    between atoms: C_10  and  C_11
REMARK    2  A    between atoms: C_11  and  C_13
REMARK    3  A    between atoms: C_13  and  O_14
REMARK    4  A    between atoms: O_14  and  C_15
REMARK    5  A    between atoms: C_15  and  C_17
REMARK                            x       y       z     vdW  Elec       q    Type
REMARK                         _______ _______ _______ _____ _____    ______ ____
ROOT
ATOM      1  C   UNL     1      -1.267  -0.746   0.010  0.00  0.00    +0.200 C 
ATOM      2  O   UNL     1      -1.261  -1.959   0.004  0.00  0.00    -0.288 OA
ENDROOT
BRANCH   1  12
ATOM      3  C   UNL     1      -0.018   1.463   0.010  0.00  0.00    +0.013 A 
ATOM      4  C   UNL     1       1.118   2.194   0.003  0.00  0.00    +0.026 A 
ATOM      5  C   UNL     1       2.378   1.561  -0.012  0.00  0.00    +0.056 A 
ATOM      6  N   UNL     1       3.623   1.990  -0.022  0.00  0.00    -0.268 N 
ATOM      7  C   UNL     1       4.453   0.907  -0.036  0.00  0.00    +0.308 C 
ATOM      8  O   UNL     1       5.665   0.957  -0.047  0.00  0.00    -0.252 OA
ATOM      9  N   UNL     1       3.706  -0.256  -0.035  0.00  0.00    -0.268 N 
ATOM     10  C   UNL     1       2.442   0.067  -0.021  0.00  0.00    +0.057 A 
ATOM     11  C   UNL     1       1.184  -0.691  -0.013  0.00  0.00    +0.036 A 
ATOM     12  C   UNL     1       0.002  -0.004   0.002  0.00  0.00    +0.023 A 
ATOM     13  H   UNL     1       4.061  -1.159  -0.044  0.00  0.00    +0.156 HD
ATOM     14  H   UNL     1       3.903   2.919  -0.020  0.00  0.00    +0.156 HD
ENDBRANCH   1  12
BRANCH   1  15
ATOM     15  C   UNL     1      -2.576  -0.000   0.027  0.00  0.00    +0.311 C 
BRANCH  15  16
ATOM     16  O   UNL     1      -3.658  -0.935   0.032  0.00  0.00    -0.452 OA
BRANCH  16  17
ATOM     17  C   UNL     1      -4.905  -0.427   0.047  0.00  0.00    +0.360 C 
ATOM     18  O   UNL     1      -5.071   0.776   0.055  0.00  0.00    -0.243 OA
BRANCH  17  19
ATOM     19  C   UNL     1      -6.073  -1.335   0.053  0.00  0.00    +0.167 A 
ATOM     20  C   UNL     1      -7.362  -0.803   0.062  0.00  0.00    +0.073 A 
ATOM     21  C   UNL     1      -8.448  -1.667   0.068  0.00  0.00    +0.025 A 
ATOM     22  C   UNL     1      -8.207  -3.031   0.064  0.00  0.00    +0.041 A 
ATOM     23  C   UNL     1      -6.897  -3.491   0.055  0.00  0.00    +0.130 A 
ATOM     24  N   UNL     1      -5.886  -2.650   0.044  0.00  0.00    -0.227 NA
ATOM     25 CL   UNL     1      -6.590  -5.199   0.051  0.00  0.00    -0.062 Cl
ATOM     26 CL   UNL     1      -7.606   0.916   0.067  0.00  0.00    -0.081 Cl
ENDBRANCH  17  19
ENDBRANCH  16  17
ENDBRANCH  15  16
ENDBRANCH   1  15
TORSDOF 5
