REMARK  Name = ZINC39693563
REMARK  15 active torsions:
REMARK  status: ('A' for Active; 'I' for Inactive)
REMARK    1  A    between atoms: C_1  and  C_2
REMARK    2  A    between atoms: C_2  and  C_3
REMARK    3  A    between atoms: C_2  and  C_4
REMARK    4  A    between atoms: C_4  and  C_6
REMARK    5  A    between atoms: C_4  and  O_32
REMARK    6  A    between atoms: C_10  and  C_19
REMARK    7  A    between atoms: N_21  and  C_22
REMARK    8  A    between atoms: C_22  and  C_23
REMARK    9  A    between atoms: C_23  and  N_24
REMARK   10  A    between atoms: C_25  and  O_27
REMARK   11  A    between atoms: O_27  and  C_28
REMARK   12  A    between atoms: C_28  and  C_29
REMARK   13  A    between atoms: C_28  and  C_30
REMARK   14  A    between atoms: C_28  and  C_31
REMARK   15  A    between atoms: O_32  and  C_33
REMARK                            x       y       z     vdW  Elec       q    Type
REMARK                         _______ _______ _______ _____ _____    ______ ____
ROOT
ATOM      1  C   UNL     1      -2.445  -0.705  -1.617  0.00  0.00    +0.257 C 
ATOM      2  O   UNL     1      -3.462  -0.043  -1.613  0.00  0.00    -0.272 OA
ATOM      3  N   UNL     1      -1.889  -1.079  -2.786  0.00  0.00    -0.297 N 
ATOM      4  C   UNL     1      -0.664  -1.887  -2.992  0.00  0.00    +0.121 C 
ATOM      5  C   UNL     1      -1.000  -2.808  -4.186  0.00  0.00    +0.100 C 
ATOM      6  C   UNL     1      -2.115  -2.072  -4.948  0.00  0.00    -0.004 C 
ATOM      7  C   UNL     1      -2.368  -0.780  -4.157  0.00  0.00    +0.115 C 
ATOM      8  C   UNL     1      -1.658  -1.744  -6.366  0.00  0.00    -0.010 C 
ATOM      9  C   UNL     1      -2.804  -1.065  -7.122  0.00  0.00    -0.082 C 
ATOM     10  N   UNL     1      -3.968  -1.958  -7.155  0.00  0.00    +0.379 N 
ATOM     11  C   UNL     1      -4.457  -2.195  -5.792  0.00  0.00    -0.082 C 
ATOM     12  C   UNL     1      -3.382  -2.922  -4.980  0.00  0.00    -0.010 C 
ATOM     13  H   UNL     1      -4.700  -1.534  -7.705  0.00  0.00    -0.086 HD
ATOM     14  H   UNL     1      -3.703  -2.837  -7.574  0.00  0.00    -0.086 HD
ENDROOT
BRANCH   5  15
ATOM     15  C   UNL     1      -1.490  -4.146  -3.696  0.00  0.00    +0.218 C 
ATOM     16  O   UNL     1      -2.100  -4.221  -2.650  0.00  0.00    -0.275 OA
ATOM     17  N   UNL     1      -1.252  -5.258  -4.419  0.00  0.00    -0.314 N 
ATOM     18  H   UNL     1      -0.764  -5.197  -5.255  0.00  0.00    +0.149 HD
BRANCH  17  19
ATOM     19  C   UNL     1      -1.729  -6.558  -3.942  0.00  0.00    +0.123 C 
BRANCH  19  20
ATOM     20  C   UNL     1      -1.329  -7.646  -4.941  0.00  0.00    +0.126 C 
BRANCH  20  21
ATOM     21  N   UNL     1      -1.806  -8.946  -4.464  0.00  0.00    -0.280 N 
ATOM     22  C   UNL     1      -1.568 -10.058  -5.187  0.00  0.00    +0.401 C 
ATOM     23  O   UNL     1      -0.957  -9.982  -6.234  0.00  0.00    -0.226 OA
ATOM     24  H   UNL     1      -2.294  -9.007  -3.627  0.00  0.00    +0.152 HD
BRANCH  22  25
ATOM     25  O   UNL     1      -2.006 -11.253  -4.748  0.00  0.00    -0.445 OA
BRANCH  25  26
ATOM     26  C   UNL     1      -1.718 -12.390  -5.565  0.00  0.00    +0.107 C 
ATOM     27  C   UNL     1      -0.203 -12.538  -5.716  0.00  0.00    +0.055 C 
ATOM     28  C   UNL     1      -2.291 -13.648  -4.910  0.00  0.00    +0.055 C 
ATOM     29  C   UNL     1      -2.352 -12.200  -6.945  0.00  0.00    +0.055 C 
ENDBRANCH  25  26
ENDBRANCH  22  25
ENDBRANCH  20  21
ENDBRANCH  19  20
ENDBRANCH  17  19
ENDBRANCH   5  15
BRANCH   1  30
ATOM     30  C   UNL     1      -1.804  -1.110  -0.314  0.00  0.00    +0.261 C 
BRANCH  30  32
ATOM     31  C   UNL     1      -0.613   1.076  -0.100  0.00  0.00    +0.011 C 
ATOM     32  C   UNL     1      -0.434  -0.441  -0.191  0.00  0.00    +0.033 C 
ATOM     33  C   UNL     1       0.269  -0.948   1.070  0.00  0.00    +0.011 C 
ENDBRANCH  30  32
BRANCH  30  34
ATOM     34  O   UNL     1      -2.635  -0.698   0.773  0.00  0.00    -0.479 OA
BRANCH  34  35
ATOM     35  C   UNL     1      -2.739  -1.550   1.827  0.00  0.00    +0.122 A 
ATOM     36  C   UNL     1      -3.618  -1.270   2.863  0.00  0.00    +0.045 A 
ATOM     37  C   UNL     1      -3.721  -2.138   3.933  0.00  0.00    +0.004 A 
ATOM     38  C   UNL     1      -2.950  -3.284   3.972  0.00  0.00    +0.000 A 
ATOM     39  C   UNL     1      -2.074  -3.566   2.941  0.00  0.00    +0.004 A 
ATOM     40  C   UNL     1      -1.970  -2.705   1.866  0.00  0.00    +0.045 A 
ENDBRANCH  34  35
ENDBRANCH  30  34
ENDBRANCH   1  30
TORSDOF 10
