REMARK  Name = ZINC35851816
REMARK  4 active torsions:
REMARK  status: ('A' for Active; 'I' for Inactive)
REMARK    1  A    between atoms: C_1  and  C_2
REMARK    2  A    between atoms: C_2  and  C_3
REMARK    3  A    between atoms: N_22  and  C_25
REMARK    4  A    between atoms: C_30  and  C_31
REMARK                            x       y       z     vdW  Elec       q    Type
REMARK                         _______ _______ _______ _____ _____    ______ ____
ROOT
ATOM      1  C   UNL     1       0.658  -0.627  -1.180  0.00  0.00    -0.047 A 
ATOM      2  C   UNL     1      -0.099  -0.974  -2.284  0.00  0.00    +0.005 A 
ATOM      3  C   UNL     1       0.508  -1.494  -3.409  0.00  0.00    +0.024 A 
ATOM      4  C   UNL     1       1.889  -1.673  -3.441  0.00  0.00    +0.036 A 
ATOM      5  C   UNL     1       2.640  -1.320  -2.324  0.00  0.00    -0.027 A 
ATOM      6  C   UNL     1       2.031  -0.796  -1.206  0.00  0.00    +0.008 A 
ATOM      7  C   UNL     1       4.068  -1.632  -2.673  0.00  0.00    +0.053 C 
ATOM      8  C   UNL     1       4.675  -2.651  -1.701  0.00  0.00    +0.089 C 
ATOM      9  C   UNL     1       5.503  -1.798  -0.702  0.00  0.00    +0.074 C 
ATOM     10  C   UNL     1       5.307  -0.340  -1.155  0.00  0.00    -0.054 C 
ATOM     11  N   UNL     1       4.918  -0.432  -2.601  0.00  0.00    +0.395 N 
ATOM     12  C   UNL     1       6.184  -0.688  -3.328  0.00  0.00    -0.076 C 
ATOM     13  C   UNL     1       7.248   0.155  -2.596  0.00  0.00    -0.020 C 
ATOM     14  C   UNL     1       6.667   0.383  -1.146  0.00  0.00    -0.016 C 
ATOM     15  C   UNL     1       6.926  -2.234  -0.969  0.00  0.00    +0.228 C 
ATOM     16  O   UNL     1       7.908  -1.808  -0.399  0.00  0.00    -0.275 OA
ATOM     17  N   UNL     1       6.934  -3.163  -1.932  0.00  0.00    -0.210 N 
ATOM     18  C   UNL     1       5.713  -3.484  -2.418  0.00  0.00    +0.229 C 
ATOM     19  O   UNL     1       5.481  -4.300  -3.284  0.00  0.00    -0.275 OA
ATOM     20  C   UNL     1       4.015  -2.181  -4.074  0.00  0.00    +0.212 C 
ATOM     21  O   UNL     1       4.956  -2.558  -4.740  0.00  0.00    -0.277 OA
ATOM     22  N   UNL     1       2.721  -2.172  -4.445  0.00  0.00    -0.286 N 
ATOM     23  H   UNL     1       2.403  -2.476  -5.309  0.00  0.00    +0.155 HD
ATOM     24  H   UNL     1       4.442   0.397  -2.923  0.00  0.00    -0.079 HD
ENDROOT
BRANCH  17  25
ATOM     25  C   UNL     1       8.113  -3.761  -2.399  0.00  0.00    +0.048 A 
ATOM     26  C   UNL     1       8.814  -3.188  -3.451  0.00  0.00    +0.024 A 
ATOM     27  C   UNL     1       9.976  -3.779  -3.909  0.00  0.00    +0.003 A 
ATOM     28  C   UNL     1      10.440  -4.941  -3.321  0.00  0.00    +0.020 A 
ATOM     29  C   UNL     1       9.743  -5.515  -2.273  0.00  0.00    +0.046 A 
ATOM     30  C   UNL     1       8.583  -4.925  -1.807  0.00  0.00    -0.010 A 
ATOM     31  C   UNL     1       7.828  -5.547  -0.661  0.00  0.00    +0.047 C 
ATOM     32 CL   UNL     1      10.329  -6.975  -1.538  0.00  0.00    -0.083 Cl
ENDBRANCH  17  25
BRANCH   1  34
ATOM     33  C   UNL     1      -0.082   1.464  -0.071  0.00  0.00    +0.009 C 
ATOM     34  C   UNL     1      -0.010  -0.060   0.046  0.00  0.00    +0.032 C 
ENDBRANCH   1  34
TORSDOF 2
