REMARK  Name = ZINC11582447
REMARK  7 active torsions:
REMARK  status: ('A' for Active; 'I' for Inactive)
REMARK    1  A    between atoms: C_1  and  O_2
REMARK    2  A    between atoms: O_2  and  C_3
REMARK    3  A    between atoms: C_5  and  C_10
REMARK    4  A    between atoms: C_8  and  O_9
REMARK    5  A    between atoms: N_18  and  C_21
REMARK    6  A    between atoms: C_26  and  C_27
REMARK    7  A    between atoms: N_32  and  C_33
REMARK                            x       y       z     vdW  Elec       q    Type
REMARK                         _______ _______ _______ _____ _____    ______ ____
ROOT
ATOM      1  C   UNL     1       1.393   3.775  -1.069  0.00  0.00    +0.157 C 
ATOM      2  C   UNL     1       0.910   5.231  -1.258  0.00  0.00    +0.145 C 
ATOM      3  C   UNL     1      -0.241   5.388  -0.230  0.00  0.00    +0.249 C 
ATOM      4  C   UNL     1       0.295   6.393   0.764  0.00  0.00    +0.259 C 
ATOM      5  O   UNL     1      -0.297   6.797   1.741  0.00  0.00    -0.272 OA
ATOM      6  N   UNL     1       1.538   6.759   0.382  0.00  0.00    -0.207 N 
ATOM      7  C   UNL     1       1.974   6.173  -0.739  0.00  0.00    +0.235 C 
ATOM      8  O   UNL     1       3.053   6.366  -1.257  0.00  0.00    -0.274 OA
ATOM      9  O   UNL     1      -0.383   4.108   0.410  0.00  0.00    -0.257 OA
ATOM     10  N   UNL     1       0.933   3.445   0.307  0.00  0.00    -0.244 N 
ENDROOT
BRANCH   1  13
ATOM     11  C   UNL     1       4.874   3.236  -2.434  0.00  0.00    +0.162 A 
ATOM     12  C   UNL     1       3.493   3.306  -2.346  0.00  0.00    +0.055 A 
ATOM     13  C   UNL     1       2.895   3.695  -1.162  0.00  0.00    -0.018 A 
ATOM     14  C   UNL     1       3.672   4.006  -0.061  0.00  0.00    +0.009 A 
ATOM     15  C   UNL     1       5.050   3.934  -0.141  0.00  0.00    +0.049 A 
ATOM     16  C   UNL     1       5.656   3.550  -1.327  0.00  0.00    +0.158 A 
BRANCH  11  18
ATOM     17  C   UNL     1       4.600   2.552  -4.695  0.00  0.00    +0.277 C 
ATOM     18  O   UNL     1       5.464   2.859  -3.600  0.00  0.00    -0.491 OA
ENDBRANCH  11  18
BRANCH  16  19
ATOM     19  O   UNL     1       7.012   3.479  -1.407  0.00  0.00    -0.503 OA
ATOM     20  H   UNL     1       7.375   2.615  -1.171  0.00  0.00    +0.292 HD
ENDBRANCH  16  19
ENDBRANCH   1  13
BRANCH   6  21
ATOM     21  C   UNL     1       2.306   7.686   1.101  0.00  0.00    +0.056 A 
ATOM     22  C   UNL     1       3.163   7.250   2.104  0.00  0.00    +0.024 A 
ATOM     23  C   UNL     1       3.922   8.165   2.806  0.00  0.00    +0.002 A 
ATOM     24  C   UNL     1       3.822   9.514   2.521  0.00  0.00    +0.001 A 
ATOM     25  C   UNL     1       2.965   9.951   1.527  0.00  0.00    +0.014 A 
ATOM     26  C   UNL     1       2.208   9.041   0.817  0.00  0.00    +0.077 A 
BRANCH  26  27
ATOM     27  C   UNL     1       1.275   9.518  -0.266  0.00  0.00    +0.419 C 
ATOM     28  F   UNL     1       1.383  10.907  -0.397  0.00  0.00    -0.166 F 
ATOM     29  F   UNL     1       1.615   8.907  -1.478  0.00  0.00    -0.166 F 
ATOM     30  F   UNL     1      -0.041   9.183   0.071  0.00  0.00    -0.166 F 
ENDBRANCH  26  27
ENDBRANCH   6  21
BRANCH  10  31
ATOM     31  C   UNL     1       0.812   2.064   0.476  0.00  0.00    +0.065 A 
ATOM     32  C   UNL     1      -0.445   1.486   0.606  0.00  0.00    +0.028 A 
ATOM     33  C   UNL     1      -0.561   0.120   0.774  0.00  0.00    +0.002 A 
ATOM     34  C   UNL     1       0.572  -0.672   0.812  0.00  0.00    +0.000 A 
ATOM     35  C   UNL     1       1.824  -0.100   0.684  0.00  0.00    +0.002 A 
ATOM     36  C   UNL     1       1.948   1.265   0.516  0.00  0.00    +0.028 A 
ENDBRANCH  10  31
TORSDOF 6
