REMARK  Name = ZINC63533567
REMARK  11 active torsions:
REMARK  status: ('A' for Active; 'I' for Inactive)
REMARK    1  A    between atoms: C_1  and  C_2
REMARK    2  A    between atoms: C_3  and  C_25
REMARK    3  A    between atoms: C_5  and  C_7
REMARK    4  A    between atoms: C_7  and  S_8
REMARK    5  A    between atoms: S_8  and  C_9
REMARK    6  A    between atoms: C_12  and  C_15
REMARK    7  A    between atoms: N_13  and  N_14
REMARK    8  A    between atoms: C_18  and  O_23
REMARK    9  A    between atoms: C_20  and  O_21
REMARK   10  A    between atoms: O_21  and  C_22
REMARK   11  A    between atoms: O_23  and  C_24
REMARK                            x       y       z     vdW  Elec       q    Type
REMARK                         _______ _______ _______ _____ _____    ______ ____
ROOT
ATOM      1  C   UNL     1      -1.452  -5.124   3.058  0.00  0.00    +0.209 A 
ATOM      2  N   UNL     1      -0.325  -5.738   3.336  0.00  0.00    -0.121 NA
ATOM      3  N   UNL     1      -0.554  -6.781   4.051  0.00  0.00    -0.127 NA
ATOM      4  C   UNL     1      -1.843  -6.897   4.274  0.00  0.00    +0.185 A 
ATOM      5  N   UNL     1      -2.457  -5.837   3.650  0.00  0.00    -0.224 N 
ENDROOT
BRANCH   4   6
ATOM      6  C   UNL     1      -2.506  -7.963   5.053  0.00  0.00    +0.063 A 
ATOM      7  C   UNL     1      -3.636  -8.604   4.542  0.00  0.00    +0.019 A 
ATOM      8  C   UNL     1      -4.253  -9.597   5.271  0.00  0.00    +0.046 A 
ATOM      9  C   UNL     1      -3.753  -9.964   6.514  0.00  0.00    +0.124 A 
ATOM     10  C   UNL     1      -2.631  -9.333   7.030  0.00  0.00    +0.092 A 
ATOM     11  C   UNL     1      -2.000  -8.338   6.304  0.00  0.00    +0.134 A 
BRANCH  11  12
ATOM     12  O   UNL     1      -0.898  -7.723   6.805  0.00  0.00    -0.494 OA
ATOM     13  C   UNL     1      -0.439  -8.158   8.086  0.00  0.00    +0.277 C 
ENDBRANCH  11  12
BRANCH   9  14
ATOM     14  O   UNL     1      -4.367 -10.945   7.228  0.00  0.00    -0.495 OA
ATOM     15  C   UNL     1      -5.517 -11.553   6.638  0.00  0.00    +0.277 C 
ENDBRANCH   9  14
ENDBRANCH   4   6
BRANCH   5  16
ATOM     16  N   UNL     1      -3.794  -5.556   3.624  0.00  0.00    -0.295 N 
ATOM     17  H   UNL     1      -4.256  -6.065   2.886  0.00  0.00    +0.163 HD
ATOM     18  H   UNL     1      -4.221  -5.747   4.518  0.00  0.00    +0.163 HD
ENDBRANCH   5  16
BRANCH   1  19
ATOM     19  S   UNL     1      -1.634  -3.652   2.107  0.00  0.00    -0.075 S 
BRANCH  19  20
ATOM     20  C   UNL     1       0.063  -3.228   1.625  0.00  0.00    +0.173 C 
BRANCH  20  25
ATOM     21  C   UNL     1       0.178   1.605   0.312  0.00  0.00    +0.069 C 
ATOM     22  C   UNL     1       0.099   0.103   0.224  0.00  0.00    +0.079 A 
ATOM     23  C   UNL     1      -0.034  -0.619  -0.901  0.00  0.00    +0.125 A 
ATOM     24  O   UNL     1      -0.064  -1.916  -0.538  0.00  0.00    -0.444 OA
ATOM     25  C   UNL     1       0.051  -1.970   0.796  0.00  0.00    +0.206 A 
ATOM     26  N   UNL     1       0.155  -0.757   1.256  0.00  0.00    -0.218 NA
ATOM     27  C   UNL     1      -0.132  -0.080  -2.305  0.00  0.00    +0.088 C 
ENDBRANCH  20  25
ENDBRANCH  19  20
ENDBRANCH   1  19
TORSDOF 7
