REMARK  Name = ZINC66332505
REMARK  6 active torsions:
REMARK  status: ('A' for Active; 'I' for Inactive)
REMARK    1  A    between atoms: C_1  and  C_2
REMARK    2  A    between atoms: C_2  and  C_4
REMARK    3  A    between atoms: C_2  and  N_18
REMARK    4  A    between atoms: C_4  and  C_5
REMARK    5  A    between atoms: C_11  and  C_13
REMARK    6  A    between atoms: C_19  and  C_21
REMARK                            x       y       z     vdW  Elec       q    Type
REMARK                         _______ _______ _______ _____ _____    ______ ____
ROOT
ATOM      1  C   UNL     1       0.680  -0.347  -1.875  0.00  0.00    +0.118 C 
ENDROOT
BRANCH   1   2
ATOM      2  C   UNL     1       0.582  -1.843  -1.717  0.00  0.00    +0.218 C 
ATOM      3  O   UNL     1      -0.058  -2.314  -0.800  0.00  0.00    -0.276 OA
ATOM      4  N   UNL     1       1.204  -2.656  -2.593  0.00  0.00    -0.298 N 
ATOM      5  C   UNL     1       1.931  -2.223  -3.800  0.00  0.00    +0.108 C 
ATOM      6  C   UNL     1       2.937  -3.365  -4.089  0.00  0.00    +0.021 C 
ATOM      7  C   UNL     1       2.106  -4.617  -3.703  0.00  0.00    +0.024 C 
ATOM      8  C   UNL     1       1.277  -4.121  -2.499  0.00  0.00    +0.079 C 
BRANCH   8   9
ATOM      9  C   UNL     1      -0.131  -4.717  -2.560  0.00  0.00    +0.010 C 
ATOM     10  C   UNL     1      -0.054  -6.258  -2.527  0.00  0.00    +0.005 C 
ATOM     11  C   UNL     1      -1.184  -6.715  -3.483  0.00  0.00    +0.000 C 
ATOM     12  C   UNL     1      -1.117  -5.663  -4.618  0.00  0.00    +0.000 C 
ATOM     13  C   UNL     1      -0.806  -4.339  -3.890  0.00  0.00    +0.005 C 
ENDBRANCH   8   9
ENDBRANCH   1   2
BRANCH   1  15
ATOM     14  C   UNL     1      -0.115   1.850  -0.990  0.00  0.00    +0.028 C 
ATOM     15  C   UNL     1      -0.110   0.337  -0.759  0.00  0.00    +0.079 C 
BRANCH  15  16
ATOM     16  N   UNL     1       0.514   0.043   0.533  0.00  0.00    -0.312 N 
ATOM     17  C   UNL     1      -0.221   0.083   1.662  0.00  0.00    +0.216 C 
ATOM     18  O   UNL     1      -1.399   0.363   1.609  0.00  0.00    -0.276 OA
ATOM     19  H   UNL     1       1.457  -0.181   0.576  0.00  0.00    +0.149 HD
BRANCH  17  20
ATOM     20  C   UNL     1       0.422  -0.220   2.991  0.00  0.00    +0.075 C 
ATOM     21  C   UNL     1       0.990  -1.640   2.971  0.00  0.00    +0.013 C 
ATOM     22  C   UNL     1       1.643  -1.948   4.320  0.00  0.00    +0.001 C 
ATOM     23  C   UNL     1       0.597  -1.833   5.431  0.00  0.00    +0.000 C 
ATOM     24  C   UNL     1       0.028  -0.412   5.451  0.00  0.00    +0.001 C 
ATOM     25  C   UNL     1      -0.624  -0.105   4.102  0.00  0.00    +0.013 C 
ENDBRANCH  17  20
ENDBRANCH  15  16
ENDBRANCH   1  15
TORSDOF 5
