REMARK  Name = ZINC38847905
REMARK  7 active torsions:
REMARK  status: ('A' for Active; 'I' for Inactive)
REMARK    1  A    between atoms: C_3  and  N_29
REMARK    2  A    between atoms: C_6  and  C_7
REMARK    3  A    between atoms: C_7  and  C_8
REMARK    4  A    between atoms: N_10  and  C_11
REMARK    5  A    between atoms: C_11  and  C_12
REMARK    6  A    between atoms: C_12  and  C_13
REMARK    7  A    between atoms: C_13  and  N_14
REMARK                            x       y       z     vdW  Elec       q    Type
REMARK                         _______ _______ _______ _____ _____    ______ ____
ROOT
ATOM      1  C   UNL     1      -1.738  -1.025  -1.408  0.00  0.00    +0.226 C 
ATOM      2  O   UNL     1      -1.069  -0.617  -2.334  0.00  0.00    -0.275 OA
ATOM      3  N   UNL     1      -2.878  -1.701  -1.647  0.00  0.00    -0.250 N 
ATOM      4  C   UNL     1      -3.642  -2.168  -0.589  0.00  0.00    +0.168 A 
ATOM      5  N   UNL     1      -4.766  -2.844  -0.621  0.00  0.00    -0.224 NA
ATOM      6  C   UNL     1      -5.409  -3.238   0.501  0.00  0.00    +0.080 A 
ATOM      7  C   UNL     1      -6.617  -3.965   0.605  0.00  0.00    +0.030 A 
ATOM      8  C   UNL     1      -7.138  -4.285   1.831  0.00  0.00    +0.017 A 
ATOM      9  C   UNL     1      -6.504  -3.912   3.009  0.00  0.00    +0.019 A 
ATOM     10  C   UNL     1      -5.320  -3.200   2.944  0.00  0.00    +0.032 A 
ATOM     11  C   UNL     1      -4.791  -2.875   1.719  0.00  0.00    +0.042 A 
ATOM     12  S   UNL     1      -3.342  -2.009   1.166  0.00  0.00    -0.052 S 
ATOM     13 BR   UNL     1      -7.253  -4.370   4.683  0.00  0.00    -0.050 Br
ENDROOT
BRANCH   1  14
ATOM     14  C   UNL     1      -1.293  -0.775   0.010  0.00  0.00    +0.131 C 
BRANCH  14  20
ATOM     15  C   UNL     1      -0.017   1.378   0.010  0.00  0.00    +0.006 A 
ATOM     16  C   UNL     1       1.171   2.086   0.002  0.00  0.00    +0.033 A 
ATOM     17  C   UNL     1       2.377   1.411  -0.013  0.00  0.00    +0.126 A 
ATOM     18  C   UNL     1       2.396   0.029  -0.020  0.00  0.00    +0.033 A 
ATOM     19  C   UNL     1       1.208  -0.679  -0.012  0.00  0.00    +0.006 A 
ATOM     20  C   UNL     1       0.002  -0.004   0.002  0.00  0.00    -0.038 A 
BRANCH  17  21
ATOM     21  N   UNL     1       3.649   2.168  -0.022  0.00  0.00    +0.056 N 
ATOM     22  O   UNL     1       3.633   3.377  -0.016  0.00  0.00    -0.126 OA
ATOM     23  O   UNL     1       4.704   1.578  -0.035  0.00  0.00    -0.126 OA
ENDBRANCH  17  21
ENDBRANCH  14  20
ENDBRANCH   1  14
BRANCH   3  24
ATOM     24  C   UNL     1      -3.311  -1.944  -3.025  0.00  0.00    +0.117 C 
BRANCH  24  25
ATOM     25  C   UNL     1      -2.724  -3.268  -3.519  0.00  0.00    +0.041 C 
BRANCH  25  26
ATOM     26  C   UNL     1      -3.175  -3.521  -4.959  0.00  0.00    +0.124 C 
BRANCH  26  27
ATOM     27  N   UNL     1      -2.613  -4.788  -5.431  0.00  0.00    -0.338 N 
ATOM     28  C   UNL     1      -1.409  -4.958  -6.061  0.00  0.00    +0.104 A 
ATOM     29  C   UNL     1      -1.287  -6.274  -6.319  0.00  0.00    +0.101 A 
ATOM     30  N   UNL     1      -2.386  -6.891  -5.859  0.00  0.00    -0.352 N 
ATOM     31  C   UNL     1      -3.182  -6.008  -5.322  0.00  0.00    +0.173 A 
ATOM     32  H   UNL     1      -2.560  -7.844  -5.914  0.00  0.00    +0.166 HD
ENDBRANCH  26  27
ENDBRANCH  25  26
ENDBRANCH  24  25
ENDBRANCH   3  24
TORSDOF 7
