REMARK  Name = ZINC44335237
REMARK  8 active torsions:
REMARK  status: ('A' for Active; 'I' for Inactive)
REMARK    1  A    between atoms: C_1  and  O_2
REMARK    2  A    between atoms: O_2  and  C_3
REMARK    3  A    between atoms: C_3  and  C_5
REMARK    4  A    between atoms: C_5  and  C_7
REMARK    5  A    between atoms: C_5  and  N_19
REMARK    6  A    between atoms: C_7  and  C_8
REMARK    7  A    between atoms: C_12  and  N_15
REMARK    8  A    between atoms: C_13  and  O_14
REMARK                            x       y       z     vdW  Elec       q    Type
REMARK                         _______ _______ _______ _____ _____    ______ ____
ROOT
ATOM      1  C   UNL     1      -0.936  -4.168   1.390  0.00  0.00    -0.004 A 
ATOM      2  C   UNL     1      -2.068  -4.913   1.657  0.00  0.00    +0.021 A 
ATOM      3  C   UNL     1      -2.011  -6.294   1.631  0.00  0.00    +0.016 A 
ATOM      4  C   UNL     1      -0.819  -6.934   1.338  0.00  0.00    +0.050 A 
ATOM      5  C   UNL     1       0.315  -6.193   1.070  0.00  0.00    +0.169 A 
ATOM      6  C   UNL     1       0.258  -4.806   1.089  0.00  0.00    +0.150 A 
ATOM      7  I   UNL     1      -3.729  -7.421   2.037  0.00  0.00    -0.044 I 
ENDROOT
BRANCH   5   8
ATOM      8  N   UNL     1       1.590  -6.877   0.757  0.00  0.00    +0.060 N 
ATOM      9  O   UNL     1       1.638  -8.085   0.736  0.00  0.00    -0.126 OA
ATOM     10  O   UNL     1       2.583  -6.228   0.522  0.00  0.00    -0.126 OA
ENDBRANCH   5   8
BRANCH   6  11
ATOM     11  O   UNL     1       1.372  -4.075   0.820  0.00  0.00    -0.504 OA
ATOM     12  H   UNL     1       1.906  -3.871   1.600  0.00  0.00    +0.292 HD
ENDBRANCH   6  11
BRANCH   1  13
ATOM     13  C   UNL     1      -1.000  -2.663   1.418  0.00  0.00    +0.033 C 
BRANCH  13  14
ATOM     14  C   UNL     1      -1.244  -2.135   0.003  0.00  0.00    +0.040 C 
BRANCH  14  15
ATOM     15  N   UNL     1      -2.568  -2.572  -0.461  0.00  0.00    +0.387 N 
ATOM     16  H   UNL     1      -2.607  -3.580  -0.466  0.00  0.00    -0.089 HD
ATOM     17  H   UNL     1      -3.277  -2.211   0.159  0.00  0.00    -0.089 HD
ATOM     18  H   UNL     1      -2.729  -2.224  -1.395  0.00  0.00    -0.089 HD
ENDBRANCH  14  15
BRANCH  14  19
ATOM     19  C   UNL     1      -1.185  -0.630   0.010  0.00  0.00    +0.292 C 
ATOM     20  O   UNL     1      -2.208   0.015   0.023  0.00  0.00    -0.253 OA
BRANCH  19  22
ATOM     21  C   UNL     1      -0.017   1.425   0.010  0.00  0.00    +0.280 C 
ATOM     22  O   UNL     1       0.002  -0.004   0.002  0.00  0.00    -0.469 OA
ENDBRANCH  19  22
ENDBRANCH  14  19
ENDBRANCH  13  14
ENDBRANCH   1  13
TORSDOF 7
