REMARK  Name = ZINC08918654
REMARK  6 active torsions:
REMARK  status: ('A' for Active; 'I' for Inactive)
REMARK    1  A    between atoms: C_4  and  C_7
REMARK    2  A    between atoms: C_7  and  C_8
REMARK    3  A    between atoms: C_8  and  C_10
REMARK    4  A    between atoms: C_8  and  N_22
REMARK    5  A    between atoms: N_12  and  C_13
REMARK    6  A    between atoms: C_16  and  N_19
REMARK                            x       y       z     vdW  Elec       q    Type
REMARK                         _______ _______ _______ _____ _____    ______ ____
ROOT
ATOM      1  C   UNL     1      -2.389   6.364   0.004  0.00  0.00    +0.174 C 
ENDROOT
BRANCH   1   2
ATOM      2  N   UNL     1      -1.885   5.008  -0.228  0.00  0.00    -0.229 N 
ATOM      3  C   UNL     1      -1.567   4.511  -1.480  0.00  0.00    +0.227 C 
ATOM      4  O   UNL     1      -1.375   5.115  -2.513  0.00  0.00    -0.275 OA
ATOM      5  C   UNL     1      -1.522   3.092  -1.240  0.00  0.00    +0.091 C 
ATOM      6  C   UNL     1      -1.280   1.776  -1.900  0.00  0.00    +0.002 C 
ATOM      7  C   UNL     1      -2.583   0.996  -1.444  0.00  0.00    +0.004 C 
ATOM      8  C   UNL     1      -2.462   1.063   0.107  0.00  0.00    +0.004 C 
ATOM      9  C   UNL     1      -1.028   1.525   0.419  0.00  0.00    +0.002 C 
ATOM     10  C   UNL     1      -0.291   1.041  -0.898  0.00  0.00    +0.008 C 
ATOM     11  C   UNL     1      -0.789   3.040   0.162  0.00  0.00    +0.091 C 
ATOM     12  C   UNL     1      -1.676   4.092   0.772  0.00  0.00    +0.227 C 
ATOM     13  O   UNL     1      -2.112   4.123   1.903  0.00  0.00    -0.275 OA
ENDBRANCH   1   2
BRANCH   1  14
ATOM     14  C   UNL     1      -1.374   7.367  -0.482  0.00  0.00    +0.239 C 
ATOM     15  O   UNL     1      -0.333   6.986  -0.975  0.00  0.00    -0.273 OA
ATOM     16  N   UNL     1      -1.624   8.687  -0.371  0.00  0.00    -0.284 N 
ATOM     17  H   UNL     1      -2.487   8.991  -0.048  0.00  0.00    +0.155 HD
BRANCH  16  18
ATOM     18  C   UNL     1      -0.639   9.617  -0.720  0.00  0.00    +0.034 A 
ATOM     19  C   UNL     1       0.702   9.322  -0.512  0.00  0.00    +0.025 A 
ATOM     20  C   UNL     1       1.672  10.241  -0.862  0.00  0.00    +0.034 A 
ATOM     21  C   UNL     1       1.308  11.458  -1.409  0.00  0.00    +0.126 A 
ATOM     22  C   UNL     1      -0.027  11.757  -1.612  0.00  0.00    +0.034 A 
ATOM     23  C   UNL     1      -1.001  10.840  -1.269  0.00  0.00    +0.025 A 
BRANCH  21  24
ATOM     24  N   UNL     1       2.350  12.443  -1.777  0.00  0.00    +0.056 N 
ATOM     25  O   UNL     1       2.031  13.515  -2.259  0.00  0.00    -0.126 OA
ATOM     26  O   UNL     1       3.526  12.181  -1.599  0.00  0.00    -0.126 OA
ENDBRANCH  21  24
ENDBRANCH  16  18
ENDBRANCH   1  14
BRANCH   1  27
ATOM     27  C   UNL     1      -3.702   6.557  -0.756  0.00  0.00    +0.067 C 
BRANCH  27  31
ATOM     28  C   UNL     1      -6.679   3.954   0.858  0.00  0.00    +0.000 A 
ATOM     29  C   UNL     1      -6.521   5.227   1.373  0.00  0.00    +0.000 A 
ATOM     30  C   UNL     1      -5.558   6.069   0.851  0.00  0.00    +0.004 A 
ATOM     31  C   UNL     1      -4.752   5.639  -0.187  0.00  0.00    -0.045 A 
ATOM     32  C   UNL     1      -4.913   4.367  -0.705  0.00  0.00    +0.004 A 
ATOM     33  C   UNL     1      -5.874   3.523  -0.180  0.00  0.00    +0.000 A 
ENDBRANCH  27  31
ENDBRANCH   1  27
TORSDOF 6
