REMARK  Name = ZINC09349396
REMARK  10 active torsions:
REMARK  status: ('A' for Active; 'I' for Inactive)
REMARK    1  A    between atoms: C_1  and  C_2
REMARK    2  A    between atoms: C_2  and  C_4
REMARK    3  A    between atoms: C_2  and  N_9
REMARK    4  A    between atoms: C_10  and  C_12
REMARK    5  A    between atoms: C_12  and  S_13
REMARK    6  A    between atoms: S_13  and  C_14
REMARK    7  A    between atoms: C_17  and  C_26
REMARK    8  A    between atoms: N_18  and  C_19
REMARK    9  A    between atoms: C_26  and  C_28
REMARK   10  A    between atoms: C_26  and  N_60
REMARK                            x       y       z     vdW  Elec       q    Type
REMARK                         _______ _______ _______ _____ _____    ______ ____
ROOT
ATOM      1  C   UNL     1       2.529  -7.150   3.552  0.00  0.00    +0.197 A 
ATOM      2  N   UNL     1       1.265  -6.842   3.729  0.00  0.00    -0.122 NA
ATOM      3  N   UNL     1       0.755  -7.594   4.638  0.00  0.00    -0.135 NA
ATOM      4  C   UNL     1       1.653  -8.422   5.092  0.00  0.00    +0.125 A 
ATOM      5  N   UNL     1       2.817  -8.173   4.413  0.00  0.00    -0.275 N 
ENDROOT
BRANCH   5   6
ATOM      6  C   UNL     1       4.047  -8.829   4.571  0.00  0.00    +0.050 A 
ATOM      7  C   UNL     1       4.164 -10.174   4.250  0.00  0.00    +0.029 A 
ATOM      8  C   UNL     1       5.377 -10.816   4.400  0.00  0.00    +0.040 A 
ATOM      9  C   UNL     1       6.474 -10.122   4.882  0.00  0.00    +0.124 A 
ATOM     10  C   UNL     1       6.358  -8.781   5.208  0.00  0.00    +0.040 A 
ATOM     11  C   UNL     1       5.148  -8.134   5.053  0.00  0.00    +0.029 A 
ATOM     12  F   UNL     1       7.659 -10.753   5.034  0.00  0.00    -0.205 F 
ENDBRANCH   5   6
BRANCH   4  13
ATOM     13  C   UNL     1       1.449  -9.463   6.163  0.00  0.00    -0.002 C 
ATOM     14  C   UNL     1       1.353  -8.778   7.528  0.00  0.00    -0.005 C 
BRANCH  13  20
ATOM     15  C   UNL     1      -0.010 -11.246   6.905  0.00  0.00    -0.078 C 
ATOM     16  C   UNL     1      -1.378 -11.896   6.682  0.00  0.00    -0.019 C 
ATOM     17  C   UNL     1      -1.428 -12.499   5.276  0.00  0.00    -0.004 C 
ATOM     18  C   UNL     1      -1.151 -11.399   4.247  0.00  0.00    -0.019 C 
ATOM     19  C   UNL     1       0.210 -10.765   4.540  0.00  0.00    -0.078 C 
ATOM     20  N   UNL     1       0.185 -10.181   5.899  0.00  0.00    +0.386 N 
ATOM     21  H   UNL     1      -0.595  -9.517   5.961  0.00  0.00    -0.081 HD
ENDBRANCH  13  20
ENDBRANCH   4  13
BRANCH   1  22
ATOM     22  S   UNL     1       3.642  -6.395   2.414  0.00  0.00    -0.076 S 
BRANCH  22  23
ATOM     23  C   UNL     1       2.540  -5.174   1.659  0.00  0.00    +0.173 C 
BRANCH  23  25
ATOM     24  N   UNL     1       2.675  -3.413  -0.073  0.00  0.00    -0.308 N 
ATOM     25  C   UNL     1       3.298  -4.385   0.623  0.00  0.00    +0.224 C 
ATOM     26  O   UNL     1       4.468  -4.625   0.414  0.00  0.00    -0.275 OA
ATOM     27  H   UNL     1       1.739  -3.221   0.093  0.00  0.00    +0.149 HD
BRANCH  24  29
ATOM     28  C   UNL     1       3.397  -3.405  -2.410  0.00  0.00    +0.033 C 
ATOM     29  C   UNL     1       3.412  -2.647  -1.081  0.00  0.00    +0.107 C 
BRANCH  29  30
ATOM     30  C   UNL     1       2.760  -1.300  -1.264  0.00  0.00    +0.010 A 
ATOM     31  C   UNL     1       3.341  -0.088  -1.436  0.00  0.00    +0.013 A 
ATOM     32  C   UNL     1       2.535   1.026  -1.585  0.00  0.00    +0.008 A 
ATOM     33  C   UNL     1       1.189   0.872  -1.554  0.00  0.00    +0.045 A 
ATOM     34  S   UNL     1       1.024  -0.889  -1.308  0.00  0.00    -0.100 S 
ENDBRANCH  29  30
ENDBRANCH  24  29
ENDBRANCH  23  25
ENDBRANCH  22  23
ENDBRANCH   1  22
TORSDOF 8
