REMARK  Name = ZINC66589198
REMARK  7 active torsions:
REMARK  status: ('A' for Active; 'I' for Inactive)
REMARK    1  A    between atoms: C_1  and  C_2
REMARK    2  A    between atoms: C_4  and  N_22
REMARK    3  A    between atoms: C_7  and  S_8
REMARK    4  A    between atoms: S_8  and  N_11
REMARK    5  A    between atoms: N_11  and  N_12
REMARK    6  A    between atoms: C_13  and  C_15
REMARK    7  A    between atoms: C_15  and  C_16
REMARK                            x       y       z     vdW  Elec       q    Type
REMARK                         _______ _______ _______ _____ _____    ______ ____
ROOT
ATOM      1  S   UNL     1      -0.054  -0.063   2.732  0.00  0.00    +0.074 S 
ATOM      2  O   UNL     1      -1.266   0.679   2.773  0.00  0.00    -0.152 OA
ATOM      3  O   UNL     1       0.215  -1.133   3.628  0.00  0.00    -0.152 OA
ENDROOT
BRANCH   1  10
ATOM      4  C   UNL     1       2.262  -1.749   1.763  0.00  0.00    +0.046 C 
ATOM      5  C   UNL     1       1.175  -1.486   0.753  0.00  0.00    -0.022 A 
ATOM      6  C   UNL     1       1.274  -2.010  -0.522  0.00  0.00    +0.038 A 
ATOM      7  C   UNL     1       0.277  -1.768  -1.448  0.00  0.00    +0.127 A 
ATOM      8  C   UNL     1      -0.820  -1.002  -1.099  0.00  0.00    +0.034 A 
ATOM      9  C   UNL     1      -0.920  -0.479   0.176  0.00  0.00    +0.031 A 
ATOM     10  C   UNL     1       0.076  -0.725   1.104  0.00  0.00    +0.110 A 
BRANCH   7  11
ATOM     11  N   UNL     1       0.384  -2.328  -2.814  0.00  0.00    +0.056 N 
ATOM     12  O   UNL     1       1.343  -2.997  -3.120  0.00  0.00    -0.126 OA
ATOM     13  O   UNL     1      -0.488  -2.116  -3.624  0.00  0.00    -0.126 OA
ENDBRANCH   7  11
ENDBRANCH   1  10
BRANCH   1  14
ATOM     14  N   UNL     1       1.176   1.029   2.916  0.00  0.00    -0.108 NA
ATOM     15  H   UNL     1       1.835   0.904   3.617  0.00  0.00    +0.172 HD
BRANCH  14  16
ATOM     16  N   UNL     1       1.266   2.135   2.060  0.00  0.00    -0.232 N 
ATOM     17  C   UNL     1       1.315   3.381   2.571  0.00  0.00    +0.228 C 
ATOM     18  O   UNL     1       1.281   3.545   3.772  0.00  0.00    -0.274 OA
ATOM     19  H   UNL     1       1.293   2.003   1.099  0.00  0.00    +0.171 HD
BRANCH  17  20
ATOM     20  C   UNL     1       1.411   4.570   1.650  0.00  0.00    +0.100 C 
BRANCH  20  21
ATOM     21  C   UNL     1       1.450   5.855   2.479  0.00  0.00    -0.002 C 
ATOM     22  C   UNL     1       0.123   6.024   3.221  0.00  0.00    +0.004 C 
ATOM     23  C   UNL     1       0.162   7.310   4.049  0.00  0.00    +0.000 C 
ATOM     24  C   UNL     1       0.385   8.507   3.123  0.00  0.00    +0.000 C 
ATOM     25  C   UNL     1       1.712   8.338   2.381  0.00  0.00    +0.000 C 
ATOM     26  C   UNL     1       1.673   7.052   1.553  0.00  0.00    +0.004 C 
ENDBRANCH  20  21
ENDBRANCH  17  20
ENDBRANCH  14  16
ENDBRANCH   1  14
TORSDOF 6
