REMARK  Name = ZINC49504545
REMARK  12 active torsions:
REMARK  status: ('A' for Active; 'I' for Inactive)
REMARK    1  A    between atoms: C_1  and  C_2
REMARK    2  A    between atoms: C_2  and  C_3
REMARK    3  A    between atoms: C_2  and  C_4
REMARK    4  A    between atoms: C_13  and  N_16
REMARK    5  A    between atoms: C_17  and  C_19
REMARK    6  A    between atoms: N_21  and  C_22
REMARK    7  A    between atoms: C_22  and  C_23
REMARK    8  A    between atoms: C_23  and  C_25
REMARK    9  A    between atoms: C_23  and  N_34
REMARK   10  A    between atoms: C_28  and  N_31
REMARK   11  A    between atoms: N_31  and  C_32
REMARK   12  A    between atoms: N_31  and  C_33
REMARK                            x       y       z     vdW  Elec       q    Type
REMARK                         _______ _______ _______ _____ _____    ______ ____
ROOT
ATOM      1  C   UNL     1      -6.719  -4.326   2.961  0.00  0.00    +0.299 C 
ATOM      2  O   UNL     1      -5.817  -4.606   3.723  0.00  0.00    -0.265 OA
ATOM      3  N   UNL     1      -7.980  -4.712   3.240  0.00  0.00    -0.309 N 
ATOM      4  H   UNL     1      -8.702  -4.488   2.631  0.00  0.00    +0.149 HD
ENDROOT
BRANCH   1   6
ATOM      5  N   UNL     1      -5.172  -3.168   1.437  0.00  0.00    -0.278 N 
ATOM      6  C   UNL     1      -6.433  -3.554   1.715  0.00  0.00    +0.303 C 
ATOM      7  O   UNL     1      -7.335  -3.273   0.954  0.00  0.00    -0.265 OA
ATOM      8  H   UNL     1      -4.439  -3.461   2.001  0.00  0.00    +0.155 HD
BRANCH   5  18
ATOM      9  C   UNL     1      -1.227  -2.437  -1.575  0.00  0.00    +0.222 C 
ATOM     10  O   UNL     1      -1.372  -2.993  -0.507  0.00  0.00    -0.275 OA
ATOM     11  N   UNL     1      -2.249  -1.749  -2.122  0.00  0.00    -0.271 N 
ATOM     12  C   UNL     1      -2.103  -1.115  -3.439  0.00  0.00    +0.114 C 
ATOM     13  C   UNL     1      -2.696   0.297  -3.348  0.00  0.00    +0.024 C 
ATOM     14  C   UNL     1      -4.190   0.186  -3.045  0.00  0.00    +0.038 C 
ATOM     15  C   UNL     1      -4.423  -0.708  -1.855  0.00  0.00    -0.026 A 
ATOM     16  C   UNL     1      -3.471  -1.631  -1.445  0.00  0.00    +0.041 A 
ATOM     17  C   UNL     1      -3.718  -2.449  -0.350  0.00  0.00    +0.047 A 
ATOM     18  C   UNL     1      -4.920  -2.346   0.335  0.00  0.00    +0.036 A 
ATOM     19  C   UNL     1      -5.873  -1.423  -0.079  0.00  0.00    +0.024 A 
ATOM     20  C   UNL     1      -5.619  -0.603  -1.164  0.00  0.00    +0.007 A 
BRANCH   9  22
ATOM     21  C   UNL     1       0.855  -1.199  -2.108  0.00  0.00    +0.017 C 
ATOM     22  C   UNL     1       0.097  -2.515  -2.292  0.00  0.00    +0.069 C 
ATOM     23  C   UNL     1       0.923  -3.664  -1.711  0.00  0.00    +0.017 C 
ENDBRANCH   9  22
ENDBRANCH   5  18
ENDBRANCH   1   6
BRANCH   3  24
ATOM     24  C   UNL     1      -8.261  -5.469   4.462  0.00  0.00    +0.094 C 
BRANCH  24  25
ATOM     25  C   UNL     1      -9.732  -5.889   4.475  0.00  0.00    -0.020 C 
BRANCH  25  26
ATOM     26  C   UNL     1      -9.995  -6.833   3.330  0.00  0.00    -0.059 A 
ATOM     27  C   UNL     1      -9.654  -8.168   3.445  0.00  0.00    +0.004 A 
ATOM     28  C   UNL     1      -9.893  -9.036   2.398  0.00  0.00    +0.023 A 
ATOM     29  C   UNL     1     -10.478  -8.567   1.228  0.00  0.00    +0.029 A 
ATOM     30  C   UNL     1     -10.820  -7.225   1.117  0.00  0.00    +0.023 A 
ATOM     31  C   UNL     1     -10.583  -6.364   2.170  0.00  0.00    +0.004 A 
BRANCH  29  32
ATOM     32  N   UNL     1     -10.721  -9.442   0.167  0.00  0.00    -0.336 N 
ATOM     33  C   UNL     1     -10.360 -10.857   0.287  0.00  0.00    +0.129 C 
ATOM     34  C   UNL     1     -11.338  -8.945  -1.065  0.00  0.00    +0.129 C 
ENDBRANCH  29  32
ENDBRANCH  25  26
BRANCH  25  35
ATOM     35  N   UNL     1     -10.039  -6.561   5.745  0.00  0.00    +0.385 N 
ATOM     36  C   UNL     1      -9.948  -5.596   6.870  0.00  0.00    -0.078 C 
ATOM     37  C   UNL     1     -10.809  -6.258   7.975  0.00  0.00    -0.020 C 
ATOM     38  C   UNL     1     -11.973  -6.888   7.176  0.00  0.00    -0.020 C 
ATOM     39  C   UNL     1     -11.436  -7.046   5.741  0.00  0.00    -0.078 C 
ATOM     40  H   UNL     1      -9.404  -7.331   5.893  0.00  0.00    -0.081 HD
ENDBRANCH  25  35
ENDBRANCH  24  25
ENDBRANCH   3  24
TORSDOF 8
