REMARK  Name = ZINC19874308
REMARK  4 active torsions:
REMARK  status: ('A' for Active; 'I' for Inactive)
REMARK    1  A    between atoms: C_1  and  C_2
REMARK    2  A    between atoms: C_3  and  C_24
REMARK    3  A    between atoms: C_6  and  C_23
REMARK    4  A    between atoms: C_7  and  C_8
REMARK                            x       y       z     vdW  Elec       q    Type
REMARK                         _______ _______ _______ _____ _____    ______ ____
ROOT
ATOM      1  C   UNL     1       0.242  -0.310   2.524  0.00  0.00    +0.211 C 
ATOM      2  N   UNL     1      -0.466  -1.221   3.441  0.00  0.00    -0.293 N 
ATOM      3  C   UNL     1       0.146  -2.370   3.868  0.00  0.00    +0.183 C 
ATOM      4  N   UNL     1       1.460  -2.441   3.997  0.00  0.00    -0.183 NA
ATOM      5  C   UNL     1       2.203  -1.369   3.638  0.00  0.00    +0.236 A 
ATOM      6  N   UNL     1       1.652  -0.309   2.932  0.00  0.00    -0.285 N 
ATOM      7  C   UNL     1       2.637   0.612   2.736  0.00  0.00    +0.072 A 
ATOM      8  C   UNL     1       2.660   1.856   2.119  0.00  0.00    +0.028 A 
ATOM      9  C   UNL     1       3.869   2.533   2.105  0.00  0.00    +0.002 A 
ATOM     10  C   UNL     1       5.013   2.005   2.678  0.00  0.00    +0.002 A 
ATOM     11  C   UNL     1       5.017   0.769   3.299  0.00  0.00    +0.030 A 
ATOM     12  C   UNL     1       3.807   0.066   3.325  0.00  0.00    +0.091 A 
ATOM     13  N   UNL     1       3.478  -1.139   3.845  0.00  0.00    -0.210 NA
ATOM     14  N   UNL     1      -0.618  -3.465   4.168  0.00  0.00    -0.331 N 
ATOM     15  H   UNL     1      -1.582  -3.423   4.077  0.00  0.00    +0.145 HD
ATOM     16  H   UNL     1      -0.194  -4.283   4.471  0.00  0.00    +0.145 HD
ATOM     17  H   UNL     1      -1.363  -1.008   3.742  0.00  0.00    +0.151 HD
ENDROOT
BRANCH   1  24
ATOM     18  C   UNL     1       0.715  -3.294   1.525  0.00  0.00    +0.047 C 
ATOM     19  C   UNL     1       0.323  -2.117   0.669  0.00  0.00    -0.008 A 
ATOM     20  C   UNL     1       0.097  -2.132  -0.691  0.00  0.00    +0.121 A 
ATOM     21  N   UNL     1      -0.236  -0.853  -1.070  0.00  0.00    -0.350 N 
ATOM     22  H   UNL     1      -0.449  -0.568  -1.973  0.00  0.00    +0.166 HD
ATOM     23  C   UNL     1      -0.218  -0.056   0.029  0.00  0.00    +0.021 A 
ATOM     24  C   UNL     1       0.115  -0.804   1.106  0.00  0.00    +0.018 A 
ATOM     25  C   UNL     1      -0.526   1.420   0.046  0.00  0.00    +0.064 C 
BRANCH  20  26
ATOM     26  C   UNL     1       0.193  -3.273  -1.551  0.00  0.00    +0.117 C 
ATOM     27  N   UNL     1       0.268  -4.177  -2.234  0.00  0.00    -0.189 NA
ENDBRANCH  20  26
ENDBRANCH   1  24
TORSDOF 2
