REMARK  Name = ZINC56611192
REMARK  8 active torsions:
REMARK  status: ('A' for Active; 'I' for Inactive)
REMARK    1  A    between atoms: C_1  and  C_2
REMARK    2  A    between atoms: C_2  and  N_3
REMARK    3  A    between atoms: N_3  and  C_4
REMARK    4  A    between atoms: C_4  and  C_6
REMARK    5  A    between atoms: C_4  and  C_7
REMARK    6  A    between atoms: N_18  and  C_19
REMARK    7  A    between atoms: C_24  and  C_25
REMARK    8  A    between atoms: C_25  and  C_26
REMARK                            x       y       z     vdW  Elec       q    Type
REMARK                         _______ _______ _______ _____ _____    ______ ____
ROOT
ATOM      1  N   UNL     1       0.577  -0.501  -1.381  0.00  0.00    -0.276 N 
ATOM      2  C   UNL     1      -0.189  -0.430  -2.488  0.00  0.00    +0.307 C 
ATOM      3  O   UNL     1       0.289  -0.688  -3.576  0.00  0.00    -0.252 OA
ATOM      4  N   UNL     1      -1.485  -0.073  -2.388  0.00  0.00    -0.269 N 
ATOM      5  H   UNL     1      -1.850   0.194  -1.530  0.00  0.00    +0.156 HD
ENDROOT
BRANCH   4   6
ATOM      6  C   UNL     1      -2.304  -0.088  -3.523  0.00  0.00    +0.038 A 
ATOM      7  C   UNL     1      -1.747   0.076  -4.785  0.00  0.00    +0.023 A 
ATOM      8  C   UNL     1      -2.558   0.060  -5.903  0.00  0.00    +0.002 A 
ATOM      9  C   UNL     1      -3.923  -0.118  -5.767  0.00  0.00    +0.000 A 
ATOM     10  C   UNL     1      -4.480  -0.281  -4.512  0.00  0.00    +0.006 A 
ATOM     11  C   UNL     1      -3.673  -0.272  -3.390  0.00  0.00    -0.017 A 
BRANCH  11  12
ATOM     12  C   UNL     1      -4.280  -0.456  -2.023  0.00  0.00    +0.132 C 
BRANCH  12  13
ATOM     13  C   UNL     1      -4.548   0.893  -1.407  0.00  0.00    +0.215 C 
ATOM     14  O   UNL     1      -4.274   1.904  -2.018  0.00  0.00    -0.276 OA
ATOM     15  N   UNL     1      -5.094   0.975  -0.177  0.00  0.00    -0.329 N 
ATOM     16  H   UNL     1      -5.314   0.167   0.311  0.00  0.00    +0.145 HD
ATOM     17  H   UNL     1      -5.266   1.843   0.220  0.00  0.00    +0.145 HD
ENDBRANCH  12  13
ENDBRANCH  11  12
ENDBRANCH   4   6
BRANCH   1  19
ATOM     18  C   UNL     1       0.054   1.321   0.164  0.00  0.00    +0.024 C 
ATOM     19  C   UNL     1       0.002  -0.190  -0.070  0.00  0.00    +0.107 C 
ENDBRANCH   1  19
BRANCH   1  20
ATOM     20  C   UNL     1       1.986  -0.889  -1.489  0.00  0.00    +0.140 C 
ATOM     21  C   UNL     1       2.695   0.035  -2.482  0.00  0.00    +0.036 C 
BRANCH  20  22
ATOM     22  C   UNL     1       2.079  -2.312  -1.974  0.00  0.00    +0.126 A 
ATOM     23  C   UNL     1       3.015  -3.193  -1.594  0.00  0.00    +0.055 A 
ATOM     24  C   UNL     1       2.719  -4.439  -2.310  0.00  0.00    +0.020 A 
ATOM     25  C   UNL     1       3.306  -5.703  -2.350  0.00  0.00    +0.011 A 
ATOM     26  C   UNL     1       2.768  -6.676  -3.147  0.00  0.00    +0.001 A 
ATOM     27  C   UNL     1       1.643  -6.411  -3.916  0.00  0.00    +0.004 A 
ATOM     28  C   UNL     1       1.049  -5.167  -3.889  0.00  0.00    +0.047 A 
ATOM     29  C   UNL     1       1.580  -4.166  -3.085  0.00  0.00    +0.135 A 
ATOM     30  O   UNL     1       1.232  -2.885  -2.847  0.00  0.00    -0.458 OA
ENDBRANCH  20  22
ENDBRANCH   1  20
TORSDOF 6
