REMARK  Name = ZINC62048768
REMARK  10 active torsions:
REMARK  status: ('A' for Active; 'I' for Inactive)
REMARK    1  A    between atoms: C_1  and  N_2
REMARK    2  A    between atoms: N_2  and  C_3
REMARK    3  A    between atoms: N_2  and  C_4
REMARK    4  A    between atoms: C_4  and  C_6
REMARK    5  A    between atoms: C_4  and  C_23
REMARK    6  A    between atoms: C_6  and  N_7
REMARK    7  A    between atoms: C_15  and  S_17
REMARK    8  A    between atoms: S_17  and  C_18
REMARK    9  A    between atoms: C_26  and  O_29
REMARK   10  A    between atoms: O_29  and  C_30
REMARK                            x       y       z     vdW  Elec       q    Type
REMARK                         _______ _______ _______ _____ _____    ______ ____
ROOT
ATOM      1  N   UNL     1       0.343  -2.189   0.390  0.00  0.00    -0.330 N 
ATOM      2  C   UNL     1       0.841  -3.479   0.348  0.00  0.00    +0.132 A 
ATOM      3  C   UNL     1       1.739  -3.937   1.352  0.00  0.00    +0.051 A 
ATOM      4  C   UNL     1       2.265  -3.210   2.510  0.00  0.00    -0.025 A 
ATOM      5  C   UNL     1       3.110  -3.878   3.320  0.00  0.00    -0.004 A 
ATOM      6  S   UNL     1       3.257  -5.493   2.603  0.00  0.00    -0.073 S 
ATOM      7  C   UNL     1       2.181  -5.267   1.211  0.00  0.00    +0.115 A 
ATOM      8  N   UNL     1       1.781  -6.026   0.209  0.00  0.00    -0.215 NA
ATOM      9  C   UNL     1       0.943  -5.545  -0.700  0.00  0.00    +0.191 A 
ATOM     10  N   UNL     1       0.483  -4.302  -0.623  0.00  0.00    -0.206 NA
ATOM     11  C   UNL     1       3.780  -3.364   4.557  0.00  0.00    +0.043 C 
ATOM     12  C   UNL     1       3.657  -1.833   4.574  0.00  0.00    +0.005 C 
ATOM     13  C   UNL     1       2.205  -1.454   4.268  0.00  0.00    +0.005 C 
ATOM     14  C   UNL     1       1.885  -1.761   2.805  0.00  0.00    +0.037 C 
ATOM     15  H   UNL     1       0.664  -1.567   1.062  0.00  0.00    +0.147 HD
ENDROOT
BRANCH   9  16
ATOM     16  S   UNL     1       0.424  -6.579  -2.029  0.00  0.00    -0.089 S 
ATOM     17  C   UNL     1       1.280  -8.149  -1.724  0.00  0.00    +0.093 C 
ENDBRANCH   9  16
BRANCH   1  18
ATOM     18  C   UNL     1      -0.667  -1.761  -0.581  0.00  0.00    +0.092 C 
BRANCH  18  19
ATOM     19  C   UNL     1      -1.137  -0.346  -0.238  0.00  0.00    -0.021 C 
BRANCH  19  20
ATOM     20  C   UNL     1      -1.844  -0.360   1.092  0.00  0.00    -0.059 A 
ATOM     21  C   UNL     1      -3.158  -0.785   1.171  0.00  0.00    +0.005 A 
ATOM     22  C   UNL     1      -3.808  -0.798   2.390  0.00  0.00    +0.046 A 
ATOM     23  C   UNL     1      -3.143  -0.386   3.535  0.00  0.00    +0.120 A 
ATOM     24  C   UNL     1      -1.825   0.039   3.453  0.00  0.00    +0.046 A 
ATOM     25  C   UNL     1      -1.177   0.046   2.233  0.00  0.00    +0.005 A 
BRANCH  23  26
ATOM     26  O   UNL     1      -3.781  -0.398   4.735  0.00  0.00    -0.495 OA
ATOM     27  C   UNL     1      -3.034   0.040   5.871  0.00  0.00    +0.277 C 
ENDBRANCH  23  26
ENDBRANCH  19  20
BRANCH  19  29
ATOM     28  C   UNL     1      -2.551   1.466  -0.923  0.00  0.00    -0.096 C 
ATOM     29  N   UNL     1      -2.059   0.129  -1.278  0.00  0.00    +0.382 N 
ATOM     30  C   UNL     1      -1.355   0.192  -2.566  0.00  0.00    -0.096 C 
ATOM     31  H   UNL     1      -2.839  -0.507  -1.352  0.00  0.00    -0.082 HD
ENDBRANCH  19  29
ENDBRANCH  18  19
ENDBRANCH   1  18
TORSDOF 6
