REMARK  Name = ZINC39675207
REMARK  10 active torsions:
REMARK  status: ('A' for Active; 'I' for Inactive)
REMARK    1  A    between atoms: C_1  and  C_2
REMARK    2  A    between atoms: C_2  and  C_4
REMARK    3  A    between atoms: C_2  and  N_14
REMARK    4  A    between atoms: C_4  and  C_5
REMARK    5  A    between atoms: C_5  and  C_6
REMARK    6  A    between atoms: C_9  and  O_12
REMARK    7  A    between atoms: O_12  and  C_13
REMARK    8  A    between atoms: C_15  and  C_17
REMARK    9  A    between atoms: C_28  and  C_30
REMARK   10  A    between atoms: C_35  and  C_36
REMARK                            x       y       z     vdW  Elec       q    Type
REMARK                         _______ _______ _______ _____ _____    ______ ____
ROOT
ATOM      1  C   UNL     1       0.990  -2.350  -4.248  0.00  0.00    +0.100 C 
ATOM      2  C   UNL     1       1.846  -1.064  -4.285  0.00  0.00    +0.121 C 
ATOM      3  N   UNL     1       1.711  -0.564  -5.673  0.00  0.00    -0.296 N 
ATOM      4  C   UNL     1       0.290  -0.807  -6.017  0.00  0.00    +0.115 C 
ATOM      5  C   UNL     1      -0.031  -2.177  -5.386  0.00  0.00    -0.004 C 
ATOM      6  C   UNL     1      -1.451  -2.180  -4.827  0.00  0.00    -0.010 C 
ATOM      7  C   UNL     1      -2.449  -2.066  -5.982  0.00  0.00    -0.082 C 
ATOM      8  N   UNL     1      -2.263  -3.191  -6.906  0.00  0.00    +0.379 N 
ATOM      9  C   UNL     1      -0.926  -3.127  -7.510  0.00  0.00    -0.082 C 
ATOM     10  C   UNL     1       0.137  -3.286  -6.420  0.00  0.00    -0.010 C 
ATOM     11  C   UNL     1       2.666  -0.012  -6.449  0.00  0.00    +0.247 C 
ATOM     12  O   UNL     1       2.378   0.434  -7.542  0.00  0.00    -0.270 OA
ATOM     13  H   UNL     1      -2.361  -4.059  -6.401  0.00  0.00    -0.086 HD
ATOM     14  H   UNL     1      -2.961  -3.147  -7.633  0.00  0.00    -0.086 HD
ENDROOT
BRANCH  11  15
ATOM     15  C   UNL     1       4.063   0.050  -5.970  0.00  0.00    +0.049 A 
ATOM     16  C   UNL     1       4.345   0.535  -4.691  0.00  0.00    +0.013 A 
ATOM     17  C   UNL     1       5.650   0.590  -4.250  0.00  0.00    +0.001 A 
ATOM     18  C   UNL     1       6.680   0.166  -5.072  0.00  0.00    +0.001 A 
ATOM     19  C   UNL     1       6.408  -0.315  -6.340  0.00  0.00    +0.013 A 
ATOM     20  C   UNL     1       5.106  -0.381  -6.791  0.00  0.00    +0.067 A 
BRANCH  20  21
ATOM     21  C   UNL     1       4.810  -0.911  -8.171  0.00  0.00    +0.418 C 
ATOM     22  F   UNL     1       6.007  -1.277  -8.796  0.00  0.00    -0.166 F 
ATOM     23  F   UNL     1       3.975  -2.029  -8.072  0.00  0.00    -0.166 F 
ATOM     24  F   UNL     1       4.175   0.081  -8.925  0.00  0.00    -0.166 F 
ENDBRANCH  20  21
ENDBRANCH  11  15
BRANCH   1  26
ATOM     25  N   UNL     1      -0.001  -3.690  -2.421  0.00  0.00    -0.312 N 
ATOM     26  C   UNL     1       0.283  -2.472  -2.923  0.00  0.00    +0.218 C 
ATOM     27  O   UNL     1      -0.031  -1.474  -2.309  0.00  0.00    -0.275 OA
ATOM     28  H   UNL     1       0.250  -4.488  -2.912  0.00  0.00    +0.149 HD
BRANCH  25  30
ATOM     29  C   UNL     1       0.338  -3.742   0.001  0.00  0.00    +0.028 C 
ATOM     30  C   UNL     1      -0.688  -3.809  -1.132  0.00  0.00    +0.070 C 
BRANCH  30  31
ATOM     31  C   UNL     1      -1.429  -5.146  -1.071  0.00  0.00    +0.026 C 
BRANCH  31  32
ATOM     32  C   UNL     1      -2.538  -5.163  -2.125  0.00  0.00    +0.037 C 
BRANCH  32  33
ATOM     33  C   UNL     1      -3.268  -6.480  -2.064  0.00  0.00    -0.047 A 
ATOM     34  C   UNL     1      -2.834  -7.546  -2.831  0.00  0.00    +0.007 A 
ATOM     35  C   UNL     1      -3.501  -8.754  -2.778  0.00  0.00    +0.046 A 
ATOM     36  C   UNL     1      -4.608  -8.898  -1.954  0.00  0.00    +0.120 A 
ATOM     37  C   UNL     1      -5.042  -7.827  -1.186  0.00  0.00    +0.046 A 
ATOM     38  C   UNL     1      -4.368  -6.623  -1.238  0.00  0.00    +0.007 A 
BRANCH  36  39
ATOM     39  O   UNL     1      -5.267 -10.085  -1.900  0.00  0.00    -0.495 OA
ATOM     40  C   UNL     1      -6.398 -10.161  -1.030  0.00  0.00    +0.277 C 
ENDBRANCH  36  39
ENDBRANCH  32  33
ENDBRANCH  31  32
ENDBRANCH  30  31
ENDBRANCH  25  30
ENDBRANCH   1  26
TORSDOF 8
