REMARK  Name = ZINC61609515
REMARK  2 active torsions:
REMARK  status: ('A' for Active; 'I' for Inactive)
REMARK    1  A    between atoms: C_4  and  C_7
REMARK    2  A    between atoms: N_13  and  C_16
REMARK                            x       y       z     vdW  Elec       q    Type
REMARK                         _______ _______ _______ _____ _____    ______ ____
ROOT
ATOM      1  C   UNL     1       3.711  -0.707  -0.038  0.00  0.00    +0.123 C 
ATOM      2  C   UNL     1       3.791  -1.582  -1.291  0.00  0.00    +0.123 C 
ATOM      3  N   UNL     1       2.904  -2.737  -1.138  0.00  0.00    -0.298 N 
ATOM      4  C   UNL     1       2.739  -3.327   0.057  0.00  0.00    +0.309 C 
ATOM      5  O   UNL     1       2.078  -4.345   0.129  0.00  0.00    -0.252 OA
ATOM      6  N   UNL     1       3.285  -2.820   1.174  0.00  0.00    -0.222 N 
ATOM      7  C   UNL     1       3.816  -1.582   1.187  0.00  0.00    +0.232 C 
ATOM      8  O   UNL     1       4.377  -1.171   2.179  0.00  0.00    -0.274 OA
ATOM      9  H   UNL     1       2.429  -3.080  -1.911  0.00  0.00    +0.150 HD
ENDROOT
BRANCH   1  13
ATOM     10  C   UNL     1      -0.017   1.378   0.010  0.00  0.00    +0.000 A 
ATOM     11  C   UNL     1       1.171   2.086   0.002  0.00  0.00    +0.000 A 
ATOM     12  C   UNL     1       2.377   1.411  -0.013  0.00  0.00    +0.004 A 
ATOM     13  C   UNL     1       2.396   0.029  -0.020  0.00  0.00    -0.034 A 
ATOM     14  C   UNL     1       1.208  -0.679  -0.012  0.00  0.00    +0.004 A 
ATOM     15  C   UNL     1       0.002  -0.004   0.002  0.00  0.00    +0.000 A 
ENDBRANCH   1  13
BRANCH   6  16
ATOM     16  C   UNL     1       3.305  -3.624   2.398  0.00  0.00    +0.086 C 
ATOM     17  C   UNL     1       4.089  -4.914   2.147  0.00  0.00    +0.023 C 
ATOM     18  C   UNL     1       4.110  -5.755   3.426  0.00  0.00    +0.002 C 
ATOM     19  C   UNL     1       2.676  -6.101   3.832  0.00  0.00    +0.000 C 
ATOM     20  C   UNL     1       1.891  -4.811   4.082  0.00  0.00    +0.002 C 
ATOM     21  C   UNL     1       1.871  -3.970   2.804  0.00  0.00    +0.023 C 
ENDBRANCH   6  16
TORSDOF 2
