REMARK  Name = ZINC32558248
REMARK  6 active torsions:
REMARK  status: ('A' for Active; 'I' for Inactive)
REMARK    1  A    between atoms: C_1  and  C_2
REMARK    2  A    between atoms: C_2  and  C_3
REMARK    3  A    between atoms: C_3  and  C_4
REMARK    4  A    between atoms: C_11  and  N_23
REMARK    5  A    between atoms: C_12  and  C_21
REMARK    6  A    between atoms: C_13  and  C_15
REMARK                            x       y       z     vdW  Elec       q    Type
REMARK                         _______ _______ _______ _____ _____    ______ ____
ROOT
ATOM      1  C   UNL     1       0.739  -2.004  -1.265  0.00  0.00    +0.044 A 
ATOM      2  C   UNL     1      -0.234  -2.807  -1.723  0.00  0.00    +0.050 A 
ATOM      3  C   UNL     1       0.182  -4.145  -1.546  0.00  0.00    +0.245 A 
ATOM      4  N   UNL     1       1.364  -4.131  -1.002  0.00  0.00    -0.135 NA
ATOM      5  N   UNL     1       1.744  -2.792  -0.818  0.00  0.00    -0.278 N 
ATOM      6  H   UNL     1       2.580  -2.485  -0.434  0.00  0.00    +0.189 HD
ATOM      7  O   UNL     1      -0.598  -5.197  -1.914  0.00  0.00    -0.421 OA
ATOM      8  C   UNL     1      -1.889  -4.941  -2.203  0.00  0.00    +0.201 C 
ATOM      9  C   UNL     1      -2.398  -3.708  -2.405  0.00  0.00    +0.099 C 
ATOM     10  C   UNL     1      -1.566  -2.453  -2.333  0.00  0.00    +0.108 C 
ENDROOT
BRANCH  10  11
ATOM     11  C   UNL     1      -1.359  -1.901  -3.720  0.00  0.00    +0.004 A 
ATOM     12  C   UNL     1      -1.692  -0.682  -4.212  0.00  0.00    +0.013 A 
ATOM     13  C   UNL     1      -1.403  -0.390  -5.532  0.00  0.00    +0.023 A 
ATOM     14  C   UNL     1      -0.795  -1.332  -6.295  0.00  0.00    +0.055 A 
ATOM     15  S   UNL     1      -0.606  -2.679  -5.139  0.00  0.00    -0.085 S 
ATOM     16 BR   UNL     1      -0.275  -1.240  -8.111  0.00  0.00    -0.043 Br
ENDBRANCH  10  11
BRANCH   8  17
ATOM     17  N   UNL     1      -2.746  -6.009  -2.299  0.00  0.00    -0.328 N 
ATOM     18  H   UNL     1      -2.415  -6.910  -2.160  0.00  0.00    +0.145 HD
ATOM     19  H   UNL     1      -3.683  -5.863  -2.505  0.00  0.00    +0.145 HD
ENDBRANCH   8  17
BRANCH   9  20
ATOM     20  C   UNL     1      -3.794  -3.585  -2.700  0.00  0.00    +0.101 C 
ATOM     21  N   UNL     1      -4.901  -3.488  -2.935  0.00  0.00    -0.191 NA
ENDBRANCH   9  20
BRANCH   1  22
ATOM     22  C   UNL     1       0.718  -0.497  -1.257  0.00  0.00    +0.055 C 
BRANCH  22  24
ATOM     23  C   UNL     1      -0.019   1.526   0.010  0.00  0.00    +0.004 C 
ATOM     24  C   UNL     1       0.002  -0.004   0.002  0.00  0.00    +0.003 C 
ENDBRANCH  22  24
ENDBRANCH   1  22
TORSDOF 5
