REMARK  Name = ZINC63848426
REMARK  8 active torsions:
REMARK  status: ('A' for Active; 'I' for Inactive)
REMARK    1  A    between atoms: C_1  and  C_2
REMARK    2  A    between atoms: C_3  and  C_27
REMARK    3  A    between atoms: C_4  and  C_7
REMARK    4  A    between atoms: C_22  and  C_24
REMARK    5  A    between atoms: C_24  and  C_25
REMARK    6  A    between atoms: C_24  and  C_26
REMARK    7  A    between atoms: C_27  and  O_28
REMARK    8  A    between atoms: O_28  and  C_29
REMARK                            x       y       z     vdW  Elec       q    Type
REMARK                         _______ _______ _______ _____ _____    ______ ____
ROOT
ATOM      1  C   UNL     1      -2.498  -2.916   0.587  0.00  0.00    +0.269 C 
ATOM      2  O   UNL     1      -3.600  -3.206   0.167  0.00  0.00    -0.268 OA
ATOM      3  N   UNL     1      -1.608  -3.888   0.873  0.00  0.00    -0.290 N 
ATOM      4  C   UNL     1      -0.360  -3.549   1.563  0.00  0.00    +0.113 C 
ATOM      5  C   UNL     1       0.838  -3.993   0.705  0.00  0.00    +0.052 C 
ATOM      6  C   UNL     1       0.531  -5.390   0.225  0.00  0.00    -0.035 C 
ATOM      7  C   UNL     1       1.236  -6.513   0.284  0.00  0.00    -0.001 A 
ATOM      8  C   UNL     1       2.610  -6.785   0.737  0.00  0.00    +0.010 A 
ATOM      9  C   UNL     1       3.014  -8.082   0.679  0.00  0.00    +0.001 A 
ATOM     10  C   UNL     1       2.200  -9.122   0.220  0.00  0.00    +0.002 A 
ATOM     11  C   UNL     1       0.928  -8.962  -0.223  0.00  0.00    +0.026 A 
ATOM     12  C   UNL     1       0.393  -7.641  -0.217  0.00  0.00    +0.043 A 
ATOM     13  N   UNL     1      -0.770  -7.203  -0.603  0.00  0.00    -0.376 N 
ATOM     14  C   UNL     1      -0.787  -5.747  -0.453  0.00  0.00    +0.127 C 
ATOM     15  C   UNL     1      -1.903  -5.279   0.493  0.00  0.00    +0.105 C 
ATOM     16  H   UNL     1      -1.501  -7.748  -0.933  0.00  0.00    +0.160 HD
ENDROOT
BRANCH   1  20
ATOM     17  C   UNL     1      -2.814   2.144   0.871  0.00  0.00    +0.089 C 
ATOM     18  C   UNL     1      -2.287   0.733   0.907  0.00  0.00    +0.140 A 
ATOM     19  C   UNL     1      -2.994  -0.381   0.641  0.00  0.00    +0.052 A 
ATOM     20  C   UNL     1      -2.130  -1.493   0.786  0.00  0.00    +0.173 A 
ATOM     21  N   UNL     1      -0.948  -1.041   1.128  0.00  0.00    -0.073 NA
ATOM     22  O   UNL     1      -1.029   0.371   1.204  0.00  0.00    -0.359 OA
BRANCH  19  23
ATOM     23  C   UNL     1      -4.450  -0.434   0.257  0.00  0.00    +0.200 C 
BRANCH  23  24
ATOM     24  O   UNL     1      -4.571  -0.357  -1.165  0.00  0.00    -0.378 OA
ATOM     25  C   UNL     1      -5.919  -0.400  -1.637  0.00  0.00    +0.194 C 
ENDBRANCH  23  24
ENDBRANCH  19  23
ENDBRANCH   1  20
BRANCH  15  26
ATOM     26  C   UNL     1      -3.254  -5.345  -0.222  0.00  0.00    +0.006 C 
ATOM     27  C   UNL     1      -3.160  -4.607  -1.559  0.00  0.00    +0.009 C 
ATOM     28  C   UNL     1      -3.627  -6.808  -0.472  0.00  0.00    +0.009 C 
ENDBRANCH  15  26
TORSDOF 4
