REMARK  Name = ZINC29335815
REMARK  5 active torsions:
REMARK  status: ('A' for Active; 'I' for Inactive)
REMARK    1  A    between atoms: C_5  and  S_6
REMARK    2  A    between atoms: S_6  and  N_9
REMARK    3  A    between atoms: C_15  and  C_17
REMARK    4  A    between atoms: C_17  and  S_18
REMARK    5  A    between atoms: S_18  and  C_19
REMARK                            x       y       z     vdW  Elec       q    Type
REMARK                         _______ _______ _______ _____ _____    ______ ____
ROOT
ATOM      1  N   UNL     1       4.483  -0.617  -1.627  0.00  0.00    -0.173 NA
ATOM      2  C   UNL     1       4.297  -1.885  -2.346  0.00  0.00    +0.128 C 
ATOM      3  C   UNL     1       3.467  -1.609  -3.611  0.00  0.00    +0.125 C 
ATOM      4  N   UNL     1       4.065  -0.472  -4.324  0.00  0.00    -0.298 N 
ATOM      5  C   UNL     1       4.256   0.794  -3.604  0.00  0.00    +0.125 C 
ATOM      6  C   UNL     1       5.081   0.520  -2.341  0.00  0.00    +0.128 C 
ATOM      7  C   UNL     1       4.431  -0.589  -5.616  0.00  0.00    +0.226 C 
ATOM      8  O   UNL     1       4.923   0.356  -6.195  0.00  0.00    -0.275 OA
ENDROOT
BRANCH   1   9
ATOM      9  S   UNL     1       4.034  -0.473  -0.040  0.00  0.00    +0.067 S 
ATOM     10  O   UNL     1       4.814   0.580   0.509  0.00  0.00    -0.152 OA
ATOM     11  O   UNL     1       4.036  -1.786   0.503  0.00  0.00    -0.152 OA
BRANCH   9  16
ATOM     12  C   UNL     1       1.221  -0.657  -0.013  0.00  0.00    +0.038 A 
ATOM     13  C   UNL     1       0.002  -0.004   0.002  0.00  0.00    +0.030 A 
ATOM     14  C   UNL     1      -0.016   1.352   0.009  0.00  0.00    +0.080 A 
ATOM     15  S   UNL     1       1.725   1.745  -0.005  0.00  0.00    -0.057 S 
ATOM     16  C   UNL     1       2.360   0.077  -0.020  0.00  0.00    +0.144 A 
ATOM     17 CL   UNL     1      -1.379   2.427   0.022  0.00  0.00    -0.076 Cl
ENDBRANCH   9  16
ENDBRANCH   1   9
BRANCH   7  18
ATOM     18  C   UNL     1       4.228  -1.895  -6.342  0.00  0.00    +0.173 C 
BRANCH  18  19
ATOM     19  S   UNL     1       4.814  -1.734  -8.047  0.00  0.00    -0.084 S 
BRANCH  19  20
ATOM     20  C   UNL     1       4.467  -3.356  -8.643  0.00  0.00    +0.123 C 
ATOM     21  N   UNL     1       3.928  -4.241  -7.851  0.00  0.00    -0.382 N 
ATOM     22  N   UNL     1       4.765  -3.689  -9.944  0.00  0.00    -0.340 N 
ATOM     23  H   UNL     1       3.712  -5.253  -8.223  0.00  0.00    +0.158 HD
ATOM     24  H   UNL     1       4.549  -4.701 -10.316  0.00  0.00    +0.144 HD
ATOM     25  H   UNL     1       5.220  -2.942 -10.612  0.00  0.00    +0.144 HD
ATOM     26  H   UNL     1       3.690  -3.975  -6.810  0.00  0.00    +0.158 HD
ENDBRANCH  19  20
ENDBRANCH  18  19
ENDBRANCH   7  18
TORSDOF 5
