REMARK  Name = ZINC39622806
REMARK  6 active torsions:
REMARK  status: ('A' for Active; 'I' for Inactive)
REMARK    1  A    between atoms: C_1  and  N_2
REMARK    2  A    between atoms: C_6  and  C_8
REMARK    3  A    between atoms: C_8  and  O_9
REMARK    4  A    between atoms: O_9  and  C_10
REMARK    5  A    between atoms: C_10  and  C_12
REMARK    6  A    between atoms: C_18  and  C_20
REMARK                            x       y       z     vdW  Elec       q    Type
REMARK                         _______ _______ _______ _____ _____    ______ ____
ROOT
ATOM      1  C   UNL     1      -4.546  -6.807   0.428  0.00  0.00    +0.110 C 
ATOM      2  C   UNL     1      -5.286  -6.352   1.687  0.00  0.00    +0.015 C 
ATOM      3  C   UNL     1      -6.787  -6.275   1.397  0.00  0.00    +0.001 C 
ATOM      4  C   UNL     1      -7.296  -7.655   0.977  0.00  0.00    +0.001 C 
ATOM      5  C   UNL     1      -6.556  -8.110  -0.283  0.00  0.00    +0.013 C 
ATOM      6  C   UNL     1      -5.056  -8.187   0.007  0.00  0.00    +0.089 C 
ENDROOT
BRANCH   6   7
ATOM      7  C   UNL     1      -4.327  -8.635  -1.234  0.00  0.00    +0.224 C 
ATOM      8  O   UNL     1      -4.008  -7.823  -2.076  0.00  0.00    -0.275 OA
ATOM      9  N   UNL     1      -4.030  -9.938  -1.407  0.00  0.00    -0.271 N 
ATOM     10  C   UNL     1      -4.459 -11.023  -0.520  0.00  0.00    +0.118 C 
ATOM     11  C   UNL     1      -3.874 -12.303  -1.137  0.00  0.00    +0.056 C 
ATOM     12  C   UNL     1      -3.134 -11.830  -2.368  0.00  0.00    -0.024 A 
ATOM     13  C   UNL     1      -3.273 -10.454  -2.463  0.00  0.00    +0.039 A 
ATOM     14  C   UNL     1      -2.674  -9.785  -3.533  0.00  0.00    +0.024 A 
ATOM     15  C   UNL     1      -1.960 -10.487  -4.480  0.00  0.00    +0.002 A 
ATOM     16  C   UNL     1      -1.832 -11.860  -4.378  0.00  0.00    +0.000 A 
ATOM     17  C   UNL     1      -2.414 -12.529  -3.317  0.00  0.00    +0.005 A 
ENDBRANCH   6   7
BRANCH   1  18
ATOM     18  C   UNL     1      -3.068  -6.883   0.713  0.00  0.00    +0.311 C 
ATOM     19  O   UNL     1      -2.483  -7.933   0.592  0.00  0.00    -0.251 OA
BRANCH  18  20
ATOM     20  O   UNL     1      -2.403  -5.784   1.101  0.00  0.00    -0.455 OA
BRANCH  20  21
ATOM     21  C   UNL     1      -1.004  -5.928   1.355  0.00  0.00    +0.328 C 
BRANCH  21  27
ATOM     22  C   UNL     1       3.264  -1.912   3.149  0.00  0.00    +0.129 C 
ATOM     23  N   UNL     1       2.707  -3.203   2.739  0.00  0.00    -0.302 N 
ATOM     24  C   UNL     1       1.395  -3.308   2.446  0.00  0.00    +0.306 C 
ATOM     25  O   UNL     1       0.675  -2.331   2.523  0.00  0.00    -0.252 OA
ATOM     26  N   UNL     1       0.882  -4.495   2.069  0.00  0.00    -0.237 N 
ATOM     27  C   UNL     1      -0.430  -4.600   1.777  0.00  0.00    +0.258 C 
ATOM     28  O   UNL     1      -1.148  -3.626   1.853  0.00  0.00    -0.272 OA
ATOM     29  H   UNL     1       3.281  -3.982   2.678  0.00  0.00    +0.150 HD
ATOM     30  H   UNL     1       1.456  -5.275   2.008  0.00  0.00    +0.159 HD
ENDBRANCH  21  27
ENDBRANCH  20  21
ENDBRANCH  18  20
ENDBRANCH   1  18
TORSDOF 5
