REMARK  Name = ZINC39016052
REMARK  8 active torsions:
REMARK  status: ('A' for Active; 'I' for Inactive)
REMARK    1  A    between atoms: C_1  and  C_2
REMARK    2  A    between atoms: C_5  and  S_8
REMARK    3  A    between atoms: S_8  and  N_11
REMARK    4  A    between atoms: N_11  and  C_12
REMARK    5  A    between atoms: N_11  and  C_18
REMARK    6  A    between atoms: C_12  and  C_13
REMARK    7  A    between atoms: C_18  and  C_19
REMARK    8  A    between atoms: C_24  and  C_31
REMARK                            x       y       z     vdW  Elec       q    Type
REMARK                         _______ _______ _______ _____ _____    ______ ____
ROOT
ATOM      1  N   UNL     1       1.766  -5.085   0.011  0.00  0.00    -0.168 NA
ENDROOT
BRANCH   1   2
ATOM      2  S   UNL     1       0.442  -4.105   0.190  0.00  0.00    +0.061 S 
ATOM      3  O   UNL     1      -0.206  -4.514   1.386  0.00  0.00    -0.153 OA
ATOM      4  O   UNL     1      -0.221  -4.084  -1.067  0.00  0.00    -0.153 OA
BRANCH   2   9
ATOM      5  C   UNL     1       2.478   1.491   1.160  0.00  0.00    +0.044 C 
ATOM      6  C   UNL     1       1.970   0.093   0.917  0.00  0.00    -0.050 A 
ATOM      7  C   UNL     1       1.731  -0.341  -0.373  0.00  0.00    +0.005 A 
ATOM      8  C   UNL     1       1.264  -1.624  -0.595  0.00  0.00    +0.029 A 
ATOM      9  C   UNL     1       1.038  -2.471   0.473  0.00  0.00    +0.106 A 
ATOM     10  C   UNL     1       1.278  -2.037   1.763  0.00  0.00    +0.029 A 
ATOM     11  C   UNL     1       1.748  -0.756   1.985  0.00  0.00    +0.005 A 
ENDBRANCH   2   9
ENDBRANCH   1   2
BRANCH   1  12
ATOM     12  C   UNL     1       2.358  -5.737   1.181  0.00  0.00    +0.183 C 
BRANCH  12  13
ATOM     13  C   UNL     1       1.767  -7.114   1.342  0.00  0.00    +0.120 A 
ATOM     14  C   UNL     1       2.252  -8.246   0.800  0.00  0.00    +0.046 A 
ATOM     15  C   UNL     1       1.394  -9.294   1.206  0.00  0.00    +0.041 A 
ATOM     16  C   UNL     1       0.436  -8.739   1.971  0.00  0.00    +0.195 A 
ATOM     17  O   UNL     1       0.671  -7.420   2.055  0.00  0.00    -0.466 OA
ENDBRANCH  12  13
ENDBRANCH   1  12
BRANCH   1  18
ATOM     18  C   UNL     1       2.344  -5.298  -1.318  0.00  0.00    +0.126 C 
BRANCH  18  19
ATOM     19  C   UNL     1       3.301  -4.151  -1.649  0.00  0.00    +0.114 C 
ATOM     20  C   UNL     1       3.657  -4.252  -3.119  0.00  0.00    -0.003 C 
ATOM     21  C   UNL     1       4.978  -4.374  -3.435  0.00  0.00    -0.007 A 
ATOM     22  C   UNL     1       5.410  -4.477  -4.830  0.00  0.00    +0.012 A 
ATOM     23  C   UNL     1       6.736  -4.598  -5.097  0.00  0.00    -0.050 A 
ATOM     24  C   UNL     1       7.684  -4.624  -4.074  0.00  0.00    +0.005 A 
ATOM     25  C   UNL     1       7.348  -4.533  -2.761  0.00  0.00    +0.024 A 
ATOM     26  C   UNL     1       6.001  -4.405  -2.375  0.00  0.00    +0.040 A 
ATOM     27  N   UNL     1       5.683  -4.315  -1.084  0.00  0.00    -0.284 N 
ATOM     28  C   UNL     1       4.439  -4.195  -0.654  0.00  0.00    +0.225 C 
ATOM     29  O   UNL     1       4.210  -4.119   0.538  0.00  0.00    -0.275 OA
ATOM     30  C   UNL     1       7.192  -4.705  -6.529  0.00  0.00    +0.044 C 
ATOM     31  H   UNL     1       6.398  -4.341  -0.429  0.00  0.00    +0.155 HD
ENDBRANCH  18  19
ENDBRANCH   1  18
TORSDOF 6
