REMARK  Name = ZINC52680109
REMARK  12 active torsions:
REMARK  status: ('A' for Active; 'I' for Inactive)
REMARK    1  A    between atoms: C_1  and  C_2
REMARK    2  A    between atoms: C_2  and  O_3
REMARK    3  A    between atoms: O_3  and  C_4
REMARK    4  A    between atoms: C_7  and  N_11
REMARK    5  A    between atoms: C_8  and  C_10
REMARK    6  A    between atoms: C_12  and  C_14
REMARK    7  A    between atoms: N_16  and  C_17
REMARK    8  A    between atoms: C_17  and  C_18
REMARK    9  A    between atoms: C_18  and  C_19
REMARK   10  A    between atoms: C_19  and  N_20
REMARK   11  A    between atoms: C_22  and  C_29
REMARK   12  A    between atoms: C_25  and  C_28
REMARK                            x       y       z     vdW  Elec       q    Type
REMARK                         _______ _______ _______ _____ _____    ______ ____
ROOT
ATOM      1  C   UNL     1       0.547  -8.255   1.104  0.00  0.00    +0.299 C 
ATOM      2  O   UNL     1       1.120  -8.713   2.071  0.00  0.00    -0.265 OA
ATOM      3  N   UNL     1      -0.066  -9.079   0.232  0.00  0.00    -0.308 N 
ATOM      4  H   UNL     1      -0.524  -8.713  -0.541  0.00  0.00    +0.149 HD
ENDROOT
BRANCH   1   6
ATOM      5  N   UNL     1       1.135  -5.955   1.754  0.00  0.00    -0.278 N 
ATOM      6  C   UNL     1       0.522  -6.779   0.881  0.00  0.00    +0.303 C 
ATOM      7  O   UNL     1      -0.051  -6.321  -0.086  0.00  0.00    -0.265 OA
ATOM      8  H   UNL     1       1.648  -6.323   2.490  0.00  0.00    +0.155 HD
BRANCH   5  12
ATOM      9  C   UNL     1       0.827  -1.825   1.288  0.00  0.00    +0.121 A 
ATOM     10  C   UNL     1       0.879  -2.647   0.171  0.00  0.00    +0.047 A 
ATOM     11  C   UNL     1       0.981  -4.015   0.324  0.00  0.00    +0.027 A 
ATOM     12  C   UNL     1       1.032  -4.569   1.597  0.00  0.00    +0.037 A 
ATOM     13  C   UNL     1       0.980  -3.745   2.715  0.00  0.00    -0.026 A 
ATOM     14  C   UNL     1       0.883  -2.377   2.559  0.00  0.00    +0.050 A 
ATOM     15  C   UNL     1       1.035  -4.345   4.096  0.00  0.00    +0.046 C 
BRANCH   9  16
ATOM     16  O   UNL     1       0.727  -0.477   1.135  0.00  0.00    -0.492 OA
BRANCH  16  18
ATOM     17  C   UNL     1       0.562   1.548  -0.173  0.00  0.00    +0.048 C 
ATOM     18  C   UNL     1       0.673   0.022  -0.202  0.00  0.00    +0.225 C 
ENDBRANCH  16  18
ENDBRANCH   9  16
ENDBRANCH   5  12
ENDBRANCH   1   6
BRANCH   3  19
ATOM     19  C   UNL     1      -0.041 -10.527   0.451  0.00  0.00    +0.103 C 
BRANCH  19  20
ATOM     20  C   UNL     1      -0.805 -11.227  -0.676  0.00  0.00    +0.000 C 
BRANCH  20  21
ATOM     21  C   UNL     1      -0.779 -12.739  -0.447  0.00  0.00    -0.077 C 
BRANCH  21  22
ATOM     22  N   UNL     1      -1.512 -13.411  -1.529  0.00  0.00    +0.380 N 
ATOM     23  C   UNL     1      -2.927 -13.025  -1.472  0.00  0.00    -0.076 C 
ATOM     24  C   UNL     1      -3.679 -13.657  -2.645  0.00  0.00    -0.031 C 
ATOM     25  C   UNL     1      -3.560 -15.182  -2.558  0.00  0.00    +0.003 C 
ATOM     26  C   UNL     1      -2.079 -15.568  -2.544  0.00  0.00    -0.031 C 
ATOM     27  C   UNL     1      -1.385 -14.865  -1.375  0.00  0.00    -0.076 C 
ATOM     28  C   UNL     1      -1.425 -15.139  -3.859  0.00  0.00    +0.005 C 
ATOM     29  C   UNL     1      -5.154 -13.255  -2.582  0.00  0.00    +0.005 C 
ATOM     30  H   UNL     1      -1.125 -13.133  -2.419  0.00  0.00    -0.082 HD
ENDBRANCH  21  22
ENDBRANCH  20  21
ENDBRANCH  19  20
ENDBRANCH   3  19
TORSDOF 8
