REMARK  Name = ZINC09509354
REMARK  11 active torsions:
REMARK  status: ('A' for Active; 'I' for Inactive)
REMARK    1  A    between atoms: C_1  and  C_2
REMARK    2  A    between atoms: C_5  and  N_8
REMARK    3  A    between atoms: C_12  and  S_14
REMARK    4  A    between atoms: S_14  and  C_15
REMARK    5  A    between atoms: C_15  and  C_17
REMARK    6  A    between atoms: C_15  and  C_18
REMARK    7  A    between atoms: N_20  and  C_21
REMARK    8  A    between atoms: N_20  and  C_22
REMARK    9  A    between atoms: C_22  and  C_23
REMARK   10  A    between atoms: N_25  and  C_26
REMARK   11  A    between atoms: C_29  and  C_32
REMARK                            x       y       z     vdW  Elec       q    Type
REMARK                         _______ _______ _______ _____ _____    ______ ____
ROOT
ATOM      1  C   UNL     1       5.802  -5.318  -1.711  0.00  0.00    +0.136 C 
ATOM      2  C   UNL     1       5.835  -6.848  -1.691  0.00  0.00    +0.029 C 
ENDROOT
BRANCH   1   3
ATOM      3  C   UNL     1       4.375  -4.845  -1.600  0.00  0.00    +0.229 C 
ATOM      4  O   UNL     1       3.744  -4.583  -2.602  0.00  0.00    -0.274 OA
ATOM      5  N   UNL     1       3.801  -4.714  -0.388  0.00  0.00    -0.295 N 
ATOM      6  C   UNL     1       4.563  -5.030   0.822  0.00  0.00    +0.132 C 
BRANCH   5   7
ATOM      7  C   UNL     1       2.414  -4.254  -0.281  0.00  0.00    +0.203 C 
BRANCH   7   8
ATOM      8  C   UNL     1       2.389  -2.751  -0.176  0.00  0.00    +0.235 C 
ATOM      9  O   UNL     1       3.428  -2.125  -0.190  0.00  0.00    -0.274 OA
ATOM     10  N   UNL     1       1.213  -2.102  -0.068  0.00  0.00    -0.284 N 
ATOM     11  H   UNL     1       0.388  -2.605   0.018  0.00  0.00    +0.155 HD
BRANCH  10  12
ATOM     12  C   UNL     1       1.182  -0.703  -0.079  0.00  0.00    +0.033 A 
ATOM     13  C   UNL     1       2.104   0.007  -0.836  0.00  0.00    +0.023 A 
ATOM     14  C   UNL     1       2.071   1.388  -0.846  0.00  0.00    +0.005 A 
ATOM     15  C   UNL     1       1.121   2.063  -0.102  0.00  0.00    -0.050 A 
ATOM     16  C   UNL     1       0.201   1.359   0.653  0.00  0.00    +0.005 A 
ATOM     17  C   UNL     1       0.229  -0.022   0.667  0.00  0.00    +0.023 A 
ATOM     18  C   UNL     1       1.087   3.569  -0.115  0.00  0.00    +0.044 C 
ENDBRANCH  10  12
ENDBRANCH   7   8
ENDBRANCH   5   7
ENDBRANCH   1   3
BRANCH   1  19
ATOM     19  S   UNL     1       6.519  -4.717  -3.264  0.00  0.00    -0.084 S 
BRANCH  19  24
ATOM     20  N   UNL     1      12.155  -5.977  -3.780  0.00  0.00    -0.292 N 
ATOM     21  C   UNL     1      10.820  -5.790  -3.441  0.00  0.00    +0.187 A 
ATOM     22  N   UNL     1      10.172  -6.169  -2.357  0.00  0.00    -0.125 NA
ATOM     23  N   UNL     1       8.836  -5.872  -2.219  0.00  0.00    -0.133 NA
ATOM     24  C   UNL     1       8.206  -5.219  -3.177  0.00  0.00    +0.161 A 
ATOM     25  S   UNL     1       9.524  -4.971  -4.358  0.00  0.00    -0.024 S 
ATOM     26  H   UNL     1      12.515  -5.566  -4.582  0.00  0.00    +0.154 HD
BRANCH  20  31
ATOM     27  C   UNL     1      15.502  -9.144  -0.474  0.00  0.00    +0.044 C 
ATOM     28  C   UNL     1      14.613  -8.303  -1.353  0.00  0.00    -0.050 A 
ATOM     29  C   UNL     1      13.245  -8.507  -1.347  0.00  0.00    +0.005 A 
ATOM     30  C   UNL     1      12.428  -7.738  -2.151  0.00  0.00    +0.023 A 
ATOM     31  C   UNL     1      12.980  -6.757  -2.966  0.00  0.00    +0.033 A 
ATOM     32  C   UNL     1      14.355  -6.558  -2.973  0.00  0.00    +0.023 A 
ATOM     33  C   UNL     1      15.167  -7.328  -2.162  0.00  0.00    +0.005 A 
ENDBRANCH  20  31
ENDBRANCH  19  24
ENDBRANCH   1  19
TORSDOF 7
