REMARK  Name = ZINC23473270
REMARK  10 active torsions:
REMARK  status: ('A' for Active; 'I' for Inactive)
REMARK    1  A    between atoms: C_4  and  C_7
REMARK    2  A    between atoms: C_7  and  C_8
REMARK    3  A    between atoms: C_7  and  N_14
REMARK    4  A    between atoms: N_17  and  C_20
REMARK    5  A    between atoms: C_20  and  C_21
REMARK    6  A    between atoms: C_21  and  C_23
REMARK    7  A    between atoms: C_21  and  O_37
REMARK    8  A    between atoms: C_23  and  O_24
REMARK    9  A    between atoms: O_24  and  C_25
REMARK   10  A    between atoms: C_25  and  C_26
REMARK                            x       y       z     vdW  Elec       q    Type
REMARK                         _______ _______ _______ _____ _____    ______ ____
ROOT
ATOM      1  N   UNL     1      -0.629   2.821   1.391  0.00  0.00    +0.389 N 
ATOM      2  C   UNL     1      -0.617   1.353   1.309  0.00  0.00    -0.062 C 
ATOM      3  C   UNL     1       0.053   0.924   0.001  0.00  0.00    +0.066 C 
ATOM      4  N   UNL     1      -0.677   1.507  -1.134  0.00  0.00    -0.303 NA
ATOM      5  C   UNL     1      -0.689   2.974  -1.051  0.00  0.00    +0.066 C 
ATOM      6  C   UNL     1      -1.359   3.403   0.256  0.00  0.00    -0.062 C 
ATOM      7  H   UNL     1       0.412   3.172   1.343  0.00  0.00    -0.080 HD
ENDROOT
BRANCH   1   8
ATOM      8  C   UNL     1      -1.197   3.271   2.669  0.00  0.00    -0.007 C 
BRANCH   8  12
ATOM      9  C   UNL     1       0.990   1.523   5.895  0.00  0.00    +0.000 A 
ATOM     10  C   UNL     1      -0.385   1.635   5.973  0.00  0.00    +0.000 A 
ATOM     11  C   UNL     1      -1.093   2.201   4.929  0.00  0.00    +0.002 A 
ATOM     12  C   UNL     1      -0.426   2.655   3.807  0.00  0.00    -0.057 A 
ATOM     13  C   UNL     1       0.950   2.538   3.727  0.00  0.00    +0.002 A 
ATOM     14  C   UNL     1       1.658   1.977   4.773  0.00  0.00    +0.000 A 
ENDBRANCH   8  12
BRANCH   8  15
ATOM     15  C   UNL     1      -1.108   4.773   2.757  0.00  0.00    -0.057 A 
ATOM     16  C   UNL     1       0.024   5.426   2.304  0.00  0.00    +0.002 A 
ATOM     17  C   UNL     1       0.103   6.804   2.380  0.00  0.00    +0.000 A 
ATOM     18  C   UNL     1      -0.944   7.528   2.918  0.00  0.00    +0.000 A 
ATOM     19  C   UNL     1      -2.073   6.875   3.376  0.00  0.00    +0.000 A 
ATOM     20  C   UNL     1      -2.155   5.497   3.295  0.00  0.00    +0.002 A 
ENDBRANCH   8  15
ENDBRANCH   1   8
BRANCH   4  21
ATOM     21  C   UNL     1      -0.109   1.057  -2.412  0.00  0.00    +0.117 C 
BRANCH  21  22
ATOM     22  C   UNL     1       1.198   1.806  -2.682  0.00  0.00    +0.154 C 
BRANCH  22  23
ATOM     23  O   UNL     1       2.172   1.430  -1.706  0.00  0.00    -0.388 OA
ATOM     24  H   UNL     1       3.181   1.869  -1.739  0.00  0.00    +0.210 HD
ENDBRANCH  22  23
BRANCH  22  25
ATOM     25  C   UNL     1       1.710   1.450  -4.079  0.00  0.00    +0.192 C 
BRANCH  25  26
ATOM     26  O   UNL     1       2.866   2.237  -4.376  0.00  0.00    -0.373 OA
BRANCH  26  27
ATOM     27  C   UNL     1       3.426   1.981  -5.665  0.00  0.00    +0.207 C 
BRANCH  27  28
ATOM     28  C   UNL     1       4.651   2.873  -5.875  0.00  0.00    +0.236 C 
ATOM     29  C   UNL     1       5.202   2.672  -7.294  0.00  0.00    +0.276 C 
ATOM     30  O   UNL     1       6.352   3.510  -7.451  0.00  0.00    -0.485 OA
ATOM     31  C   UNL     1       7.262   3.495  -6.439  0.00  0.00    +0.162 A 
ATOM     32  C   UNL     1       8.540   3.984  -6.666  0.00  0.00    +0.049 A 
ATOM     33  C   UNL     1       9.473   3.982  -5.646  0.00  0.00    +0.004 A 
ATOM     34  C   UNL     1       9.135   3.493  -4.398  0.00  0.00    +0.004 A 
ATOM     35  C   UNL     1       7.864   3.004  -4.166  0.00  0.00    +0.049 A 
ATOM     36  C   UNL     1       6.923   3.002  -5.185  0.00  0.00    +0.163 A 
ATOM     37  O   UNL     1       5.676   2.515  -4.942  0.00  0.00    -0.479 OA
ENDBRANCH  27  28
ENDBRANCH  26  27
ENDBRANCH  25  26
ENDBRANCH  22  25
ENDBRANCH  21  22
ENDBRANCH   4  21
TORSDOF 10
