REMARK  Name = ZINC38685176
REMARK  12 active torsions:
REMARK  status: ('A' for Active; 'I' for Inactive)
REMARK    1  A    between atoms: C_1  and  C_2
REMARK    2  A    between atoms: C_2  and  C_3
REMARK    3  A    between atoms: C_3  and  C_4
REMARK    4  A    between atoms: C_4  and  O_5
REMARK    5  A    between atoms: O_5  and  C_6
REMARK    6  A    between atoms: C_10  and  C_12
REMARK    7  A    between atoms: C_17  and  O_26
REMARK    8  A    between atoms: C_21  and  N_25
REMARK    9  A    between atoms: C_22  and  C_23
REMARK   10  A    between atoms: O_26  and  C_27
REMARK   11  A    between atoms: C_27  and  C_29
REMARK   12  A    between atoms: C_29  and  C_30
REMARK                            x       y       z     vdW  Elec       q    Type
REMARK                         _______ _______ _______ _____ _____    ______ ____
ROOT
ATOM      1  C   UNL     1      -5.749  -6.476  -0.025  0.00  0.00    +0.098 C 
ATOM      2  C   UNL     1      -5.919  -7.312   1.215  0.00  0.00    +0.008 A 
ATOM      3  C   UNL     1      -6.037  -6.688   2.445  0.00  0.00    +0.012 A 
ATOM      4  C   UNL     1      -6.193  -7.439   3.594  0.00  0.00    +0.047 A 
ATOM      5  C   UNL     1      -6.232  -8.824   3.517  0.00  0.00    +0.135 A 
ATOM      6  C   UNL     1      -6.114  -9.451   2.288  0.00  0.00    +0.093 A 
ATOM      7  C   UNL     1      -5.957  -8.695   1.133  0.00  0.00    +0.138 A 
ATOM      8  O   UNL     1      -5.844  -9.324  -0.062  0.00  0.00    -0.441 OA
ATOM      9  C   UNL     1      -6.078  -8.649  -1.200  0.00  0.00    +0.199 C 
ATOM     10  C   UNL     1      -6.047  -7.299  -1.247  0.00  0.00    +0.098 C 
ENDROOT
BRANCH   1  15
ATOM     11  C   UNL     1      -2.777  -4.147  -0.170  0.00  0.00    +0.121 A 
ATOM     12  C   UNL     1      -1.724  -5.049  -0.229  0.00  0.00    +0.045 A 
ATOM     13  C   UNL     1      -1.978  -6.407  -0.222  0.00  0.00    +0.004 A 
ATOM     14  C   UNL     1      -3.281  -6.867  -0.156  0.00  0.00    +0.005 A 
ATOM     15  C   UNL     1      -4.331  -5.971  -0.097  0.00  0.00    -0.031 A 
ATOM     16  C   UNL     1      -4.082  -4.612  -0.098  0.00  0.00    +0.050 A 
BRANCH  11  17
ATOM     17  O   UNL     1      -2.530  -2.811  -0.176  0.00  0.00    -0.492 OA
BRANCH  17  18
ATOM     18  C   UNL     1      -1.162  -2.405  -0.252  0.00  0.00    +0.229 C 
BRANCH  18  19
ATOM     19  C   UNL     1      -1.082  -0.877  -0.247  0.00  0.00    +0.041 C 
BRANCH  19  21
ATOM     20  C   UNL     1       0.462   1.086  -0.324  0.00  0.00    +0.004 C 
ATOM     21  C   UNL     1       0.383  -0.442  -0.328  0.00  0.00    -0.000 C 
ENDBRANCH  19  21
ENDBRANCH  18  19
ENDBRANCH  17  18
ENDBRANCH  11  17
ENDBRANCH   1  15
BRANCH   9  22
ATOM     22  N   UNL     1      -6.356  -9.351  -2.346  0.00  0.00    -0.328 N 
ATOM     23  H   UNL     1      -6.380 -10.320  -2.327  0.00  0.00    +0.145 HD
ATOM     24  H   UNL     1      -6.527  -8.877  -3.175  0.00  0.00    +0.145 HD
ENDBRANCH   9  22
BRANCH  10  25
ATOM     25  C   UNL     1      -6.305  -6.639  -2.492  0.00  0.00    +0.101 C 
ATOM     26  N   UNL     1      -6.510  -6.116  -3.479  0.00  0.00    -0.191 NA
ENDBRANCH  10  25
BRANCH   5  27
ATOM     27  O   UNL     1      -6.385  -9.564   4.647  0.00  0.00    -0.425 OA
BRANCH  27  28
ATOM     28  C   UNL     1      -5.342 -10.298   5.066  0.00  0.00    +0.317 C 
ATOM     29  O   UNL     1      -4.276 -10.207   4.505  0.00  0.00    -0.250 OA
BRANCH  28  30
ATOM     30  C   UNL     1      -5.501 -11.234   6.237  0.00  0.00    +0.156 C 
BRANCH  30  31
ATOM     31  C   UNL     1      -4.192 -11.933   6.502  0.00  0.00    -0.029 A 
ATOM     32  C   UNL     1      -3.951 -13.160   5.965  0.00  0.00    +0.005 A 
ATOM     33  C   UNL     1      -2.747 -13.821   6.199  0.00  0.00    +0.001 A 
ATOM     34  C   UNL     1      -1.778 -13.260   6.973  0.00  0.00    +0.008 A 
ATOM     35  C   UNL     1      -1.991 -11.994   7.544  0.00  0.00    -0.018 A 
ATOM     36  C   UNL     1      -3.213 -11.319   7.301  0.00  0.00    -0.014 A 
ATOM     37  C   UNL     1      -3.424 -10.050   7.868  0.00  0.00    +0.009 A 
ATOM     38  C   UNL     1      -2.452  -9.486   8.636  0.00  0.00    +0.001 A 
ATOM     39  C   UNL     1      -1.248 -10.148   8.870  0.00  0.00    +0.001 A 
ATOM     40  C   UNL     1      -1.014 -11.383   8.349  0.00  0.00    +0.008 A 
ENDBRANCH  30  31
ENDBRANCH  28  30
ENDBRANCH  27  28
ENDBRANCH   5  27
TORSDOF 11
