REMARK  Name = ZINC64808843
REMARK  11 active torsions:
REMARK  status: ('A' for Active; 'I' for Inactive)
REMARK    1  A    between atoms: C_1  and  C_2
REMARK    2  A    between atoms: C_6  and  C_26
REMARK    3  A    between atoms: C_7  and  N_8
REMARK    4  A    between atoms: N_8  and  S_9
REMARK    5  A    between atoms: S_9  and  C_12
REMARK    6  A    between atoms: C_15  and  N_18
REMARK    7  A    between atoms: C_19  and  C_21
REMARK    8  A    between atoms: C_21  and  O_22
REMARK    9  A    between atoms: O_22  and  C_23
REMARK   10  A    between atoms: C_23  and  C_24
REMARK   11  A    between atoms: C_23  and  C_25
REMARK                            x       y       z     vdW  Elec       q    Type
REMARK                         _______ _______ _______ _____ _____    ______ ____
ROOT
ATOM      1  C   UNL     1       1.750  -1.411   4.121  0.00  0.00    +0.109 A 
ATOM      2  C   UNL     1       2.076  -2.685   3.693  0.00  0.00    +0.030 A 
ATOM      3  C   UNL     1       3.373  -3.145   3.812  0.00  0.00    +0.025 A 
ATOM      4  C   UNL     1       4.350  -2.326   4.364  0.00  0.00    +0.034 A 
ATOM      5  C   UNL     1       4.019  -1.048   4.793  0.00  0.00    +0.025 A 
ATOM      6  C   UNL     1       2.722  -0.592   4.666  0.00  0.00    +0.030 A 
ENDROOT
BRANCH   4   7
ATOM      7  N   UNL     1       5.665  -2.789   4.487  0.00  0.00    -0.284 N 
ATOM      8  C   UNL     1       6.178  -3.616   3.554  0.00  0.00    +0.243 C 
ATOM      9  O   UNL     1       5.533  -3.889   2.564  0.00  0.00    -0.273 OA
ATOM     10  H   UNL     1       6.206  -2.515   5.243  0.00  0.00    +0.155 HD
BRANCH   8  11
ATOM     11  C   UNL     1       7.554  -4.202   3.742  0.00  0.00    +0.256 C 
BRANCH  11  12
ATOM     12  O   UNL     1       7.871  -5.039   2.629  0.00  0.00    -0.368 OA
BRANCH  12  13
ATOM     13  C   UNL     1       9.162  -5.648   2.708  0.00  0.00    +0.113 C 
ATOM     14  C   UNL     1       9.136  -6.995   1.982  0.00  0.00    +0.037 C 
ATOM     15  C   UNL     1      10.197  -4.734   2.050  0.00  0.00    +0.037 C 
ENDBRANCH  12  13
ENDBRANCH  11  12
ENDBRANCH   8  11
ENDBRANCH   4   7
BRANCH   1  16
ATOM     16  S   UNL     1       0.094  -0.829   3.967  0.00  0.00    +0.072 S 
ATOM     17  O   UNL     1      -0.104   0.114   5.012  0.00  0.00    -0.150 OA
ATOM     18  O   UNL     1      -0.728  -1.977   3.811  0.00  0.00    -0.150 OA
BRANCH  16  19
ATOM     19  N   UNL     1       0.003   0.015   2.545  0.00  0.00    -0.216 N 
ATOM     20  H   UNL     1      -0.152   0.972   2.558  0.00  0.00    +0.174 HD
BRANCH  19  27
ATOM     21  C   UNL     1       2.348   0.518   1.014  0.00  0.00    +0.046 C 
ATOM     22  C   UNL     1       1.279  -0.436   0.546  0.00  0.00    -0.028 A 
ATOM     23  C   UNL     1       1.423  -1.101  -0.655  0.00  0.00    +0.005 A 
ATOM     24  C   UNL     1       0.443  -1.977  -1.085  0.00  0.00    +0.001 A 
ATOM     25  C   UNL     1      -0.685  -2.190  -0.313  0.00  0.00    +0.005 A 
ATOM     26  C   UNL     1      -0.836  -1.528   0.889  0.00  0.00    -0.028 A 
ATOM     27  C   UNL     1       0.150  -0.652   1.326  0.00  0.00    +0.054 A 
ATOM     28  C   UNL     1      -2.065  -1.761   1.729  0.00  0.00    +0.046 C 
ENDBRANCH  19  27
ENDBRANCH  16  19
ENDBRANCH   1  16
TORSDOF 7
