REMARK  Name = ZINC12455396
REMARK  6 active torsions:
REMARK  status: ('A' for Active; 'I' for Inactive)
REMARK    1  A    between atoms: C_1  and  C_2
REMARK    2  A    between atoms: C_5  and  C_7
REMARK    3  A    between atoms: C_9  and  C_13
REMARK    4  A    between atoms: C_10  and  C_12
REMARK    5  A    between atoms: C_13  and  N_48
REMARK    6  A    between atoms: C_17  and  C_19
REMARK                            x       y       z     vdW  Elec       q    Type
REMARK                         _______ _______ _______ _____ _____    ______ ____
ROOT
ATOM      1  C   UNL     1       1.231  -0.288  -0.432  0.00  0.00    -0.077 C 
ATOM      2  C   UNL     1       1.946   1.075  -0.535  0.00  0.00    -0.020 C 
ATOM      3  C   UNL     1       1.189   1.947   0.502  0.00  0.00    -0.010 C 
ATOM      4  C   UNL     1      -0.259   1.416   0.358  0.00  0.00    -0.011 C 
ATOM      5  N   UNL     1      -0.099  -0.036   0.148  0.00  0.00    +0.389 N 
ATOM      6  H   UNL     1      -0.173  -0.520   1.051  0.00  0.00    -0.080 HD
ENDROOT
BRANCH   4   7
ATOM      7  C   UNL     1      -1.040   1.673   1.621  0.00  0.00    +0.066 A 
ATOM      8  N   UNL     1      -2.014   2.518   1.812  0.00  0.00    -0.246 NA
ATOM      9  C   UNL     1      -2.635   2.650   3.003  0.00  0.00    +0.078 A 
ATOM     10  C   UNL     1      -3.695   3.512   3.363  0.00  0.00    +0.029 A 
ATOM     11  C   UNL     1      -4.197   3.504   4.627  0.00  0.00    +0.002 A 
ATOM     12  C   UNL     1      -3.694   2.657   5.605  0.00  0.00    +0.001 A 
ATOM     13  C   UNL     1      -2.657   1.799   5.293  0.00  0.00    +0.017 A 
ATOM     14  C   UNL     1      -2.143   1.800   4.019  0.00  0.00    +0.039 A 
ATOM     15  S   UNL     1      -0.864   0.908   3.170  0.00  0.00    -0.074 S 
ENDBRANCH   4   7
BRANCH   5  16
ATOM     16  C   UNL     1      -1.159  -0.543  -0.762  0.00  0.00    -0.018 C 
BRANCH  16  19
ATOM     17  C   UNL     1      -0.209  -3.798  -2.025  0.00  0.00    +0.234 A 
ATOM     18  N   UNL     1      -0.214  -2.485  -2.099  0.00  0.00    -0.215 NA
ATOM     19  C   UNL     1      -0.908  -1.999  -1.059  0.00  0.00    +0.066 A 
ATOM     20  C   UNL     1      -1.336  -3.041  -0.324  0.00  0.00    +0.124 A 
ATOM     21  O   UNL     1      -0.904  -4.165  -0.932  0.00  0.00    -0.440 OA
ATOM     22  C   UNL     1      -2.150  -2.967   0.942  0.00  0.00    +0.088 C 
BRANCH  17  27
ATOM     23  C   UNL     1       2.565  -6.461  -6.135  0.00  0.00    +0.051 C 
ATOM     24  C   UNL     1       1.772  -5.992  -4.943  0.00  0.00    -0.013 A 
ATOM     25  C   UNL     1       1.173  -6.731  -3.973  0.00  0.00    +0.012 A 
ATOM     26  C   UNL     1       0.496  -6.092  -2.961  0.00  0.00    +0.021 A 
ATOM     27  C   UNL     1       0.443  -4.710  -2.975  0.00  0.00    +0.074 A 
ATOM     28  S   UNL     1       1.381  -4.323  -4.444  0.00  0.00    -0.089 S 
ENDBRANCH  17  27
ENDBRANCH  16  19
ENDBRANCH   5  16
TORSDOF 4
