REMARK  Name = ZINC15479495
REMARK  5 active torsions:
REMARK  status: ('A' for Active; 'I' for Inactive)
REMARK    1  A    between atoms: C_1  and  C_2
REMARK    2  A    between atoms: N_10  and  N_14
REMARK    3  A    between atoms: C_15  and  C_17
REMARK    4  A    between atoms: C_17  and  N_18
REMARK    5  A    between atoms: C_23  and  C_25
REMARK                            x       y       z     vdW  Elec       q    Type
REMARK                         _______ _______ _______ _____ _____    ______ ____
ROOT
ATOM      1  N   UNL     1       3.294  -5.836   0.140  0.00  0.00    -0.225 N 
ATOM      2  C   UNL     1       3.774  -6.299  -1.031  0.00  0.00    +0.213 C 
ATOM      3  O   UNL     1       3.674  -5.627  -2.036  0.00  0.00    -0.276 OA
ATOM      4  H   UNL     1       3.374  -6.374   0.943  0.00  0.00    +0.173 HD
ENDROOT
BRANCH   1  14
ATOM      5  C   UNL     1      -0.676   1.022   0.503  0.00  0.00    +0.007 C 
ATOM      6  C   UNL     1      -0.512  -0.499   0.477  0.00  0.00    -0.014 C 
ATOM      7  C   UNL     1       0.160  -0.917  -0.832  0.00  0.00    +0.006 C 
ATOM      8  C   UNL     1       0.314  -2.440  -0.861  0.00  0.00    +0.035 C 
ATOM      9  C   UNL     1       1.154  -2.890   0.329  0.00  0.00    +0.114 C 
ATOM     10  C   UNL     1       0.505  -2.462   1.640  0.00  0.00    +0.035 C 
ATOM     11  C   UNL     1       0.351  -0.939   1.661  0.00  0.00    +0.006 C 
ATOM     12  C   UNL     1       1.348  -4.389   0.301  0.00  0.00    +0.263 C 
ATOM     13  O   UNL     1       0.487  -5.241   0.359  0.00  0.00    -0.271 OA
ATOM     14  N   UNL     1       2.679  -4.578   0.197  0.00  0.00    -0.137 N 
ATOM     15  C   UNL     1       3.341  -3.415   0.157  0.00  0.00    +0.326 C 
ATOM     16  O   UNL     1       4.550  -3.328   0.065  0.00  0.00    -0.251 OA
ATOM     17  N   UNL     1       2.517  -2.353   0.229  0.00  0.00    -0.284 N 
ATOM     18  H   UNL     1       2.773  -1.417   0.217  0.00  0.00    +0.151 HD
ENDBRANCH   1  14
BRANCH   2  19
ATOM     19  C   UNL     1       4.435  -7.652  -1.093  0.00  0.00    +0.021 C 
BRANCH  19  20
ATOM     20  N   UNL     1       4.868  -7.923  -2.470  0.00  0.00    +0.393 N 
ATOM     21  C   UNL     1       5.939  -6.988  -2.837  0.00  0.00    -0.077 C 
ATOM     22  C   UNL     1       6.338  -7.212  -4.298  0.00  0.00    -0.019 C 
ATOM     23  C   UNL     1       6.833  -8.651  -4.470  0.00  0.00    -0.003 C 
ATOM     24  C   UNL     1       5.735  -9.617  -4.014  0.00  0.00    -0.006 C 
ATOM     25  C   UNL     1       5.358  -9.303  -2.564  0.00  0.00    +0.020 C 
ATOM     26  H   UNL     1       4.088  -7.801  -3.098  0.00  0.00    -0.080 HD
BRANCH  25  27
ATOM     27  C   UNL     1       4.278 -10.251  -2.111  0.00  0.00    +0.197 C 
ATOM     28  O   UNL     1       3.111  -9.947  -2.240  0.00  0.00    -0.278 OA
ATOM     29  N   UNL     1       4.609 -11.437  -1.562  0.00  0.00    -0.331 N 
ATOM     30  H   UNL     1       5.543 -11.679  -1.458  0.00  0.00    +0.145 HD
ATOM     31  H   UNL     1       3.914 -12.047  -1.270  0.00  0.00    +0.145 HD
ENDBRANCH  25  27
ENDBRANCH  19  20
ENDBRANCH   2  19
TORSDOF 4
