REMARK  Name = ZINC13192359
REMARK  13 active torsions:
REMARK  status: ('A' for Active; 'I' for Inactive)
REMARK    1  A    between atoms: C_1  and  N_59
REMARK    2  A    between atoms: C_2  and  N_59
REMARK    3  A    between atoms: C_3  and  C_5
REMARK    4  A    between atoms: C_3  and  C_12
REMARK    5  A    between atoms: C_3  and  N_59
REMARK    6  A    between atoms: C_5  and  C_6
REMARK    7  A    between atoms: C_12  and  N_13
REMARK    8  A    between atoms: N_13  and  C_14
REMARK    9  A    between atoms: C_17  and  S_23
REMARK   10  A    between atoms: C_19  and  N_20
REMARK   11  A    between atoms: S_23  and  N_26
REMARK   12  A    between atoms: N_26  and  C_27
REMARK   13  A    between atoms: C_31  and  C_33
REMARK                            x       y       z     vdW  Elec       q    Type
REMARK                         _______ _______ _______ _____ _____    ______ ____
ROOT
ATOM      1  C   UNL     1      -3.545   0.469   4.052  0.00  0.00    +0.058 A 
ATOM      2  C   UNL     1      -3.600   1.054   5.311  0.00  0.00    +0.027 A 
ATOM      3  C   UNL     1      -4.748   0.948   6.070  0.00  0.00    +0.031 A 
ATOM      4  C   UNL     1      -5.843   0.260   5.578  0.00  0.00    +0.111 A 
ATOM      5  C   UNL     1      -5.792  -0.323   4.326  0.00  0.00    +0.063 A 
ATOM      6  C   UNL     1      -4.648  -0.215   3.559  0.00  0.00    +0.149 A 
ENDROOT
BRANCH   6   7
ATOM      7  N   UNL     1      -4.596  -0.835   2.215  0.00  0.00    +0.058 N 
ATOM      8  O   UNL     1      -5.596  -1.344   1.741  0.00  0.00    -0.126 OA
ATOM      9  O   UNL     1      -3.555  -0.834   1.584  0.00  0.00    -0.126 OA
ENDBRANCH   6   7
BRANCH   4  10
ATOM     10  S   UNL     1      -7.307   0.127   6.551  0.00  0.00    +0.072 S 
ATOM     11  O   UNL     1      -7.995  -1.029   6.093  0.00  0.00    -0.150 OA
ATOM     12  O   UNL     1      -6.910   0.290   7.906  0.00  0.00    -0.150 OA
BRANCH  10  13
ATOM     13  N   UNL     1      -8.263   1.426   6.177  0.00  0.00    -0.216 N 
ATOM     14  H   UNL     1      -8.457   2.095   6.852  0.00  0.00    +0.174 HD
BRANCH  13  15
ATOM     15  C   UNL     1      -8.791   1.558   4.890  0.00  0.00    +0.049 A 
ATOM     16  C   UNL     1      -9.361   0.459   4.257  0.00  0.00    +0.024 A 
ATOM     17  C   UNL     1      -9.885   0.584   2.984  0.00  0.00    +0.003 A 
ATOM     18  C   UNL     1      -9.846   1.801   2.333  0.00  0.00    +0.015 A 
ATOM     19  C   UNL     1      -9.276   2.910   2.960  0.00  0.00    +0.065 A 
ATOM     20  C   UNL     1      -8.752   2.785   4.247  0.00  0.00    +0.039 A 
BRANCH  19  21
ATOM     21  C   UNL     1      -9.234   4.214   2.266  0.00  0.00    +0.387 C 
ATOM     22  O   UNL     1      -8.737   5.178   2.813  0.00  0.00    -0.241 OA
ATOM     23  O   UNL     1      -9.745   4.333   1.026  0.00  0.00    -0.241 OA
ENDBRANCH  19  21
ENDBRANCH  13  15
ENDBRANCH  10  13
ENDBRANCH   4  10
BRANCH   1  24
ATOM     24  N   UNL     1      -2.385   0.575   3.281  0.00  0.00    -0.344 N 
ATOM     25  H   UNL     1      -2.379   0.252   2.366  0.00  0.00    +0.146 HD
BRANCH  24  26
ATOM     26  C   UNL     1      -1.177   1.174   3.854  0.00  0.00    +0.086 C 
BRANCH  26  27
ATOM     27  C   UNL     1      -0.060   1.167   2.809  0.00  0.00    -0.048 C 
BRANCH  27  30
ATOM     28  C   UNL     1       0.437   1.672   0.493  0.00  0.00    -0.096 C 
ATOM     29  C   UNL     1      -0.791   3.264   1.843  0.00  0.00    -0.096 C 
ATOM     30  N   UNL     1      -0.551   1.829   1.581  0.00  0.00    +0.379 N 
ATOM     31  H   UNL     1      -1.434   1.390   1.296  0.00  0.00    -0.082 HD
ENDBRANCH  27  30
BRANCH  27  32
ATOM     32  C   UNL     1       1.161   1.904   3.363  0.00  0.00    +0.021 C 
BRANCH  32  33
ATOM     33  C   UNL     1       1.719   1.139   4.536  0.00  0.00    -0.049 A 
ATOM     34  C   UNL     1       1.224   1.367   5.807  0.00  0.00    +0.003 A 
ATOM     35  C   UNL     1       1.732   0.662   6.883  0.00  0.00    +0.000 A 
ATOM     36  C   UNL     1       2.742  -0.262   6.689  0.00  0.00    +0.000 A 
ATOM     37  C   UNL     1       3.240  -0.486   5.419  0.00  0.00    +0.000 A 
ATOM     38  C   UNL     1       2.728   0.215   4.343  0.00  0.00    +0.003 A 
ENDBRANCH  32  33
ENDBRANCH  27  32
ENDBRANCH  26  27
ENDBRANCH  24  26
ENDBRANCH   1  24
TORSDOF 11
