REMARK  Name = ZINC40824446
REMARK  8 active torsions:
REMARK  status: ('A' for Active; 'I' for Inactive)
REMARK    1  A    between atoms: C_1  and  C_2
REMARK    2  A    between atoms: C_6  and  C_7
REMARK    3  A    between atoms: N_9  and  C_10
REMARK    4  A    between atoms: N_9  and  C_11
REMARK    5  A    between atoms: N_14  and  C_17
REMARK    6  A    between atoms: N_22  and  N_23
REMARK    7  A    between atoms: N_23  and  C_24
REMARK    8  A    between atoms: C_24  and  N_26
REMARK                            x       y       z     vdW  Elec       q    Type
REMARK                         _______ _______ _______ _____ _____    ______ ____
ROOT
ATOM      1  C   UNL     1       0.652   1.487   0.072  0.00  0.00    +0.048 C 
ATOM      2  C   UNL     1       0.699  -0.020   0.079  0.00  0.00    +0.009 A 
ATOM      3  C   UNL     1       0.936  -0.858  -1.018  0.00  0.00    +0.042 A 
ATOM      4  C   UNL     1       0.888  -2.155  -0.564  0.00  0.00    +0.115 A 
ATOM      5  O   UNL     1       0.639  -2.124   0.743  0.00  0.00    -0.454 OA
ATOM      6  C   UNL     1       0.524  -0.841   1.157  0.00  0.00    +0.193 A 
ATOM      7  C   UNL     1       1.093  -3.347  -1.464  0.00  0.00    +0.075 C 
ATOM      8  C   UNL     1       0.836  -2.937  -2.917  0.00  0.00    +0.014 C 
ATOM      9  C   UNL     1       1.673  -1.708  -3.288  0.00  0.00    +0.058 C 
ATOM     10  C   UNL     1       1.201  -0.537  -2.438  0.00  0.00    +0.070 C 
ATOM     11  N   UNL     1       1.042   0.656  -2.924  0.00  0.00    -0.185 NA
ENDROOT
BRANCH   6  12
ATOM     12  C   UNL     1       0.253  -0.406   2.532  0.00  0.00    +0.282 C 
ATOM     13  O   UNL     1       0.300   0.777   2.815  0.00  0.00    -0.267 OA
ATOM     14  N   UNL     1      -0.049  -1.315   3.480  0.00  0.00    -0.295 N 
ATOM     15  C   UNL     1      -0.031  -2.743   3.157  0.00  0.00    +0.132 C 
BRANCH  14  16
ATOM     16  C   UNL     1      -0.394  -0.874   4.834  0.00  0.00    +0.073 C 
ATOM     17  C   UNL     1      -1.804  -1.357   5.186  0.00  0.00    +0.004 C 
ATOM     18  C   UNL     1      -2.127  -0.962   6.628  0.00  0.00    -0.077 C 
ATOM     19  N   UNL     1      -1.155  -1.581   7.538  0.00  0.00    +0.378 N 
ATOM     20  C   UNL     1       0.191  -1.068   7.253  0.00  0.00    -0.077 C 
ATOM     21  C   UNL     1       0.603  -1.466   5.835  0.00  0.00    +0.004 C 
ATOM     22  C   UNL     1      -1.515  -1.263   8.926  0.00  0.00    -0.096 C 
ATOM     23  H   UNL     1      -1.166  -2.581   7.410  0.00  0.00    -0.082 HD
ENDBRANCH  14  16
ENDBRANCH   6  12
BRANCH  11  24
ATOM     24  N   UNL     1       1.308   0.902  -4.277  0.00  0.00    -0.218 N 
ATOM     25  H   UNL     1       1.611   0.181  -4.851  0.00  0.00    +0.176 HD
BRANCH  24  26
ATOM     26  C   UNL     1       1.143   2.141  -4.781  0.00  0.00    +0.147 C 
ATOM     27  S   UNL     1       1.468   2.442  -6.435  0.00  0.00    -0.017 S 
BRANCH  26  28
ATOM     28  N   UNL     1       0.722   3.143  -3.984  0.00  0.00    -0.339 N 
ATOM     29  H   UNL     1       0.538   2.972  -3.047  0.00  0.00    +0.144 HD
ATOM     30  H   UNL     1       0.603   4.034  -4.347  0.00  0.00    +0.144 HD
ENDBRANCH  26  28
ENDBRANCH  24  26
ENDBRANCH  11  24
TORSDOF 5
