REMARK  Name = ZINC23994842
REMARK  9 active torsions:
REMARK  status: ('A' for Active; 'I' for Inactive)
REMARK    1  A    between atoms: C_1  and  C_2
REMARK    2  A    between atoms: C_3  and  C_9
REMARK    3  A    between atoms: C_4  and  C_8
REMARK    4  A    between atoms: N_5  and  C_7
REMARK    5  A    between atoms: C_9  and  N_10
REMARK    6  A    between atoms: N_10  and  C_11
REMARK    7  A    between atoms: C_11  and  C_12
REMARK    8  A    between atoms: C_12  and  C_14
REMARK    9  A    between atoms: C_12  and  C_20
REMARK                            x       y       z     vdW  Elec       q    Type
REMARK                         _______ _______ _______ _____ _____    ______ ____
ROOT
ATOM      1  C   UNL     1      -0.760   1.603   3.664  0.00  0.00    +0.065 C 
ENDROOT
BRANCH   1   2
ATOM      2  C   UNL     1       0.009   1.227   4.905  0.00  0.00    -0.014 A 
ATOM      3  C   UNL     1       0.319  -0.016   5.306  0.00  0.00    +0.088 A 
ATOM      4  N   UNL     1       1.023   0.034   6.479  0.00  0.00    -0.360 N 
ATOM      5  H   UNL     1       1.362  -0.896   6.957  0.00  0.00    +0.165 HD
ATOM      6  C   UNL     1       1.187   1.344   6.870  0.00  0.00    +0.047 A 
ATOM      7  C   UNL     1       0.564   2.149   5.899  0.00  0.00    +0.003 A 
ATOM      8  C   UNL     1       0.577   3.538   6.033  0.00  0.00    +0.010 A 
ATOM      9  C   UNL     1       1.199   4.111   7.107  0.00  0.00    +0.001 A 
ATOM     10  C   UNL     1       1.818   3.321   8.066  0.00  0.00    +0.002 A 
ATOM     11  C   UNL     1       1.810   1.947   7.957  0.00  0.00    +0.026 A 
ENDBRANCH   1   2
BRANCH   1  12
ATOM     12  C   UNL     1      -2.133   0.984   3.717  0.00  0.00    -0.039 A 
ATOM     13  C   UNL     1      -2.269  -0.390   3.785  0.00  0.00    +0.004 A 
ATOM     14  C   UNL     1      -3.529  -0.957   3.837  0.00  0.00    +0.000 A 
ATOM     15  C   UNL     1      -4.652  -0.151   3.813  0.00  0.00    +0.000 A 
ATOM     16  C   UNL     1      -4.515   1.222   3.739  0.00  0.00    +0.000 A 
ATOM     17  C   UNL     1      -3.256   1.790   3.691  0.00  0.00    +0.004 A 
ENDBRANCH   1  12
BRANCH   1  18
ATOM     18  C   UNL     1      -0.016   1.091   2.429  0.00  0.00    +0.094 C 
BRANCH  18  19
ATOM     19  N   UNL     1      -0.700   1.560   1.217  0.00  0.00    -0.311 NA
ATOM     20  H   UNL     1      -0.715   2.659   1.223  0.00  0.00    +0.122 HD
BRANCH  19  21
ATOM     21  C   UNL     1      -0.013   1.086   0.008  0.00  0.00    +0.120 C 
BRANCH  21  24
ATOM     22  C   UNL     1      -2.356  -0.417  -1.507  0.00  0.00    +0.068 C 
ATOM     23  C   UNL     1      -1.776   0.923  -1.882  0.00  0.00    +0.065 A 
ATOM     24  C   UNL     1      -0.742   1.585  -1.213  0.00  0.00    +0.010 A 
ATOM     25  C   UNL     1      -0.507   2.751  -1.859  0.00  0.00    +0.040 A 
ATOM     26  N   UNL     1      -1.367   2.826  -2.897  0.00  0.00    -0.271 N 
ATOM     27  N   UNL     1      -2.155   1.668  -2.888  0.00  0.00    -0.176 NA
ATOM     28  C   UNL     1      -1.458   3.924  -3.862  0.00  0.00    +0.172 C 
ATOM     29  C   UNL     1       0.528   3.780  -1.486  0.00  0.00    +0.065 C 
ENDBRANCH  21  24
ENDBRANCH  19  21
ENDBRANCH  18  19
ENDBRANCH   1  18
TORSDOF 6
