REMARK  Name = ZINC28783322
REMARK  5 active torsions:
REMARK  status: ('A' for Active; 'I' for Inactive)
REMARK    1  A    between atoms: C_5  and  N_7
REMARK    2  A    between atoms: C_8  and  C_10
REMARK    3  A    between atoms: C_10  and  O_11
REMARK    4  A    between atoms: O_11  and  C_12
REMARK    5  A    between atoms: C_15  and  N_19
REMARK                            x       y       z     vdW  Elec       q    Type
REMARK                         _______ _______ _______ _____ _____    ______ ____
ROOT
ATOM      1  C   UNL     1       0.003  -0.004  -0.012  0.00  0.00    +0.325 C 
ENDROOT
BRANCH   1   3
ATOM      2  N   UNL     1      -1.195   2.161   0.019  0.00  0.00    -0.282 N 
ATOM      3  C   UNL     1      -0.018   1.503   0.007  0.00  0.00    +0.255 C 
ATOM      4  O   UNL     1       1.024   2.124   0.005  0.00  0.00    -0.272 OA
ATOM      5  H   UNL     1      -2.138   1.601  -0.059  0.00  0.00    +0.155 HD
BRANCH   2  10
ATOM      6  C   UNL     1      -0.242   5.693  -0.350  0.00  0.00    +0.002 A 
ATOM      7  C   UNL     1      -1.256   6.313   0.358  0.00  0.00    +0.001 A 
ATOM      8  C   UNL     1      -2.249   5.558   0.953  0.00  0.00    +0.016 A 
ATOM      9  C   UNL     1      -2.232   4.181   0.842  0.00  0.00    +0.035 A 
ATOM     10  C   UNL     1      -1.215   3.555   0.133  0.00  0.00    +0.047 A 
ATOM     11  C   UNL     1      -0.216   4.317  -0.459  0.00  0.00    +0.024 A 
ATOM     12  I   UNL     1      -3.738   3.038   1.745  0.00  0.00    -0.042 I 
ENDBRANCH   2  10
ENDBRANCH   1   3
BRANCH   1  13
ATOM     13  O   UNL     1       1.356  -0.461  -0.029  0.00  0.00    -0.481 OA
BRANCH  13  14
ATOM     14  C   UNL     1       1.553  -1.806  -0.047  0.00  0.00    +0.140 A 
ATOM     15  C   UNL     1       0.465  -2.667  -0.048  0.00  0.00    +0.049 A 
ATOM     16  C   UNL     1       0.668  -4.034  -0.067  0.00  0.00    +0.036 A 
ATOM     17  C   UNL     1       1.953  -4.544  -0.085  0.00  0.00    +0.128 A 
ATOM     18  C   UNL     1       3.039  -3.688  -0.084  0.00  0.00    +0.056 A 
ATOM     19  C   UNL     1       2.842  -2.320  -0.071  0.00  0.00    +0.085 A 
ATOM     20 CL   UNL     1       4.206  -1.246  -0.077  0.00  0.00    -0.080 Cl
BRANCH  17  21
ATOM     21  N   UNL     1       2.166  -6.008  -0.106  0.00  0.00    +0.056 N 
ATOM     22  O   UNL     1       1.210  -6.763  -0.107  0.00  0.00    -0.126 OA
ATOM     23  O   UNL     1       3.297  -6.459  -0.121  0.00  0.00    -0.126 OA
ENDBRANCH  17  21
ENDBRANCH  13  14
ENDBRANCH   1  13
TORSDOF 5
