REMARK  Name = ZINC63234508
REMARK  9 active torsions:
REMARK  status: ('A' for Active; 'I' for Inactive)
REMARK    1  A    between atoms: C_1  and  O_2
REMARK    2  A    between atoms: O_2  and  C_3
REMARK    3  A    between atoms: C_3  and  C_5
REMARK    4  A    between atoms: C_7  and  C_14
REMARK    5  A    between atoms: C_9  and  N_11
REMARK    6  A    between atoms: N_16  and  C_17
REMARK    7  A    between atoms: C_17  and  C_18
REMARK    8  A    between atoms: C_18  and  C_20
REMARK    9  A    between atoms: C_18  and  C_27
REMARK                            x       y       z     vdW  Elec       q    Type
REMARK                         _______ _______ _______ _____ _____    ______ ____
ROOT
ATOM      1  C   UNL     1       2.694  -6.759  -4.602  0.00  0.00    +0.117 C 
ENDROOT
BRANCH   1   4
ATOM      2  C   UNL     1       1.992  -4.753  -3.409  0.00  0.00    +0.244 C 
ATOM      3  O   UNL     1       2.491  -4.087  -4.296  0.00  0.00    -0.270 OA
ATOM      4  N   UNL     1       2.040  -6.099  -3.469  0.00  0.00    -0.310 N 
ATOM      5  H   UNL     1       1.643  -6.630  -2.762  0.00  0.00    +0.149 HD
BRANCH   2   8
ATOM      6  C   UNL     1       0.658  -2.076  -1.122  0.00  0.00    +0.062 A 
ATOM      7  C   UNL     1       1.282  -2.696  -2.203  0.00  0.00    +0.028 A 
ATOM      8  C   UNL     1       1.333  -4.087  -2.266  0.00  0.00    +0.040 A 
ATOM      9  C   UNL     1       0.759  -4.851  -1.247  0.00  0.00    +0.045 A 
ATOM     10  C   UNL     1       0.142  -4.230  -0.179  0.00  0.00    +0.128 A 
ATOM     11  C   UNL     1       0.093  -2.852  -0.107  0.00  0.00    +0.047 A 
BRANCH  10  12
ATOM     12  N   UNL     1      -0.465  -5.046   0.897  0.00  0.00    +0.056 N 
ATOM     13  O   UNL     1      -0.419  -6.253   0.839  0.00  0.00    -0.126 OA
ATOM     14  O   UNL     1      -1.006  -4.506   1.834  0.00  0.00    -0.126 OA
ENDBRANCH  10  12
BRANCH   6  15
ATOM     15  C   UNL     1       0.601  -0.602  -1.046  0.00  0.00    +0.339 C 
ATOM     16  O   UNL     1       1.092   0.071  -1.930  0.00  0.00    -0.245 OA
BRANCH  15  18
ATOM     17  C   UNL     1      -0.017   1.425   0.010  0.00  0.00    +0.280 C 
ATOM     18  O   UNL     1       0.002  -0.004   0.002  0.00  0.00    -0.464 OA
ENDBRANCH  15  18
ENDBRANCH   6  15
ENDBRANCH   2   8
ENDBRANCH   1   4
BRANCH   1  19
ATOM     19  C   UNL     1       2.609  -8.277  -4.426  0.00  0.00    +0.066 C 
BRANCH  19  20
ATOM     20  C   UNL     1       3.386  -8.954  -5.525  0.00  0.00    -0.033 C 
ATOM     21  C   UNL     1       4.441  -9.787  -5.381  0.00  0.00    -0.000 A 
ATOM     22  C   UNL     1       5.155 -10.292  -4.202  0.00  0.00    +0.010 A 
ATOM     23  C   UNL     1       6.200 -11.133  -4.378  0.00  0.00    +0.001 A 
ATOM     24  C   UNL     1       6.617 -11.533  -5.655  0.00  0.00    +0.002 A 
ATOM     25  C   UNL     1       6.011 -11.112  -6.785  0.00  0.00    +0.026 A 
ATOM     26  C   UNL     1       4.901 -10.225  -6.718  0.00  0.00    +0.043 A 
ATOM     27  N   UNL     1       4.159  -9.684  -7.653  0.00  0.00    -0.380 N 
ATOM     28  C   UNL     1       3.139  -8.845  -7.013  0.00  0.00    +0.145 C 
ATOM     29  H   UNL     1       4.264  -9.818  -8.608  0.00  0.00    +0.160 HD
ENDBRANCH  19  20
BRANCH  19  30
ATOM     30  C   UNL     1       1.167  -8.710  -4.489  0.00  0.00    -0.020 A 
ATOM     31  C   UNL     1       0.422  -8.469  -5.628  0.00  0.00    +0.006 A 
ATOM     32  C   UNL     1      -0.900  -8.867  -5.686  0.00  0.00    +0.000 A 
ATOM     33  C   UNL     1      -1.479  -9.506  -4.605  0.00  0.00    +0.001 A 
ATOM     34  C   UNL     1      -0.735  -9.747  -3.466  0.00  0.00    +0.020 A 
ATOM     35  C   UNL     1       0.591  -9.354  -3.409  0.00  0.00    +0.045 A 
ATOM     36 CL   UNL     1       1.528  -9.664  -1.981  0.00  0.00    -0.083 Cl
ENDBRANCH  19  30
ENDBRANCH   1  19
TORSDOF 8
