REMARK  Name = ZINC06570535
REMARK  12 active torsions:
REMARK  status: ('A' for Active; 'I' for Inactive)
REMARK    1  A    between atoms: C_1  and  C_2
REMARK    2  A    between atoms: C_2  and  N_3
REMARK    3  A    between atoms: C_14  and  S_16
REMARK    4  A    between atoms: S_16  and  C_17
REMARK    5  A    between atoms: C_17  and  C_18
REMARK    6  A    between atoms: C_18  and  C_20
REMARK    7  A    between atoms: C_18  and  N_27
REMARK    8  A    between atoms: N_22  and  C_23
REMARK    9  A    between atoms: C_23  and  C_24
REMARK   10  A    between atoms: C_23  and  C_25
REMARK   11  A    between atoms: C_23  and  C_26
REMARK   12  A    between atoms: C_28  and  C_30
REMARK                            x       y       z     vdW  Elec       q    Type
REMARK                         _______ _______ _______ _____ _____    ______ ____
ROOT
ATOM      1  S   UNL     1      -0.914   9.139   0.059  0.00  0.00    -0.123 S 
ENDROOT
BRANCH   1  13
ATOM      2  N   UNL     1       2.180   4.106   0.002  0.00  0.00    -0.340 N 
ATOM      3  C   UNL     1       1.164   3.167   0.007  0.00  0.00    +0.050 A 
ATOM      4  C   UNL     1       1.175   1.775   0.000  0.00  0.00    +0.026 A 
ATOM      5  C   UNL     1      -0.013   1.076   0.008  0.00  0.00    +0.002 A 
ATOM      6  C   UNL     1      -1.226   1.747   0.017  0.00  0.00    +0.001 A 
ATOM      7  C   UNL     1      -1.257   3.124   0.031  0.00  0.00    +0.010 A 
ATOM      8  C   UNL     1      -0.065   3.844   0.023  0.00  0.00    +0.008 A 
ATOM      9  C   UNL     1       0.250   5.284   0.027  0.00  0.00    +0.009 A 
ATOM     10  C   UNL     1       1.649   5.386   0.014  0.00  0.00    +0.050 A 
ATOM     11  C   UNL     1       2.243   6.645   0.015  0.00  0.00    +0.027 A 
ATOM     12  C   UNL     1       1.461   7.779   0.028  0.00  0.00    +0.017 A 
ATOM     13  C   UNL     1       0.072   7.680   0.041  0.00  0.00    +0.009 A 
ATOM     14  C   UNL     1      -0.534   6.434   0.041  0.00  0.00    +0.025 A 
BRANCH   2  16
ATOM     15  C   UNL     1       4.095   3.690  -1.460  0.00  0.00    +0.027 C 
ATOM     16  C   UNL     1       3.611   3.792  -0.013  0.00  0.00    +0.119 C 
ENDBRANCH   2  16
ENDBRANCH   1  13
BRANCH   1  17
ATOM     17  C   UNL     1       0.298  10.489   0.054  0.00  0.00    +0.106 C 
BRANCH  17  18
ATOM     18  C   UNL     1      -0.434  11.832   0.069  0.00  0.00    +0.169 C 
BRANCH  18  19
ATOM     19  N   UNL     1      -1.286  11.937  -1.118  0.00  0.00    -0.303 N 
ATOM     20  C   UNL     1      -0.738  11.878  -2.348  0.00  0.00    +0.211 C 
ATOM     21  O   UNL     1       0.461  11.738  -2.472  0.00  0.00    -0.276 OA
ATOM     22  C   UNL     1      -1.614  11.986  -3.570  0.00  0.00    +0.109 C 
ATOM     23  H   UNL     1      -2.244  12.049  -1.019  0.00  0.00    +0.149 HD
ENDBRANCH  18  19
BRANCH  18  24
ATOM     24  C   UNL     1       0.573  12.953   0.065  0.00  0.00    +0.235 C 
ATOM     25  O   UNL     1       0.833  13.532  -0.969  0.00  0.00    -0.274 OA
ATOM     26  N   UNL     1       1.186  13.313   1.211  0.00  0.00    -0.309 N 
ATOM     27  H   UNL     1       0.978  12.850   2.038  0.00  0.00    +0.149 HD
BRANCH  26  28
ATOM     28  C   UNL     1       2.165  14.402   1.207  0.00  0.00    +0.026 C 
ATOM     29  C   UNL     1       1.493  15.690   0.727  0.00  0.00    +0.031 C 
ATOM     30  C   UNL     1       2.706  14.607   2.623  0.00  0.00    +0.031 C 
ATOM     31  C   UNL     1       3.319  14.048   0.267  0.00  0.00    +0.031 C 
ENDBRANCH  26  28
ENDBRANCH  18  24
ENDBRANCH  17  18
ENDBRANCH   1  17
TORSDOF 7
