REMARK  Name = ZINC39420740
REMARK  8 active torsions:
REMARK  status: ('A' for Active; 'I' for Inactive)
REMARK    1  A    between atoms: C_1  and  C_2
REMARK    2  A    between atoms: C_2  and  C_3
REMARK    3  A    between atoms: C_5  and  C_30
REMARK    4  A    between atoms: C_10  and  C_15
REMARK    5  A    between atoms: C_15  and  N_16
REMARK    6  A    between atoms: N_16  and  C_17
REMARK    7  A    between atoms: C_17  and  C_18
REMARK    8  A    between atoms: C_23  and  C_24
REMARK                            x       y       z     vdW  Elec       q    Type
REMARK                         _______ _______ _______ _____ _____    ______ ____
ROOT
ATOM      1  N   UNL     1      -1.956  -5.982  -4.383  0.00  0.00    +0.382 N 
ATOM      2  H   UNL     1      -2.076  -6.143  -3.394  0.00  0.00    -0.085 HD
ATOM      3  H   UNL     1      -2.749  -5.469  -4.738  0.00  0.00    -0.085 HD
ENDROOT
BRANCH   1   4
ATOM      4  C   UNL     1      -0.730  -5.205  -4.607  0.00  0.00    -0.047 C 
BRANCH   4   9
ATOM      5  C   UNL     1       0.718  -0.497  -1.257  0.00  0.00    +0.109 C 
ATOM      6  C   UNL     1       0.829  -2.045  -1.242  0.00  0.00    +0.023 C 
ATOM      7  C   UNL     1      -0.452  -2.413  -2.002  0.00  0.00    +0.065 C 
ATOM      8  C   UNL     1      -0.311  -3.757  -2.663  0.00  0.00    -0.015 C 
ATOM      9  C   UNL     1      -0.834  -3.882  -3.892  0.00  0.00    -0.068 C 
ATOM     10  C   UNL     1      -1.502  -2.765  -4.551  0.00  0.00    +0.003 C 
ATOM     11  C   UNL     1      -1.436  -1.494  -4.100  0.00  0.00    +0.023 C 
ATOM     12  C   UNL     1      -0.704  -1.218  -2.906  0.00  0.00    +0.043 C 
ATOM     13  N   UNL     1      -0.076  -0.182  -2.454  0.00  0.00    -0.284 NA
ATOM     14  C   UNL     1       0.805  -2.591   0.187  0.00  0.00    +0.010 C 
BRANCH   5  16
ATOM     15  C   UNL     1      -0.019   1.526   0.010  0.00  0.00    +0.006 C 
ATOM     16  C   UNL     1       0.002  -0.004   0.002  0.00  0.00    +0.024 C 
ENDBRANCH   5  16
ENDBRANCH   4   9
ENDBRANCH   1   4
BRANCH   1  17
ATOM     17  C   UNL     1      -1.854  -7.271  -5.080  0.00  0.00    -0.067 C 
BRANCH  17  18
ATOM     18  C   UNL     1      -3.131  -8.080  -4.846  0.00  0.00    +0.066 C 
ATOM     19  C   UNL     1      -3.228  -8.518  -3.398  0.00  0.00    +0.115 C 
ATOM     20  N   UNL     1      -3.227  -9.811  -3.414  0.00  0.00    -0.161 NA
ATOM     21  N   UNL     1      -3.141 -10.328  -4.702  0.00  0.00    -0.153 NA
ATOM     22  C   UNL     1      -3.082  -9.388  -5.610  0.00  0.00    +0.077 C 
BRANCH  22  23
ATOM     23  C   UNL     1      -2.988  -9.561  -7.068  0.00  0.00    -0.001 A 
ATOM     24  C   UNL     1      -2.927  -8.443  -7.907  0.00  0.00    +0.010 A 
ATOM     25  C   UNL     1      -2.839  -8.614  -9.272  0.00  0.00    +0.001 A 
ATOM     26  C   UNL     1      -2.811  -9.887  -9.814  0.00  0.00    +0.000 A 
ATOM     27  C   UNL     1      -2.871 -10.998  -8.991  0.00  0.00    +0.001 A 
ATOM     28  C   UNL     1      -2.953 -10.845  -7.623  0.00  0.00    +0.010 A 
ENDBRANCH  22  23
ENDBRANCH  17  18
ENDBRANCH   1  17
TORSDOF 6
