REMARK  Name = ZINC12346224
REMARK  5 active torsions:
REMARK  status: ('A' for Active; 'I' for Inactive)
REMARK    1  A    between atoms: C_1  and  C_2
REMARK    2  A    between atoms: C_6  and  C_8
REMARK    3  A    between atoms: N_13  and  C_16
REMARK    4  A    between atoms: C_16  and  C_17
REMARK    5  A    between atoms: C_17  and  C_18
REMARK                            x       y       z     vdW  Elec       q    Type
REMARK                         _______ _______ _______ _____ _____    ______ ____
ROOT
ATOM      1  C   UNL     1       1.624  -5.397   1.400  0.00  0.00    +0.142 C 
ATOM      2  C   UNL     1       0.785  -4.135   1.415  0.00  0.00    +0.058 C 
ATOM      3  C   UNL     1      -0.556  -4.274   1.427  0.00  0.00    +0.039 C 
ATOM      4  C   UNL     1      -1.129  -2.875   1.446  0.00  0.00    +0.159 C 
ATOM      5  N   UNL     1       0.043  -1.987   1.434  0.00  0.00    -0.292 N 
ATOM      6  C   UNL     1       1.136  -2.770   1.419  0.00  0.00    +0.247 C 
ATOM      7  O   UNL     1       2.280  -2.354   1.411  0.00  0.00    -0.270 OA
ATOM      8  N   UNL     1      -1.140  -5.509   1.425  0.00  0.00    -0.271 N 
ATOM      9  C   UNL     1      -0.448  -6.656   1.412  0.00  0.00    +0.304 C 
ATOM     10  O   UNL     1      -1.054  -7.709   1.412  0.00  0.00    -0.252 OA
ATOM     11  N   UNL     1       0.900  -6.679   1.400  0.00  0.00    -0.288 N 
ATOM     12  H   UNL     1      -2.108  -5.559   1.434  0.00  0.00    +0.156 HD
ATOM     13  H   UNL     1       1.382  -7.521   1.390  0.00  0.00    +0.151 HD
ENDROOT
BRANCH   1  19
ATOM     14  C   UNL     1       6.069  -4.516  -0.724  0.00  0.00    +0.044 C 
ATOM     15  C   UNL     1       4.626  -4.936  -0.842  0.00  0.00    -0.050 A 
ATOM     16  C   UNL     1       4.107  -5.286  -2.074  0.00  0.00    +0.003 A 
ATOM     17  C   UNL     1       2.784  -5.671  -2.182  0.00  0.00    +0.001 A 
ATOM     18  C   UNL     1       1.980  -5.707  -1.058  0.00  0.00    +0.006 A 
ATOM     19  C   UNL     1       2.500  -5.358   0.175  0.00  0.00    -0.022 A 
ATOM     20  C   UNL     1       3.822  -4.967   0.282  0.00  0.00    +0.009 A 
ENDBRANCH   1  19
BRANCH   5  21
ATOM     21  C   UNL     1       0.023  -0.522   1.442  0.00  0.00    +0.113 C 
BRANCH  21  22
ATOM     22  C   UNL     1       0.002  -0.004   0.002  0.00  0.00    +0.054 C 
BRANCH  22  23
ATOM     23  C   UNL     1      -0.018   1.503   0.010  0.00  0.00    -0.046 A 
ATOM     24  C   UNL     1      -1.225   2.178   0.020  0.00  0.00    +0.004 A 
ATOM     25  C   UNL     1      -1.244   3.560   0.032  0.00  0.00    +0.000 A 
ATOM     26  C   UNL     1      -0.056   4.267   0.025  0.00  0.00    +0.000 A 
ATOM     27  C   UNL     1       1.151   3.592   0.010  0.00  0.00    +0.000 A 
ATOM     28  C   UNL     1       1.169   2.210   0.003  0.00  0.00    +0.004 A 
ENDBRANCH  22  23
ENDBRANCH  21  22
ENDBRANCH   5  21
TORSDOF 4
