REMARK  Name = ZINC05870108
REMARK  7 active torsions:
REMARK  status: ('A' for Active; 'I' for Inactive)
REMARK    1  A    between atoms: C_1  and  C_2
REMARK    2  A    between atoms: C_2  and  C_3
REMARK    3  A    between atoms: C_3  and  C_4
REMARK    4  A    between atoms: C_4  and  C_5
REMARK    5  A    between atoms: C_12  and  N_23
REMARK    6  A    between atoms: C_13  and  C_21
REMARK    7  A    between atoms: C_18  and  C_20
REMARK                            x       y       z     vdW  Elec       q    Type
REMARK                         _______ _______ _______ _____ _____    ______ ____
ROOT
ATOM      1  C   UNL     1       1.403  -2.601  -2.405  0.00  0.00    +0.044 A 
ATOM      2  C   UNL     1       2.752  -2.933  -2.611  0.00  0.00    +0.050 A 
ATOM      3  C   UNL     1       2.887  -3.484  -3.886  0.00  0.00    +0.245 A 
ATOM      4  N   UNL     1       1.691  -3.517  -4.457  0.00  0.00    -0.135 NA
ATOM      5  N   UNL     1       0.790  -2.970  -3.606  0.00  0.00    -0.278 N 
ATOM      6  H   UNL     1      -0.181  -2.847  -3.809  0.00  0.00    +0.189 HD
ATOM      7  O   UNL     1       4.143  -3.893  -4.336  0.00  0.00    -0.421 OA
ATOM      8  C   UNL     1       5.229  -3.535  -3.601  0.00  0.00    +0.201 C 
ATOM      9  C   UNL     1       5.161  -2.965  -2.427  0.00  0.00    +0.099 C 
ATOM     10  C   UNL     1       3.944  -2.644  -1.681  0.00  0.00    +0.070 C 
ATOM     11  C   UNL     1       3.905  -1.244  -1.145  0.00  0.00    +0.048 C 
ATOM     12  C   UNL     1       3.955  -1.394   0.418  0.00  0.00    +0.161 C 
ATOM     13  O   UNL     1       3.350  -2.653   0.592  0.00  0.00    -0.376 OA
ATOM     14  C   UNL     1       3.826  -3.499  -0.401  0.00  0.00    +0.131 C 
ATOM     15  C   UNL     1       2.944  -4.763  -0.604  0.00  0.00    +0.039 C 
ENDROOT
BRANCH   8  16
ATOM     16  N   UNL     1       6.436  -3.682  -4.184  0.00  0.00    -0.328 N 
ATOM     17  H   UNL     1       7.234  -3.367  -3.732  0.00  0.00    +0.145 HD
ATOM     18  H   UNL     1       6.506  -4.103  -5.055  0.00  0.00    +0.145 HD
ENDBRANCH   8  16
BRANCH   9  19
ATOM     19  C   UNL     1       6.433  -2.655  -1.809  0.00  0.00    +0.101 C 
ATOM     20  N   UNL     1       7.432  -2.413  -1.324  0.00  0.00    -0.191 NA
ENDBRANCH   9  19
BRANCH   1  21
ATOM     21  C   UNL     1       0.739  -2.027  -1.265  0.00  0.00    +0.055 C 
BRANCH  21  22
ATOM     22  C   UNL     1      -0.771  -2.006  -1.511  0.00  0.00    +0.006 C 
BRANCH  22  24
ATOM     23  C   UNL     1      -2.995  -1.484  -0.501  0.00  0.00    +0.004 C 
ATOM     24  C   UNL     1      -1.486  -1.506  -0.255  0.00  0.00    -0.003 C 
ENDBRANCH  22  24
ENDBRANCH  21  22
ENDBRANCH   1  21
TORSDOF 5
