REMARK  Name = ZINC20286967
REMARK  8 active torsions:
REMARK  status: ('A' for Active; 'I' for Inactive)
REMARK    1  A    between atoms: C_4  and  C_7
REMARK    2  A    between atoms: N_20  and  N_21
REMARK    3  A    between atoms: C_22  and  C_24
REMARK    4  A    between atoms: C_24  and  C_25
REMARK    5  A    between atoms: C_25  and  C_26
REMARK    6  A    between atoms: N_28  and  C_29
REMARK    7  A    between atoms: C_29  and  C_30
REMARK    8  A    between atoms: C_30  and  C_31
REMARK                            x       y       z     vdW  Elec       q    Type
REMARK                         _______ _______ _______ _____ _____    ______ ____
ROOT
ATOM      1  C   UNL     1       0.740  -4.184  -0.029  0.00  0.00    +0.182 A 
ATOM      2  N   UNL     1       2.068  -4.027  -0.040  0.00  0.00    -0.206 NA
ATOM      3  C   UNL     1       2.362  -2.745  -0.035  0.00  0.00    +0.169 A 
ATOM      4  C   UNL     1       3.615  -1.980  -0.043  0.00  0.00    +0.045 A 
ATOM      5  C   UNL     1       4.861  -2.602  -0.058  0.00  0.00    +0.014 A 
ATOM      6  C   UNL     1       6.005  -1.834  -0.065  0.00  0.00    +0.001 A 
ATOM      7  C   UNL     1       5.924  -0.448  -0.057  0.00  0.00    +0.002 A 
ATOM      8  C   UNL     1       4.704   0.187  -0.042  0.00  0.00    +0.028 A 
ATOM      9  C   UNL     1       3.528  -0.569  -0.034  0.00  0.00    +0.078 A 
ATOM     10  N   UNL     1       2.309   0.021  -0.025  0.00  0.00    -0.213 NA
ATOM     11  C   UNL     1       1.202  -0.675  -0.013  0.00  0.00    +0.235 A 
ATOM     12  N   UNL     1       1.187  -2.043  -0.020  0.00  0.00    -0.180 N 
ATOM     13  N   UNL     1       0.163  -2.999  -0.016  0.00  0.00    -0.142 NA
ATOM     14  N   UNL     1       0.002  -0.004   0.002  0.00  0.00    -0.232 N 
ATOM     15  H   UNL     1      -0.943  -0.567   0.008  0.00  0.00    +0.173 HD
ENDROOT
BRANCH   1  19
ATOM     16  C   UNL     1      -1.298  -7.916  -0.033  0.00  0.00    +0.000 A 
ATOM     17  C   UNL     1      -2.020  -6.736  -0.018  0.00  0.00    +0.001 A 
ATOM     18  C   UNL     1      -1.364  -5.522  -0.017  0.00  0.00    +0.011 A 
ATOM     19  C   UNL     1       0.029  -5.486  -0.030  0.00  0.00    +0.021 A 
ATOM     20  C   UNL     1       0.752  -6.677  -0.049  0.00  0.00    +0.011 A 
ATOM     21  C   UNL     1       0.085  -7.886  -0.045  0.00  0.00    +0.001 A 
ENDBRANCH   1  19
BRANCH  14  22
ATOM     22  N   UNL     1      -0.017   1.397   0.010  0.00  0.00    -0.234 N 
ATOM     23  C   UNL     1      -1.193   2.055   0.019  0.00  0.00    +0.230 C 
ATOM     24  O   UNL     1      -2.235   1.434   0.020  0.00  0.00    -0.274 OA
ATOM     25  H   UNL     1       0.928   1.960   0.008  0.00  0.00    +0.173 HD
BRANCH  23  26
ATOM     26  C   UNL     1      -1.214   3.562   0.027  0.00  0.00    +0.106 C 
BRANCH  26  27
ATOM     27  C   UNL     1      -2.663   4.052   0.037  0.00  0.00    +0.105 C 
BRANCH  27  28
ATOM     28  C   UNL     1      -2.683   5.559   0.045  0.00  0.00    +0.213 C 
ATOM     29  O   UNL     1      -1.641   6.179   0.043  0.00  0.00    -0.276 OA
ATOM     30  N   UNL     1      -3.860   6.217   0.054  0.00  0.00    -0.315 N 
ATOM     31  H   UNL     1      -4.805   5.654   0.055  0.00  0.00    +0.149 HD
BRANCH  30  32
ATOM     32  C   UNL     1      -3.879   7.681   0.062  0.00  0.00    +0.108 C 
BRANCH  32  33
ATOM     33  C   UNL     1      -5.329   8.172   0.072  0.00  0.00    +0.049 C 
BRANCH  33  34
ATOM     34  C   UNL     1      -5.349   9.679   0.080  0.00  0.00    -0.072 C 
ATOM     35  C   UNL     1      -5.462  10.290  -1.055  0.00  0.00    -0.028 C 
ATOM     36  C   UNL     1      -5.488  11.783  -1.207  0.00  0.00    +0.027 C 
ATOM     37  C   UNL     1      -5.788  12.445   0.140  0.00  0.00    +0.004 C 
ATOM     38  C   UNL     1      -4.853  11.843   1.196  0.00  0.00    +0.005 C 
ATOM     39  C   UNL     1      -5.243  10.377   1.404  0.00  0.00    +0.030 C 
ENDBRANCH  33  34
ENDBRANCH  32  33
ENDBRANCH  30  32
ENDBRANCH  27  28
ENDBRANCH  26  27
ENDBRANCH  23  26
ENDBRANCH  14  22
TORSDOF 8
