REMARK  Name = ZINC34898183
REMARK  9 active torsions:
REMARK  status: ('A' for Active; 'I' for Inactive)
REMARK    1  A    between atoms: C_4  and  C_7
REMARK    2  A    between atoms: C_7  and  N_8
REMARK    3  A    between atoms: N_8  and  C_9
REMARK    4  A    between atoms: C_9  and  C_10
REMARK    5  A    between atoms: C_10  and  C_11
REMARK    6  A    between atoms: C_21  and  C_23
REMARK    7  A    between atoms: C_23  and  N_24
REMARK    8  A    between atoms: N_24  and  C_25
REMARK    9  A    between atoms: N_30  and  C_31
REMARK                            x       y       z     vdW  Elec       q    Type
REMARK                         _______ _______ _______ _____ _____    ______ ____
ROOT
ATOM      1  N   UNL     1       4.307  -0.882   1.282  0.00  0.00    -0.296 N 
ATOM      2  C   UNL     1       4.924   0.150   1.890  0.00  0.00    +0.233 C 
ATOM      3  O   UNL     1       5.329   0.030   3.026  0.00  0.00    -0.274 OA
ENDROOT
BRANCH   1   4
ATOM      4  C   UNL     1       3.902  -0.771  -0.122  0.00  0.00    +0.143 C 
BRANCH   4   8
ATOM      5  C   UNL     1      -0.166   0.516  -0.335  0.00  0.00    +0.000 A 
ATOM      6  C   UNL     1       0.858   1.440  -0.435  0.00  0.00    +0.000 A 
ATOM      7  C   UNL     1       2.174   1.024  -0.366  0.00  0.00    +0.005 A 
ATOM      8  C   UNL     1       2.467  -0.317  -0.196  0.00  0.00    -0.030 A 
ATOM      9  C   UNL     1       1.444  -1.240  -0.095  0.00  0.00    +0.005 A 
ATOM     10  C   UNL     1       0.128  -0.824  -0.166  0.00  0.00    +0.000 A 
ENDBRANCH   4   8
ENDBRANCH   1   4
BRANCH   1  11
ATOM     11  C   UNL     1       4.041  -2.117   2.025  0.00  0.00    +0.113 C 
BRANCH  11  12
ATOM     12  C   UNL     1       5.228  -3.070   1.873  0.00  0.00    +0.056 C 
BRANCH  12  13
ATOM     13  C   UNL     1       4.954  -4.339   2.637  0.00  0.00    -0.021 A 
ATOM     14  C   UNL     1       5.343  -4.616   3.891  0.00  0.00    +0.087 A 
ATOM     15  N   UNL     1       4.912  -5.864   4.249  0.00  0.00    -0.360 N 
ATOM     16  H   UNL     1       5.072  -6.284   5.109  0.00  0.00    +0.165 HD
ATOM     17  C   UNL     1       4.217  -6.436   3.207  0.00  0.00    +0.047 A 
ATOM     18  C   UNL     1       4.208  -5.503   2.153  0.00  0.00    +0.003 A 
ATOM     19  C   UNL     1       3.562  -5.813   0.955  0.00  0.00    +0.010 A 
ATOM     20  C   UNL     1       2.938  -7.021   0.813  0.00  0.00    +0.001 A 
ATOM     21  C   UNL     1       2.942  -7.942   1.850  0.00  0.00    +0.002 A 
ATOM     22  C   UNL     1       3.581  -7.661   3.038  0.00  0.00    +0.026 A 
ENDBRANCH  12  13
ENDBRANCH  11  12
ENDBRANCH   1  11
BRANCH   2  23
ATOM     23  C   UNL     1       5.110   1.454   1.157  0.00  0.00    +0.205 C 
BRANCH  23  24
ATOM     24  N   UNL     1       5.811   2.405   2.023  0.00  0.00    -0.274 N 
ATOM     25  C   UNL     1       5.109   3.221   2.834  0.00  0.00    +0.303 C 
ATOM     26  O   UNL     1       3.902   3.106   2.916  0.00  0.00    -0.253 OA
ATOM     27  N   UNL     1       5.747   4.165   3.556  0.00  0.00    -0.294 N 
ATOM     28  H   UNL     1       6.699   4.304   3.438  0.00  0.00    +0.151 HD
BRANCH  27  29
ATOM     29  C   UNL     1       5.000   4.979   4.518  0.00  0.00    +0.037 C 
ATOM     30  C   UNL     1       3.901   5.752   3.788  0.00  0.00    +0.029 C 
ATOM     31  C   UNL     1       3.121   6.603   4.793  0.00  0.00    -0.008 C 
ATOM     32  C   UNL     1       4.073   7.589   5.472  0.00  0.00    +0.007 C 
ATOM     33  C   UNL     1       5.173   6.816   6.202  0.00  0.00    -0.008 C 
ATOM     34  C   UNL     1       5.952   5.966   5.197  0.00  0.00    +0.029 C 
ATOM     35  C   UNL     1       4.542   5.907   7.259  0.00  0.00    +0.007 C 
ATOM     36  C   UNL     1       3.590   4.920   6.580  0.00  0.00    -0.008 C 
ATOM     37  C   UNL     1       2.490   5.693   5.849  0.00  0.00    +0.007 C 
ATOM     38  C   UNL     1       4.369   4.070   5.574  0.00  0.00    +0.029 C 
ENDBRANCH  27  29
BRANCH  24  39
ATOM     39  C   UNL     1       7.274   2.469   2.007  0.00  0.00    +0.078 C 
ATOM     40  C   UNL     1       8.000   1.762   0.861  0.00  0.00    +0.024 C 
ATOM     41  C   UNL     1       8.041   1.172   2.271  0.00  0.00    +0.024 C 
ENDBRANCH  24  39
ENDBRANCH  23  24
ENDBRANCH   2  23
TORSDOF 9
