REMARK  Name = ZINC40701953
REMARK  13 active torsions:
REMARK  status: ('A' for Active; 'I' for Inactive)
REMARK    1  A    between atoms: C_1  and  C_2
REMARK    2  A    between atoms: C_2  and  N_3
REMARK    3  A    between atoms: N_3  and  C_4
REMARK    4  A    between atoms: C_15  and  N_29
REMARK    5  A    between atoms: C_16  and  N_20
REMARK    6  A    between atoms: N_20  and  C_21
REMARK    7  A    between atoms: N_20  and  C_25
REMARK    8  A    between atoms: C_21  and  C_22
REMARK    9  A    between atoms: C_22  and  C_23
REMARK   10  A    between atoms: C_22  and  C_24
REMARK   11  A    between atoms: C_25  and  C_26
REMARK   12  A    between atoms: C_26  and  C_27
REMARK   13  A    between atoms: C_26  and  C_28
REMARK                            x       y       z     vdW  Elec       q    Type
REMARK                         _______ _______ _______ _____ _____    ______ ____
ROOT
ATOM      1  N   UNL     1      -0.477  -0.346   0.257  0.00  0.00    -0.285 N 
ATOM      2  C   UNL     1      -1.255  -0.613   1.379  0.00  0.00    +0.129 A 
ATOM      3  C   UNL     1      -0.791  -0.289   2.656  0.00  0.00    +0.104 A 
ATOM      4  C   UNL     1      -1.611  -0.578   3.748  0.00  0.00    +0.147 A 
ATOM      5  N   UNL     1      -2.795  -1.147   3.532  0.00  0.00    -0.221 NA
ATOM      6  C   UNL     1      -3.195  -1.436   2.310  0.00  0.00    +0.200 A 
ATOM      7  N   UNL     1      -2.454  -1.175   1.252  0.00  0.00    -0.332 N 
ATOM      8  H   UNL     1      -2.786  -1.399   0.369  0.00  0.00    +0.168 HD
ENDROOT
BRANCH   1   9
ATOM      9  C   UNL     1       0.336  -1.343  -0.280  0.00  0.00    +0.043 A 
ATOM     10  C   UNL     1       1.635  -1.492   0.159  0.00  0.00    +0.024 A 
ATOM     11  C   UNL     1       2.455  -2.483  -0.370  0.00  0.00    +0.002 A 
ATOM     12  C   UNL     1       2.001  -3.332  -1.334  0.00  0.00    +0.008 A 
ATOM     13  C   UNL     1       0.683  -3.213  -1.809  0.00  0.00    -0.016 A 
ATOM     14  C   UNL     1      -0.164  -2.212  -1.274  0.00  0.00    +0.003 A 
ATOM     15  C   UNL     1      -1.481  -2.098  -1.745  0.00  0.00    +0.010 A 
ATOM     16  C   UNL     1      -1.929  -2.953  -2.705  0.00  0.00    +0.001 A 
ATOM     17  C   UNL     1      -1.099  -3.943  -3.228  0.00  0.00    +0.001 A 
ATOM     18  C   UNL     1       0.188  -4.074  -2.803  0.00  0.00    +0.008 A 
ENDBRANCH   1   9
BRANCH   3  19
ATOM     19  N   UNL     1       0.466   0.310   2.836  0.00  0.00    -0.353 N 
ATOM     20  H   UNL     1       0.995   0.569   2.066  0.00  0.00    +0.143 HD
ATOM     21  H   UNL     1       0.805   0.464   3.732  0.00  0.00    +0.143 HD
ENDBRANCH   3  19
BRANCH   1  23
ATOM     22  C   UNL     1      -1.531   0.985  -1.504  0.00  0.00    +0.025 C 
ATOM     23  C   UNL     1      -0.514   0.982  -0.360  0.00  0.00    +0.109 C 
ENDBRANCH   1  23
BRANCH   4  24
ATOM     24  N   UNL     1      -1.198  -0.278   5.040  0.00  0.00    -0.313 N 
BRANCH  24  25
ATOM     25  C   UNL     1      -1.388   1.073   5.574  0.00  0.00    +0.109 C 
BRANCH  25  26
ATOM     26  C   UNL     1      -2.685   1.124   6.383  0.00  0.00    +0.000 C 
ATOM     27  C   UNL     1      -2.831   2.505   7.027  0.00  0.00    +0.009 C 
ATOM     28  C   UNL     1      -3.875   0.866   5.457  0.00  0.00    +0.009 C 
ENDBRANCH  25  26
ENDBRANCH  24  25
BRANCH  24  29
ATOM     29  C   UNL     1      -0.573  -1.312   5.868  0.00  0.00    +0.109 C 
BRANCH  29  30
ATOM     30  C   UNL     1       0.933  -1.339   5.600  0.00  0.00    +0.000 C 
ATOM     31  C   UNL     1       1.557  -0.019   6.059  0.00  0.00    +0.009 C 
ATOM     32  C   UNL     1       1.568  -2.499   6.370  0.00  0.00    +0.009 C 
ENDBRANCH  29  30
ENDBRANCH  24  29
ENDBRANCH   4  24
TORSDOF 8
