REMARK  Name = ZINC13350882
REMARK  7 active torsions:
REMARK  status: ('A' for Active; 'I' for Inactive)
REMARK    1  A    between atoms: C_1  and  C_2
REMARK    2  A    between atoms: C_2  and  O_3
REMARK    3  A    between atoms: O_3  and  C_4
REMARK    4  A    between atoms: C_6  and  C_12
REMARK    5  A    between atoms: C_9  and  O_10
REMARK    6  A    between atoms: C_25  and  C_26
REMARK    7  A    between atoms: C_28  and  N_49
REMARK                            x       y       z     vdW  Elec       q    Type
REMARK                         _______ _______ _______ _____ _____    ______ ____
ROOT
ATOM      1  C   UNL     1       0.072   8.014   0.290  0.00  0.00    +0.012 C 
ATOM      2  C   UNL     1      -1.108   7.373   0.217  0.00  0.00    -0.038 C 
ATOM      3  C   UNL     1      -2.420   8.131   0.206  0.00  0.00    -0.041 C 
ATOM      4  C   UNL     1      -3.680   6.088   0.554  0.00  0.00    -0.040 C 
ATOM      5  C   UNL     1      -2.436   5.277   0.316  0.00  0.00    -0.024 A 
ATOM      6  C   UNL     1      -1.183   5.896   0.143  0.00  0.00    +0.068 A 
ATOM      7  N   UNL     1      -0.082   5.202  -0.076  0.00  0.00    -0.247 NA
ATOM      8  C   UNL     1      -0.078   3.870  -0.146  0.00  0.00    +0.072 A 
ATOM      9  C   UNL     1       1.113   3.158  -0.382  0.00  0.00    +0.028 A 
ATOM     10  C   UNL     1       1.085   1.799  -0.446  0.00  0.00    +0.002 A 
ATOM     11  C   UNL     1      -0.106   1.095  -0.282  0.00  0.00    +0.001 A 
ATOM     12  C   UNL     1      -1.280   1.752  -0.058  0.00  0.00    +0.011 A 
ATOM     13  C   UNL     1      -1.287   3.148   0.019  0.00  0.00    +0.015 A 
ATOM     14  C   UNL     1      -2.523   3.894   0.262  0.00  0.00    +0.076 A 
ATOM     15  C   UNL     1      -4.574   8.201   1.317  0.00  0.00    -0.095 C 
ATOM     16  N   UNL     1      -3.342   7.410   1.116  0.00  0.00    +0.383 N 
ATOM     17  H   UNL     1      -2.879   7.277   2.022  0.00  0.00    -0.081 HD
ENDROOT
BRANCH   1  20
ATOM     18  C   UNL     1      -0.755  11.540  -0.696  0.00  0.00    +0.164 A 
ATOM     19  C   UNL     1      -0.801  10.161  -0.612  0.00  0.00    +0.057 A 
ATOM     20  C   UNL     1       0.120   9.482   0.192  0.00  0.00    -0.020 A 
ATOM     21  C   UNL     1       1.091  10.200   0.897  0.00  0.00    +0.031 A 
ATOM     22  C   UNL     1       1.133  11.576   0.803  0.00  0.00    +0.087 A 
ATOM     23  C   UNL     1       0.215  12.250   0.009  0.00  0.00    +0.177 A 
ATOM     24 CL   UNL     1       2.339  12.467   1.678  0.00  0.00    -0.080 Cl
BRANCH  23  25
ATOM     25  O   UNL     1       0.261  13.605  -0.081  0.00  0.00    -0.502 OA
ATOM     26  H   UNL     1       0.823  13.933  -0.796  0.00  0.00    +0.292 HD
ENDBRANCH  23  25
BRANCH  18  27
ATOM     27  O   UNL     1      -1.653  12.204  -1.472  0.00  0.00    -0.489 OA
BRANCH  27  29
ATOM     28  C   UNL     1      -3.536  12.328  -2.982  0.00  0.00    +0.048 C 
ATOM     29  C   UNL     1      -2.620  11.413  -2.167  0.00  0.00    +0.226 C 
ENDBRANCH  27  29
ENDBRANCH  18  27
ENDBRANCH   1  20
BRANCH  14  30
ATOM     30  C   UNL     1      -3.815   3.200   0.443  0.00  0.00    +0.387 C 
ATOM     31  O   UNL     1      -4.173   2.863   1.554  0.00  0.00    -0.241 OA
ATOM     32  O   UNL     1      -4.596   2.940  -0.624  0.00  0.00    -0.241 OA
ENDBRANCH  14  30
TORSDOF 5
