REMARK  Name = ZINC63511990
REMARK  8 active torsions:
REMARK  status: ('A' for Active; 'I' for Inactive)
REMARK    1  A    between atoms: C_1  and  C_2
REMARK    2  A    between atoms: C_4  and  C_7
REMARK    3  A    between atoms: C_7  and  N_14
REMARK    4  A    between atoms: N_14  and  C_15
REMARK    5  A    between atoms: C_15  and  C_16
REMARK    6  A    between atoms: N_18  and  C_19
REMARK    7  A    between atoms: C_19  and  C_20
REMARK    8  A    between atoms: C_19  and  C_21
REMARK                            x       y       z     vdW  Elec       q    Type
REMARK                         _______ _______ _______ _____ _____    ______ ____
ROOT
ATOM      1  N   UNL     1      -2.480  -3.163   1.155  0.00  0.00    +0.393 N 
ATOM      2  H   UNL     1      -3.095  -2.366   1.223  0.00  0.00    -0.084 HD
ATOM      3  H   UNL     1      -3.028  -4.001   1.028  0.00  0.00    -0.084 HD
ENDROOT
BRANCH   1   4
ATOM      4  C   UNL     1      -1.577  -2.990   0.010  0.00  0.00    -0.003 C 
ATOM      5  C   UNL     1      -2.387  -3.036  -1.257  0.00  0.00    -0.005 C 
ATOM      6  C   UNL     1      -3.655  -3.876  -0.998  0.00  0.00    -0.001 C 
ATOM      7  C   UNL     1      -3.394  -5.307  -1.058  0.00  0.00    -0.000 C 
ATOM      8  C   UNL     1      -2.387  -5.767   0.016  0.00  0.00    -0.000 C 
ATOM      9  C   UNL     1      -0.997  -5.445  -0.462  0.00  0.00    -0.001 C 
ATOM     10  C   UNL     1      -0.494  -4.085   0.058  0.00  0.00    -0.005 C 
BRANCH   4  14
ATOM     11  C   UNL     1      -1.002   1.972   0.388  0.00  0.00    +0.112 C 
ATOM     12  C   UNL     1      -0.678   0.504   0.278  0.00  0.00    +0.224 A 
ATOM     13  N   UNL     1      -1.545  -0.467   0.201  0.00  0.00    -0.198 NA
ATOM     14  C   UNL     1      -0.912  -1.642   0.114  0.00  0.00    +0.161 A 
ATOM     15  N   UNL     1       0.373  -1.431   0.135  0.00  0.00    -0.063 NA
ATOM     16  O   UNL     1       0.551  -0.026   0.236  0.00  0.00    -0.338 OA
ENDBRANCH   4  14
ENDBRANCH   1   4
BRANCH   1  17
ATOM     17  C   UNL     1      -1.690  -3.278   2.389  0.00  0.00    +0.016 C 
BRANCH  17  18
ATOM     18  C   UNL     1      -2.616  -3.308   3.577  0.00  0.00    +0.196 C 
ATOM     19  O   UNL     1      -3.816  -3.241   3.413  0.00  0.00    -0.278 OA
ATOM     20  N   UNL     1      -2.111  -3.411   4.823  0.00  0.00    -0.310 N 
ATOM     21  H   UNL     1      -1.151  -3.465   4.954  0.00  0.00    +0.149 HD
BRANCH  20  22
ATOM     22  C   UNL     1      -3.011  -3.440   5.978  0.00  0.00    +0.101 C 
ATOM     23  C   UNL     1      -3.354  -2.008   6.393  0.00  0.00    +0.033 C 
BRANCH  22  24
ATOM     24  C   UNL     1      -2.334  -4.146   7.124  0.00  0.00    -0.009 A 
ATOM     25  C   UNL     1      -0.954  -4.181   7.197  0.00  0.00    +0.007 A 
ATOM     26  C   UNL     1      -0.333  -4.829   8.248  0.00  0.00    +0.000 A 
ATOM     27  C   UNL     1      -1.091  -5.443   9.228  0.00  0.00    +0.001 A 
ATOM     28  C   UNL     1      -2.471  -5.408   9.157  0.00  0.00    +0.020 A 
ATOM     29  C   UNL     1      -3.093  -4.755   8.107  0.00  0.00    +0.046 A 
ATOM     30 CL   UNL     1      -4.826  -4.706   8.021  0.00  0.00    -0.083 Cl
ENDBRANCH  22  24
ENDBRANCH  20  22
ENDBRANCH  17  18
ENDBRANCH   1  17
TORSDOF 6
