REMARK  Name = ZINC29001062
REMARK  9 active torsions:
REMARK  status: ('A' for Active; 'I' for Inactive)
REMARK    1  A    between atoms: C_1  and  C_2
REMARK    2  A    between atoms: C_2  and  C_3
REMARK    3  A    between atoms: C_3  and  N_4
REMARK    4  A    between atoms: N_4  and  C_5
REMARK    5  A    between atoms: C_5  and  N_7
REMARK    6  A    between atoms: N_7  and  N_8
REMARK    7  A    between atoms: C_9  and  C_11
REMARK    8  A    between atoms: N_14  and  C_16
REMARK    9  A    between atoms: C_19  and  C_22
REMARK                            x       y       z     vdW  Elec       q    Type
REMARK                         _______ _______ _______ _____ _____    ______ ____
ROOT
ATOM      1  C   UNL     1      -3.862  -0.487  -0.394  0.00  0.00    +0.152 A 
ATOM      2  C   UNL     1      -4.495   0.476   0.425  0.00  0.00    +0.006 A 
ATOM      3  C   UNL     1      -3.563   1.424   0.666  0.00  0.00    +0.049 A 
ATOM      4  N   UNL     1      -2.429   1.040   0.019  0.00  0.00    -0.236 N 
ATOM      5  N   UNL     1      -2.627  -0.071  -0.595  0.00  0.00    -0.161 NA
ATOM      6  C   UNL     1      -4.140   2.513   1.542  0.00  0.00    +0.056 C 
ATOM      7  C   UNL     1      -5.671   2.327   1.455  0.00  0.00    +0.011 C 
ATOM      8  C   UNL     1      -5.793   0.826   1.111  0.00  0.00    +0.040 C 
ENDROOT
BRANCH   4   9
ATOM      9  C   UNL     1      -1.224   1.754   0.017  0.00  0.00    +0.066 A 
ATOM     10  C   UNL     1      -0.013   1.076   0.008  0.00  0.00    +0.028 A 
ATOM     11  C   UNL     1       1.174   1.783   0.000  0.00  0.00    +0.005 A 
ATOM     12  C   UNL     1       1.156   3.166   0.008  0.00  0.00    -0.050 A 
ATOM     13  C   UNL     1      -0.049   3.845   0.023  0.00  0.00    +0.005 A 
ATOM     14  C   UNL     1      -1.239   3.143   0.031  0.00  0.00    +0.028 A 
ATOM     15  C   UNL     1       2.452   3.935  -0.001  0.00  0.00    +0.044 C 
ENDBRANCH   4   9
BRANCH   1  17
ATOM     16  N   UNL     1      -3.743  -2.554  -1.699  0.00  0.00    -0.230 N 
ATOM     17  C   UNL     1      -4.471  -1.723  -0.927  0.00  0.00    +0.280 C 
ATOM     18  O   UNL     1      -5.628  -1.990  -0.668  0.00  0.00    -0.267 OA
ATOM     19  H   UNL     1      -2.696  -2.312  -1.932  0.00  0.00    +0.173 HD
BRANCH  16  20
ATOM     20  N   UNL     1      -4.320  -3.726  -2.204  0.00  0.00    -0.246 N 
ATOM     21  H   UNL     1      -5.367  -3.968  -1.971  0.00  0.00    +0.172 HD
BRANCH  20  22
ATOM     22  C   UNL     1      -3.592  -4.557  -2.977  0.00  0.00    +0.147 C 
ATOM     23  S   UNL     1      -4.298  -5.989  -3.595  0.00  0.00    -0.017 S 
BRANCH  22  24
ATOM     24  N   UNL     1      -2.309  -4.260  -3.263  0.00  0.00    -0.325 N 
ATOM     25  H   UNL     1      -1.856  -3.340  -2.866  0.00  0.00    +0.148 HD
BRANCH  24  26
ATOM     26  C   UNL     1      -1.518  -5.163  -4.102  0.00  0.00    +0.103 C 
BRANCH  26  28
ATOM     27  C   UNL     1       0.719  -5.541  -5.148  0.00  0.00    +0.005 C 
ATOM     28  C   UNL     1      -0.107  -4.598  -4.271  0.00  0.00    +0.015 C 
ENDBRANCH  26  28
ENDBRANCH  24  26
ENDBRANCH  22  24
ENDBRANCH  20  22
ENDBRANCH  16  20
ENDBRANCH   1  17
TORSDOF 7
