REMARK  Name = ZINC07496292
REMARK  4 active torsions:
REMARK  status: ('A' for Active; 'I' for Inactive)
REMARK    1  A    between atoms: C_1  and  C_2
REMARK    2  A    between atoms: C_6  and  N_8
REMARK    3  A    between atoms: C_23  and  C_25
REMARK    4  A    between atoms: C_29  and  O_31
REMARK                            x       y       z     vdW  Elec       q    Type
REMARK                         _______ _______ _______ _____ _____    ______ ____
ROOT
ATOM      1  N   UNL     1      -1.004   1.895  -0.044  0.00  0.00    -0.202 N 
ATOM      2  C   UNL     1      -0.679   3.195  -0.040  0.00  0.00    +0.257 C 
ATOM      3  O   UNL     1      -1.475   4.114  -0.016  0.00  0.00    -0.269 OA
ATOM      4  C   UNL     1       0.741   3.341  -0.072  0.00  0.00    +0.058 C 
ATOM      5  C   UNL     1       1.276   2.106  -0.020  0.00  0.00    +0.086 C 
ATOM      6  C   UNL     1       0.118   1.156  -0.040  0.00  0.00    +0.265 C 
ATOM      7  O   UNL     1       0.181  -0.056  -0.055  0.00  0.00    -0.269 OA
ATOM      8  S   UNL     1       2.950   1.590   0.105  0.00  0.00    -0.082 S 
ATOM      9  C   UNL     1       3.749   2.639  -1.061  0.00  0.00    +0.034 A 
ATOM     10  C   UNL     1       4.497   2.088  -2.091  0.00  0.00    +0.017 A 
ATOM     11  C   UNL     1       5.265   2.909  -2.896  0.00  0.00    +0.001 A 
ATOM     12  C   UNL     1       5.281   4.274  -2.672  0.00  0.00    +0.002 A 
ATOM     13  C   UNL     1       4.500   4.829  -1.678  0.00  0.00    +0.024 A 
ATOM     14  C   UNL     1       3.692   4.017  -0.884  0.00  0.00    +0.042 A 
ATOM     15  N   UNL     1       2.846   4.608   0.036  0.00  0.00    -0.332 N 
ATOM     16  C   UNL     1       1.418   4.680  -0.166  0.00  0.00    +0.137 C 
ATOM     17  H   UNL     1       3.224   4.986   0.845  0.00  0.00    +0.147 HD
ENDROOT
BRANCH   1  23
ATOM     18  C   UNL     1      -4.041  -1.972  -0.051  0.00  0.00    +0.044 C 
ATOM     19  C   UNL     1      -3.810  -0.483  -0.052  0.00  0.00    -0.049 A 
ATOM     20  C   UNL     1      -4.888   0.383  -0.055  0.00  0.00    +0.003 A 
ATOM     21  C   UNL     1      -4.680   1.750  -0.056  0.00  0.00    +0.002 A 
ATOM     22  C   UNL     1      -3.393   2.254  -0.052  0.00  0.00    +0.024 A 
ATOM     23  C   UNL     1      -2.309   1.387  -0.048  0.00  0.00    +0.045 A 
ATOM     24  C   UNL     1      -2.522   0.015  -0.053  0.00  0.00    +0.027 A 
ENDBRANCH   1  23
BRANCH  16  25
ATOM     25  C   UNL     1       1.153   5.262  -1.531  0.00  0.00    -0.019 A 
ATOM     26  C   UNL     1       1.615   4.611  -2.661  0.00  0.00    +0.006 A 
ATOM     27  C   UNL     1       1.373   5.142  -3.914  0.00  0.00    +0.004 A 
ATOM     28  C   UNL     1       0.669   6.324  -4.041  0.00  0.00    +0.045 A 
ATOM     29  C   UNL     1       0.205   6.979  -2.909  0.00  0.00    +0.117 A 
ATOM     30  C   UNL     1       0.445   6.441  -1.653  0.00  0.00    +0.051 A 
BRANCH  29  31
ATOM     31  O   UNL     1      -0.488   8.142  -3.031  0.00  0.00    -0.507 OA
ATOM     32  H   UNL     1      -1.444   8.023  -3.113  0.00  0.00    +0.292 HD
ENDBRANCH  29  31
ENDBRANCH  16  25
TORSDOF 3
