REMARK  Name = ZINC59304965
REMARK  4 active torsions:
REMARK  status: ('A' for Active; 'I' for Inactive)
REMARK    1  A    between atoms: C_8  and  C_10
REMARK    2  A    between atoms: N_12  and  N_13
REMARK    3  A    between atoms: C_14  and  C_15
REMARK    4  A    between atoms: C_18  and  C_20
REMARK                            x       y       z     vdW  Elec       q    Type
REMARK                         _______ _______ _______ _____ _____    ______ ____
ROOT
ATOM      1  N   UNL     1       5.930  -4.379  -0.078  0.00  0.00    -0.184 NA
ATOM      2  C   UNL     1       7.228  -4.281  -0.090  0.00  0.00    +0.176 C 
ENDROOT
BRANCH   2   3
ATOM      3  C   UNL     1       8.053  -5.490  -0.104  0.00  0.00    +0.148 A 
ATOM      4  C   UNL     1       9.430  -5.530  -0.112  0.00  0.00    +0.051 A 
ATOM      5  C   UNL     1       9.796  -6.882  -0.125  0.00  0.00    +0.050 A 
ATOM      6  C   UNL     1       8.643  -7.609  -0.124  0.00  0.00    +0.136 A 
ATOM      7  O   UNL     1       7.598  -6.760  -0.106  0.00  0.00    -0.454 OA
BRANCH   6   8
ATOM      8  C   UNL     1       8.554  -9.082  -0.136  0.00  0.00    +0.018 A 
ATOM      9  C   UNL     1       9.717  -9.855  -0.143  0.00  0.00    +0.011 A 
ATOM     10  C   UNL     1       9.628 -11.232  -0.154  0.00  0.00    +0.002 A 
ATOM     11  C   UNL     1       8.389 -11.848  -0.158  0.00  0.00    +0.015 A 
ATOM     12  C   UNL     1       7.231 -11.088  -0.151  0.00  0.00    +0.019 A 
ATOM     13  C   UNL     1       7.306  -9.710  -0.135  0.00  0.00    +0.026 A 
ATOM     14 BR   UNL     1       5.543 -11.941  -0.156  0.00  0.00    -0.050 Br
ENDBRANCH   6   8
ENDBRANCH   2   3
BRANCH   1  17
ATOM     15  C   UNL     1       3.796  -3.323  -0.052  0.00  0.00    +0.299 C 
ATOM     16  O   UNL     1       3.268  -4.420  -0.053  0.00  0.00    -0.265 OA
ATOM     17  N   UNL     1       5.140  -3.222  -0.064  0.00  0.00    -0.200 N 
ATOM     18  H   UNL     1       5.560  -2.348  -0.063  0.00  0.00    +0.178 HD
BRANCH  15  26
ATOM     19  C   UNL     1      -0.017   1.362   0.009  0.00  0.00    +0.001 A 
ATOM     20  C   UNL     1       1.171   2.082   0.002  0.00  0.00    +0.004 A 
ATOM     21  C   UNL     1       2.387   1.434  -0.013  0.00  0.00    +0.047 A 
ATOM     22  C   UNL     1       2.431   0.045  -0.021  0.00  0.00    +0.136 A 
ATOM     23  C   UNL     1       1.225  -0.680  -0.013  0.00  0.00    +0.021 A 
ATOM     24  C   UNL     1       0.002  -0.004   0.002  0.00  0.00    +0.011 A 
ATOM     25  C   UNL     1       1.609  -2.091  -0.024  0.00  0.00    +0.063 A 
ATOM     26  C   UNL     1       2.968  -2.110  -0.037  0.00  0.00    +0.192 A 
ATOM     27  O   UNL     1       3.442  -0.847  -0.035  0.00  0.00    -0.450 OA
ENDBRANCH  15  26
ENDBRANCH   1  17
TORSDOF 4
