REMARK  Name = ZINC39663423
REMARK  8 active torsions:
REMARK  status: ('A' for Active; 'I' for Inactive)
REMARK    1  A    between atoms: C_4  and  C_6
REMARK    2  A    between atoms: C_6  and  C_7
REMARK    3  A    between atoms: C_7  and  C_8
REMARK    4  A    between atoms: C_12  and  C_21
REMARK    5  A    between atoms: N_23  and  C_24
REMARK    6  A    between atoms: C_24  and  C_25
REMARK    7  A    between atoms: C_25  and  C_26
REMARK    8  A    between atoms: C_26  and  C_27
REMARK                            x       y       z     vdW  Elec       q    Type
REMARK                         _______ _______ _______ _____ _____    ______ ____
ROOT
ATOM      1  C   UNL     1       0.290  -3.465  -2.909  0.00  0.00    +0.216 C 
ATOM      2  O   UNL     1       0.547  -3.014  -4.006  0.00  0.00    -0.276 OA
ATOM      3  N   UNL     1      -0.296  -4.673  -2.798  0.00  0.00    -0.300 N 
ATOM      4  C   UNL     1      -0.690  -5.380  -1.557  0.00  0.00    +0.121 C 
ATOM      5  C   UNL     1      -2.045  -6.041  -1.897  0.00  0.00    +0.100 C 
ATOM      6  C   UNL     1      -2.040  -6.180  -3.429  0.00  0.00    -0.004 C 
ATOM      7  C   UNL     1      -0.699  -5.592  -3.890  0.00  0.00    +0.115 C 
ATOM      8  C   UNL     1      -3.194  -5.387  -4.035  0.00  0.00    -0.010 C 
ATOM      9  C   UNL     1      -3.202  -5.587  -5.553  0.00  0.00    -0.082 C 
ATOM     10  N   UNL     1      -3.349  -7.015  -5.859  0.00  0.00    +0.379 N 
ATOM     11  C   UNL     1      -2.189  -7.759  -5.353  0.00  0.00    -0.082 C 
ATOM     12  C   UNL     1      -2.138  -7.650  -3.826  0.00  0.00    -0.010 C 
ATOM     13  H   UNL     1      -4.189  -7.366  -5.423  0.00  0.00    -0.086 HD
ATOM     14  H   UNL     1      -3.416  -7.139  -6.858  0.00  0.00    -0.086 HD
ENDROOT
BRANCH   5  15
ATOM     15  C   UNL     1      -2.147  -7.395  -1.245  0.00  0.00    +0.218 C 
ATOM     16  O   UNL     1      -1.147  -8.055  -1.058  0.00  0.00    -0.275 OA
ATOM     17  N   UNL     1      -3.350  -7.873  -0.869  0.00  0.00    -0.315 N 
ATOM     18  H   UNL     1      -4.150  -7.346  -1.018  0.00  0.00    +0.149 HD
BRANCH  17  19
ATOM     19  C   UNL     1      -3.449  -9.190  -0.235  0.00  0.00    +0.104 C 
BRANCH  19  20
ATOM     20  C   UNL     1      -4.914  -9.491   0.090  0.00  0.00    +0.030 C 
BRANCH  20  21
ATOM     21  C   UNL     1      -5.018 -10.866   0.752  0.00  0.00    +0.126 C 
BRANCH  21  22
ATOM     22  C   UNL     1      -6.460 -11.162   1.072  0.00  0.00    +0.356 C 
ATOM     23  O   UNL     1      -7.325 -10.349   0.795  0.00  0.00    -0.246 OA
ATOM     24  O   UNL     1      -6.762 -12.216   1.607  0.00  0.00    -0.246 OA
ENDBRANCH  21  22
ENDBRANCH  20  21
ENDBRANCH  19  20
ENDBRANCH  17  19
ENDBRANCH   5  15
BRANCH   1  25
ATOM     25  C   UNL     1       0.626  -2.673  -1.672  0.00  0.00    +0.096 C 
BRANCH  25  26
ATOM     26  C   UNL     1       1.279  -1.349  -2.075  0.00  0.00    +0.013 C 
BRANCH  26  30
ATOM     27  C   UNL     1       0.359   1.455  -0.103  0.00  0.00    +0.000 C 
ATOM     28  C   UNL     1       1.863   1.806  -0.217  0.00  0.00    +0.000 C 
ATOM     29  C   UNL     1       2.391   0.734  -1.203  0.00  0.00    +0.003 C 
ATOM     30  C   UNL     1       1.620  -0.545  -0.819  0.00  0.00    -0.011 C 
ATOM     31  C   UNL     1       0.328  -0.087  -0.119  0.00  0.00    +0.003 C 
ENDBRANCH  26  30
ENDBRANCH  25  26
ENDBRANCH   1  25
TORSDOF 8
