REMARK  Name = ZINC24586119
REMARK  8 active torsions:
REMARK  status: ('A' for Active; 'I' for Inactive)
REMARK    1  A    between atoms: C_4  and  N_7
REMARK    2  A    between atoms: C_11  and  N_14
REMARK    3  A    between atoms: N_17  and  C_20
REMARK    4  A    between atoms: C_20  and  C_21
REMARK    5  A    between atoms: C_21  and  C_23
REMARK    6  A    between atoms: C_21  and  O_35
REMARK    7  A    between atoms: C_23  and  O_24
REMARK    8  A    between atoms: O_24  and  C_25
REMARK                            x       y       z     vdW  Elec       q    Type
REMARK                         _______ _______ _______ _____ _____    ______ ____
ROOT
ATOM      1  N   UNL     1      -4.867  12.239   0.549  0.00  0.00    -0.325 N 
ATOM      2  C   UNL     1      -5.851  11.820  -0.459  0.00  0.00    +0.120 C 
ATOM      3  C   UNL     1      -6.199  10.345  -0.246  0.00  0.00    +0.103 C 
ATOM      4  N   UNL     1      -4.975   9.537  -0.341  0.00  0.00    -0.297 NA
ATOM      5  C   UNL     1      -3.992   9.956   0.668  0.00  0.00    +0.103 C 
ATOM      6  C   UNL     1      -3.643  11.431   0.455  0.00  0.00    +0.120 C 
ENDROOT
BRANCH   1  11
ATOM      7  N   UNL     1      -4.008  16.256   0.180  0.00  0.00    -0.195 N 
ATOM      8  C   UNL     1      -4.460  15.798   1.364  0.00  0.00    +0.292 A 
ATOM      9  O   UNL     1      -4.608  16.565   2.303  0.00  0.00    -0.264 OA
ATOM     10  C   UNL     1      -4.758  14.436   1.512  0.00  0.00    +0.129 A 
ATOM     11  C   UNL     1      -4.581  13.589   0.433  0.00  0.00    +0.074 A 
ATOM     12  C   UNL     1      -4.100  14.112  -0.786  0.00  0.00    +0.158 A 
ATOM     13  N   UNL     1      -3.835  15.384  -0.900  0.00  0.00    -0.170 NA
ATOM     14 CL   UNL     1      -5.341  13.822   3.027  0.00  0.00    -0.076 Cl
BRANCH   7  18
ATOM     15  C   UNL     1      -3.117  20.301  -0.268  0.00  0.00    +0.000 A 
ATOM     16  C   UNL     1      -2.206  19.345  -0.676  0.00  0.00    +0.002 A 
ATOM     17  C   UNL     1      -2.498  18.003  -0.529  0.00  0.00    +0.028 A 
ATOM     18  C   UNL     1      -3.708  17.614   0.029  0.00  0.00    +0.069 A 
ATOM     19  C   UNL     1      -4.624  18.577   0.433  0.00  0.00    +0.028 A 
ATOM     20  C   UNL     1      -4.323  19.918   0.289  0.00  0.00    +0.002 A 
ENDBRANCH   7  18
ENDBRANCH   1  11
BRANCH   4  21
ATOM     21  C   UNL     1      -5.279   8.105  -0.217  0.00  0.00    +0.119 C 
BRANCH  21  22
ATOM     22  C   UNL     1      -5.889   7.598  -1.525  0.00  0.00    +0.166 C 
BRANCH  22  23
ATOM     23  O   UNL     1      -4.947   7.767  -2.587  0.00  0.00    -0.387 OA
ATOM     24  H   UNL     1      -5.209   7.457  -3.609  0.00  0.00    +0.210 HD
ENDBRANCH  22  23
BRANCH  22  25
ATOM     25  C   UNL     1      -6.237   6.115  -1.384  0.00  0.00    +0.261 C 
BRANCH  25  26
ATOM     26  O   UNL     1      -6.912   5.670  -2.563  0.00  0.00    -0.489 OA
BRANCH  26  27
ATOM     27  C   UNL     1      -7.294   4.367  -2.600  0.00  0.00    +0.128 A 
ATOM     28  C   UNL     1      -7.030   3.542  -1.543  0.00  0.00    +0.046 A 
ATOM     29  C   UNL     1      -7.414   2.205  -1.566  0.00  0.00    +0.004 A 
ATOM     30  C   UNL     1      -8.063   1.679  -2.641  0.00  0.00    +0.009 A 
ATOM     31  C   UNL     1      -8.359   2.496  -3.746  0.00  0.00    -0.014 A 
ATOM     32  C   UNL     1      -7.965   3.857  -3.730  0.00  0.00    +0.024 A 
ATOM     33  C   UNL     1      -8.255   4.671  -4.836  0.00  0.00    +0.012 A 
ATOM     34  C   UNL     1      -8.904   4.143  -5.910  0.00  0.00    +0.001 A 
ATOM     35  C   UNL     1      -9.287   2.803  -5.929  0.00  0.00    +0.001 A 
ATOM     36  C   UNL     1      -9.023   1.984  -4.874  0.00  0.00    +0.008 A 
ENDBRANCH  26  27
ENDBRANCH  25  26
ENDBRANCH  22  25
ENDBRANCH  21  22
ENDBRANCH   4  21
TORSDOF 8
