REMARK  Name = ZINC14881564
REMARK  9 active torsions:
REMARK  status: ('A' for Active; 'I' for Inactive)
REMARK    1  A    between atoms: C_1  and  C_2
REMARK    2  A    between atoms: C_2  and  C_4
REMARK    3  A    between atoms: C_2  and  N_52
REMARK    4  A    between atoms: C_9  and  C_10
REMARK    5  A    between atoms: C_9  and  N_52
REMARK    6  A    between atoms: N_18  and  C_21
REMARK    7  A    between atoms: C_21  and  C_22
REMARK    8  A    between atoms: C_22  and  O_23
REMARK    9  A    between atoms: O_23  and  C_24
REMARK                            x       y       z     vdW  Elec       q    Type
REMARK                         _______ _______ _______ _____ _____    ______ ____
ROOT
ATOM      1  C   UNL     1       2.125   0.993   1.166  0.00  0.00    +0.001 A 
ATOM      2  C   UNL     1       2.907  -0.102   0.998  0.00  0.00    +0.017 A 
ATOM      3  C   UNL     1       3.645  -0.618   2.152  0.00  0.00    -0.001 A 
ATOM      4  C   UNL     1       4.468  -1.743   2.041  0.00  0.00    +0.011 A 
ATOM      5  C   UNL     1       5.144  -2.200   3.136  0.00  0.00    +0.021 A 
ATOM      6  C   UNL     1       5.020  -1.556   4.362  0.00  0.00    +0.043 A 
ATOM      7  C   UNL     1       4.213  -0.445   4.495  0.00  0.00    +0.046 A 
ATOM      8  C   UNL     1       3.517   0.037   3.392  0.00  0.00    +0.054 A 
ATOM      9  N   UNL     1       2.705   1.147   3.496  0.00  0.00    -0.305 N 
ATOM     10  C   UNL     1       2.035   1.616   2.429  0.00  0.00    +0.253 A 
ATOM     11  O   UNL     1       1.329   2.602   2.556  0.00  0.00    -0.267 OA
ATOM     12 CL   UNL     1       5.888  -2.158   5.740  0.00  0.00    -0.083 Cl
ENDROOT
BRANCH   1  13
ATOM     13  C   UNL     1       1.353   1.550  -0.003  0.00  0.00    -0.040 C 
BRANCH  13  14
ATOM     14  N   UNL     1      -0.015   0.998   0.015  0.00  0.00    +0.387 N 
ATOM     15  H   UNL     1       0.032  -0.025  -0.054  0.00  0.00    -0.085 HD
ATOM     16  H   UNL     1      -0.475   1.261   0.894  0.00  0.00    -0.085 HD
BRANCH  14  18
ATOM     17  C   UNL     1      -1.403   2.878  -0.736  0.00  0.00    -0.008 C 
ATOM     18  C   UNL     1      -0.795   1.527  -1.120  0.00  0.00    -0.037 C 
BRANCH  18  19
ATOM     19  C   UNL     1      -1.899   0.557  -1.456  0.00  0.00    -0.024 A 
ATOM     20  C   UNL     1      -2.360   0.178  -2.673  0.00  0.00    +0.009 A 
ATOM     21  C   UNL     1      -3.394  -0.738  -2.742  0.00  0.00    +0.008 A 
ATOM     22  C   UNL     1      -3.916  -1.228  -1.591  0.00  0.00    +0.045 A 
ATOM     23  S   UNL     1      -2.933  -0.395  -0.355  0.00  0.00    -0.103 S 
ENDBRANCH  18  19
ENDBRANCH  14  18
ENDBRANCH  13  14
ENDBRANCH   1  13
BRANCH   9  24
ATOM     24  C   UNL     1       2.573   1.827   4.787  0.00  0.00    +0.166 C 
BRANCH  24  25
ATOM     25  C   UNL     1       3.644   2.913   4.903  0.00  0.00    +0.250 C 
BRANCH  25  26
ATOM     26  O   UNL     1       3.409   3.921   3.918  0.00  0.00    -0.490 OA
BRANCH  26  27
ATOM     27  C   UNL     1       4.277   4.966   3.885  0.00  0.00    +0.121 A 
ATOM     28  C   UNL     1       5.331   5.023   4.786  0.00  0.00    +0.045 A 
ATOM     29  C   UNL     1       6.215   6.083   4.747  0.00  0.00    +0.004 A 
ATOM     30  C   UNL     1       6.044   7.094   3.818  0.00  0.00    +0.000 A 
ATOM     31  C   UNL     1       4.992   7.043   2.924  0.00  0.00    +0.004 A 
ATOM     32  C   UNL     1       4.107   5.982   2.955  0.00  0.00    +0.045 A 
ENDBRANCH  26  27
ENDBRANCH  25  26
ENDBRANCH  24  25
ENDBRANCH   9  24
TORSDOF 8
