REMARK  Name = ZINC09514394
REMARK  6 active torsions:
REMARK  status: ('A' for Active; 'I' for Inactive)
REMARK    1  A    between atoms: C_1  and  C_2
REMARK    2  A    between atoms: C_2  and  C_4
REMARK    3  A    between atoms: C_2  and  S_20
REMARK    4  A    between atoms: C_10  and  C_15
REMARK    5  A    between atoms: S_20  and  C_21
REMARK    6  A    between atoms: N_25  and  C_26
REMARK                            x       y       z     vdW  Elec       q    Type
REMARK                         _______ _______ _______ _____ _____    ______ ____
ROOT
ATOM      1  C   UNL     1      -3.993   6.649  -2.524  0.00  0.00    +0.124 A 
ATOM      2  N   UNL     1      -3.652   5.347  -2.707  0.00  0.00    -0.309 N 
ATOM      3  H   UNL     1      -4.090   4.835  -3.405  0.00  0.00    +0.170 HD
ATOM      4  C   UNL     1      -2.720   4.753  -1.939  0.00  0.00    +0.260 A 
ATOM      5  O   UNL     1      -2.425   3.584  -2.117  0.00  0.00    -0.267 OA
ATOM      6  C   UNL     1      -2.079   5.516  -0.912  0.00  0.00    +0.080 A 
ATOM      7  C   UNL     1      -1.051   5.105   0.038  0.00  0.00    +0.010 A 
ATOM      8  C   UNL     1      -0.593   6.013   0.935  0.00  0.00    +0.057 A 
ATOM      9  S   UNL     1      -1.518   7.485   0.543  0.00  0.00    -0.076 S 
ATOM     10  C   UNL     1      -2.495   6.853  -0.797  0.00  0.00    +0.116 A 
ATOM     11  N   UNL     1      -3.426   7.370  -1.595  0.00  0.00    -0.225 NA
ENDROOT
BRANCH   7  12
ATOM     12  C   UNL     1      -0.523   3.725   0.026  0.00  0.00    +0.021 A 
ATOM     13  C   UNL     1       0.778   3.298   0.012  0.00  0.00    +0.016 A 
ATOM     14  C   UNL     1       1.031   1.943   0.003  0.00  0.00    +0.008 A 
ATOM     15  C   UNL     1      -0.013   1.076   0.008  0.00  0.00    +0.046 A 
ATOM     16  S   UNL     1      -1.416   2.179   0.019  0.00  0.00    -0.097 S 
ENDBRANCH   7  12
BRANCH   1  18
ATOM     17  C   UNL     1      -4.365   7.988  -4.577  0.00  0.00    +0.027 C 
ATOM     18  C   UNL     1      -5.043   7.271  -3.408  0.00  0.00    +0.117 C 
BRANCH  18  19
ATOM     19  S   UNL     1      -6.010   8.462  -2.448  0.00  0.00    -0.074 S 
BRANCH  19  20
ATOM     20  C   UNL     1      -7.221   8.909  -3.648  0.00  0.00    +0.210 A 
ATOM     21  N   UNL     1      -7.313   8.447  -4.876  0.00  0.00    -0.101 NA
ATOM     22  N   UNL     1      -8.310   8.980  -5.484  0.00  0.00    -0.022 NA
ATOM     23  N   UNL     1      -8.920   9.807  -4.705  0.00  0.00    -0.043 NA
ATOM     24  N   UNL     1      -8.237   9.788  -3.477  0.00  0.00    -0.217 N 
BRANCH  24  25
ATOM     25  C   UNL     1      -8.555  10.556  -2.270  0.00  0.00    +0.112 C 
ATOM     26  C   UNL     1      -9.963  10.197  -1.792  0.00  0.00    +0.027 C 
ATOM     27  C   UNL     1     -10.294  10.999  -0.533  0.00  0.00    +0.002 C 
ATOM     28  C   UNL     1     -10.230  12.495  -0.849  0.00  0.00    +0.000 C 
ATOM     29  C   UNL     1      -8.822  12.855  -1.327  0.00  0.00    +0.002 C 
ATOM     30  C   UNL     1      -8.490  12.052  -2.587  0.00  0.00    +0.027 C 
ENDBRANCH  24  25
ENDBRANCH  19  20
ENDBRANCH  18  19
ENDBRANCH   1  18
TORSDOF 5
