REMARK  Name = ZINC60366531
REMARK  19 active torsions:
REMARK  status: ('A' for Active; 'I' for Inactive)
REMARK    1  A    between atoms: C_1  and  C_2
REMARK    2  A    between atoms: C_2  and  C_4
REMARK    3  A    between atoms: C_2  and  N_28
REMARK    4  A    between atoms: N_10  and  C_11
REMARK    5  A    between atoms: C_11  and  C_12
REMARK    6  A    between atoms: C_14  and  C_17
REMARK    7  A    between atoms: C_17  and  C_18
REMARK    8  A    between atoms: C_17  and  C_19
REMARK    9  A    between atoms: C_17  and  N_20
REMARK   10  A    between atoms: C_21  and  O_23
REMARK   11  A    between atoms: O_23  and  C_24
REMARK   12  A    between atoms: C_24  and  C_25
REMARK   13  A    between atoms: C_24  and  C_26
REMARK   14  A    between atoms: C_24  and  C_27
REMARK   15  A    between atoms: C_29  and  O_31
REMARK   16  A    between atoms: O_31  and  C_32
REMARK   17  A    between atoms: C_32  and  C_33
REMARK   18  A    between atoms: C_32  and  C_34
REMARK   19  A    between atoms: C_32  and  C_35
REMARK                            x       y       z     vdW  Elec       q    Type
REMARK                         _______ _______ _______ _____ _____    ______ ____
ROOT
ATOM      1  C   UNL     1      -1.433  -0.534   0.013  0.00  0.00    -0.047 C 
ATOM      2  C   UNL     1      -2.109  -0.146   1.330  0.00  0.00    -0.014 C 
ATOM      3  C   UNL     1      -3.545  -0.678   1.336  0.00  0.00    -0.003 C 
ATOM      4  C   UNL     1      -4.289  -0.126   0.117  0.00  0.00    -0.019 C 
ATOM      5  C   UNL     1      -3.533  -0.514  -1.155  0.00  0.00    -0.078 C 
ATOM      6  N   UNL     1      -2.177   0.047  -1.112  0.00  0.00    +0.389 N 
ATOM      7  H   UNL     1      -2.231   1.048  -0.997  0.00  0.00    -0.081 HD
ENDROOT
BRANCH   1   9
ATOM      8  C   UNL     1      -0.019   1.526   0.010  0.00  0.00    +0.026 C 
ATOM      9  C   UNL     1       0.002  -0.004   0.002  0.00  0.00    +0.060 C 
BRANCH   9  10
ATOM     10  N   UNL     1       0.711  -0.489   1.189  0.00  0.00    -0.280 N 
ATOM     11  C   UNL     1       2.054  -0.600   1.174  0.00  0.00    +0.401 C 
ATOM     12  O   UNL     1       2.677  -0.297   0.175  0.00  0.00    -0.226 OA
ATOM     13  H   UNL     1       0.213  -0.731   1.986  0.00  0.00    +0.152 HD
BRANCH  11  14
ATOM     14  O   UNL     1       2.705  -1.046   2.264  0.00  0.00    -0.445 OA
BRANCH  14  15
ATOM     15  C   UNL     1       4.128  -1.138   2.178  0.00  0.00    +0.107 C 
ATOM     16  C   UNL     1       4.712   0.247   1.888  0.00  0.00    +0.055 C 
ATOM     17  C   UNL     1       4.687  -1.659   3.503  0.00  0.00    +0.055 C 
ATOM     18  C   UNL     1       4.510  -2.098   1.050  0.00  0.00    +0.055 C 
ENDBRANCH  14  15
ENDBRANCH  11  14
ENDBRANCH   9  10
ENDBRANCH   1   9
BRANCH   6  19
ATOM     19  C   UNL     1      -1.481  -0.262  -2.368  0.00  0.00    +0.022 C 
BRANCH  19  20
ATOM     20  C   UNL     1      -2.174   0.436  -3.510  0.00  0.00    +0.211 A 
ATOM     21  N   UNL     1      -1.900   1.631  -3.955  0.00  0.00    -0.195 NA
ATOM     22  C   UNL     1      -2.708   1.936  -4.977  0.00  0.00    +0.194 A 
ATOM     23  N   UNL     1      -3.510   0.934  -5.196  0.00  0.00    -0.059 NA
ATOM     24  O   UNL     1      -3.174  -0.067  -4.246  0.00  0.00    -0.340 OA
BRANCH  22  25
ATOM     25  C   UNL     1      -2.692   3.230  -5.750  0.00  0.00    +0.095 C 
ATOM     26  C   UNL     1      -2.974   4.395  -4.798  0.00  0.00    +0.040 C 
ATOM     27  C   UNL     1      -1.319   3.421  -6.397  0.00  0.00    +0.040 C 
BRANCH  25  28
ATOM     28  N   UNL     1      -3.722   3.190  -6.790  0.00  0.00    -0.269 N 
ATOM     29  C   UNL     1      -3.893   4.246  -7.611  0.00  0.00    +0.402 C 
ATOM     30  O   UNL     1      -3.193   5.231  -7.487  0.00  0.00    -0.226 OA
ATOM     31  H   UNL     1      -4.281   2.404  -6.890  0.00  0.00    +0.153 HD
BRANCH  29  32
ATOM     32  O   UNL     1      -4.840   4.209  -8.567  0.00  0.00    -0.445 OA
BRANCH  32  33
ATOM     33  C   UNL     1      -4.965   5.363  -9.401  0.00  0.00    +0.107 C 
ATOM     34  C   UNL     1      -3.646   5.607 -10.136  0.00  0.00    +0.055 C 
ATOM     35  C   UNL     1      -6.083   5.137 -10.420  0.00  0.00    +0.055 C 
ATOM     36  C   UNL     1      -5.300   6.581  -8.537  0.00  0.00    +0.055 C 
ENDBRANCH  32  33
ENDBRANCH  29  32
ENDBRANCH  25  28
ENDBRANCH  22  25
ENDBRANCH  19  20
ENDBRANCH   6  19
TORSDOF 10
