REMARK  Name = ZINC00947297
REMARK  7 active torsions:
REMARK  status: ('A' for Active; 'I' for Inactive)
REMARK    1  A    between atoms: C_1  and  C_2
REMARK    2  A    between atoms: C_6  and  N_7
REMARK    3  A    between atoms: N_7  and  C_8
REMARK    4  A    between atoms: C_8  and  C_10
REMARK    5  A    between atoms: C_8  and  C_19
REMARK    6  A    between atoms: C_13  and  N_16
REMARK    7  A    between atoms: C_28  and  O_29
REMARK                            x       y       z     vdW  Elec       q    Type
REMARK                         _______ _______ _______ _____ _____    ______ ____
ROOT
ATOM      1  C   UNL     1      -1.485   5.896   0.140  0.00  0.00    +0.136 C 
ENDROOT
BRANCH   1   2
ATOM      2  C   UNL     1      -2.366   5.478  -1.009  0.00  0.00    +0.021 A 
ATOM      3  C   UNL     1      -2.220   4.207  -1.558  0.00  0.00    +0.010 A 
ATOM      4  C   UNL     1      -3.001   3.799  -2.596  0.00  0.00    +0.010 A 
ATOM      5  C   UNL     1      -3.969   4.669  -3.124  0.00  0.00    +0.004 A 
ATOM      6  C   UNL     1      -4.795   4.282  -4.196  0.00  0.00    +0.011 A 
ATOM      7  C   UNL     1      -5.715   5.180  -4.657  0.00  0.00    +0.020 A 
ATOM      8  C   UNL     1      -5.814   6.438  -4.067  0.00  0.00    +0.111 A 
ATOM      9  N   UNL     1      -5.043   6.794  -3.068  0.00  0.00    -0.251 NA
ATOM     10  C   UNL     1      -4.123   5.963  -2.570  0.00  0.00    +0.113 A 
ATOM     11  C   UNL     1      -3.300   6.350  -1.492  0.00  0.00    +0.148 A 
BRANCH  11  12
ATOM     12  O   UNL     1      -3.432   7.584  -0.940  0.00  0.00    -0.504 OA
ATOM     13  H   UNL     1      -2.877   8.260  -1.352  0.00  0.00    +0.292 HD
ENDBRANCH  11  12
ENDBRANCH   1   2
BRANCH   1  14
ATOM     14  C   UNL     1      -2.192   5.619   1.442  0.00  0.00    -0.023 A 
ATOM     15  C   UNL     1      -2.328   4.318   1.891  0.00  0.00    +0.008 A 
ATOM     16  C   UNL     1      -2.971   4.064   3.088  0.00  0.00    +0.033 A 
ATOM     17  C   UNL     1      -3.488   5.109   3.830  0.00  0.00    +0.126 A 
ATOM     18  C   UNL     1      -3.357   6.409   3.378  0.00  0.00    +0.033 A 
ATOM     19  C   UNL     1      -2.709   6.664   2.184  0.00  0.00    +0.008 A 
BRANCH  17  20
ATOM     20  N   UNL     1      -4.182   4.837   5.109  0.00  0.00    +0.056 N 
ATOM     21  O   UNL     1      -4.638   5.758   5.763  0.00  0.00    -0.126 OA
ATOM     22  O   UNL     1      -4.297   3.691   5.507  0.00  0.00    -0.126 OA
ENDBRANCH  17  20
ENDBRANCH   1  14
BRANCH   1  23
ATOM     23  N   UNL     1      -0.231   5.140   0.094  0.00  0.00    -0.319 N 
ATOM     24  H   UNL     1      -0.145   4.313   0.593  0.00  0.00    +0.148 HD
BRANCH  23  30
ATOM     25  C   UNL     1       2.230   3.720   0.241  0.00  0.00    +0.047 C 
ATOM     26  C   UNL     1       2.056   4.943  -0.622  0.00  0.00    -0.013 A 
ATOM     27  C   UNL     1       3.109   5.420  -1.382  0.00  0.00    +0.008 A 
ATOM     28  C   UNL     1       2.905   6.549  -2.163  0.00  0.00    +0.018 A 
ATOM     29  C   UNL     1       1.668   7.163  -2.153  0.00  0.00    +0.084 A 
ATOM     30  C   UNL     1       0.835   5.608  -0.665  0.00  0.00    +0.100 A 
ATOM     31  N   UNL     1       0.609   6.719  -1.424  0.00  0.00    -0.350 N 
ATOM     32  H   UNL     1      -0.303   7.190  -1.444  0.00  0.00    +0.167 HD
ENDBRANCH  23  30
ENDBRANCH   1  23
TORSDOF 6
