REMARK  Name = ZINC50589091
REMARK  7 active torsions:
REMARK  status: ('A' for Active; 'I' for Inactive)
REMARK    1  A    between atoms: C_1  and  C_2
REMARK    2  A    between atoms: C_4  and  C_19
REMARK    3  A    between atoms: N_5  and  C_7
REMARK    4  A    between atoms: C_7  and  C_9
REMARK    5  A    between atoms: C_7  and  C_15
REMARK    6  A    between atoms: C_15  and  C_17
REMARK    7  A    between atoms: C_15  and  N_18
REMARK                            x       y       z     vdW  Elec       q    Type
REMARK                         _______ _______ _______ _____ _____    ______ ____
ROOT
ATOM      1  C   UNL     1       0.053  -3.295   1.486  0.00  0.00    +0.129 C 
ENDROOT
BRANCH   1   6
ATOM      2  C   UNL     1      -0.018   1.503   0.010  0.00  0.00    +0.068 C 
ATOM      3  C   UNL     1       0.002  -0.004   0.002  0.00  0.00    +0.074 A 
ATOM      4  C   UNL     1       0.008  -0.818  -1.136  0.00  0.00    +0.061 A 
ATOM      5  C   UNL     1       0.027  -2.108  -0.725  0.00  0.00    +0.051 A 
ATOM      6  N   UNL     1       0.034  -2.109   0.625  0.00  0.00    -0.261 N 
ATOM      7  N   UNL     1       0.023  -0.777   1.058  0.00  0.00    -0.175 NA
ATOM      8  C   UNL     1       0.039  -3.324  -1.615  0.00  0.00    +0.066 C 
ATOM      9 BR   UNL     1      -0.009  -0.222  -2.930  0.00  0.00    -0.047 Br
ENDBRANCH   1   6
BRANCH   1  10
ATOM     10  C   UNL     1      -1.173  -3.300   2.361  0.00  0.00    +0.014 A 
ATOM     11  C   UNL     1      -2.158  -4.228   2.444  0.00  0.00    +0.015 A 
ATOM     12  C   UNL     1      -3.200  -4.022   3.329  0.00  0.00    +0.028 A 
ATOM     13  C   UNL     1      -3.205  -2.898   4.089  0.00  0.00    +0.078 A 
ATOM     14  S   UNL     1      -1.701  -2.092   3.564  0.00  0.00    -0.080 S 
ATOM     15 CL   UNL     1      -4.368  -2.382   5.269  0.00  0.00    -0.076 Cl
ENDBRANCH   1  10
BRANCH   1  16
ATOM     16  C   UNL     1       1.306  -3.267   2.363  0.00  0.00    -0.048 C 
ATOM     17  C   UNL     1       2.552  -3.261   1.474  0.00  0.00    -0.012 C 
BRANCH  16  18
ATOM     18  N   UNL     1       1.327  -4.455   3.226  0.00  0.00    +0.381 N 
ATOM     19  H   UNL     1       1.335  -5.286   2.654  0.00  0.00    -0.090 HD
ATOM     20  H   UNL     1       2.153  -4.437   3.805  0.00  0.00    -0.090 HD
ATOM     21  H   UNL     1       0.505  -4.459   3.812  0.00  0.00    -0.090 HD
ENDBRANCH  16  18
ENDBRANCH   1  16
TORSDOF 4
