REMARK  Name = ZINC36600140
REMARK  11 active torsions:
REMARK  status: ('A' for Active; 'I' for Inactive)
REMARK    1  A    between atoms: C_1  and  C_2
REMARK    2  A    between atoms: C_5  and  S_8
REMARK    3  A    between atoms: S_8  and  C_11
REMARK    4  A    between atoms: C_11  and  N_12
REMARK    5  A    between atoms: C_13  and  C_15
REMARK    6  A    between atoms: C_15  and  C_17
REMARK    7  A    between atoms: C_15  and  N_24
REMARK    8  A    between atoms: N_24  and  C_25
REMARK    9  A    between atoms: C_25  and  C_26
REMARK   10  A    between atoms: C_29  and  C_31
REMARK   11  A    between atoms: C_32  and  C_34
REMARK                            x       y       z     vdW  Elec       q    Type
REMARK                         _______ _______ _______ _____ _____    ______ ____
ROOT
ATOM      1  C   UNL     1       2.409  -4.731   4.494  0.00  0.00    +0.193 C 
ENDROOT
BRANCH   1   2
ATOM      2  C   UNL     1       1.341  -4.580   5.547  0.00  0.00    -0.018 A 
ATOM      3  C   UNL     1       0.714  -5.700   6.060  0.00  0.00    +0.007 A 
ATOM      4  C   UNL     1      -0.265  -5.563   7.026  0.00  0.00    +0.020 A 
ATOM      5  C   UNL     1      -0.619  -4.304   7.478  0.00  0.00    +0.041 A 
ATOM      6  C   UNL     1       0.008  -3.183   6.963  0.00  0.00    +0.020 A 
ATOM      7  C   UNL     1       0.992  -3.323   6.002  0.00  0.00    +0.007 A 
ATOM      8 CL   UNL     1      -1.850  -4.131   8.690  0.00  0.00    -0.084 Cl
ENDBRANCH   1   2
BRANCH   1  10
ATOM      9  N   UNL     1       1.240  -4.031   2.430  0.00  0.00    -0.294 N 
ATOM     10  C   UNL     1       1.765  -5.031   3.165  0.00  0.00    +0.239 C 
ATOM     11  O   UNL     1       1.720  -6.172   2.756  0.00  0.00    -0.273 OA
ATOM     12  H   UNL     1       1.276  -3.118   2.756  0.00  0.00    +0.150 HD
BRANCH   9  13
ATOM     13  C   UNL     1       0.614  -4.322   1.137  0.00  0.00    +0.278 C 
BRANCH  13  14
ATOM     14  S   UNL     1      -1.175  -4.516   1.362  0.00  0.00    +0.013 S 
ATOM     15  O   UNL     1      -1.440  -5.371   2.466  0.00  0.00    -0.168 OA
ATOM     16  O   UNL     1      -1.805  -4.737   0.107  0.00  0.00    -0.168 OA
BRANCH  14  21
ATOM     17  C   UNL     1      -3.118   0.918   3.123  0.00  0.00    +0.044 C 
ATOM     18  C   UNL     1      -2.632  -0.439   2.683  0.00  0.00    -0.050 A 
ATOM     19  C   UNL     1      -2.586  -0.754   1.338  0.00  0.00    +0.005 A 
ATOM     20  C   UNL     1      -2.141  -1.998   0.934  0.00  0.00    +0.027 A 
ATOM     21  C   UNL     1      -1.742  -2.929   1.876  0.00  0.00    +0.090 A 
ATOM     22  C   UNL     1      -1.788  -2.614   3.221  0.00  0.00    +0.027 A 
ATOM     23  C   UNL     1      -2.229  -1.367   3.625  0.00  0.00    +0.005 A 
ENDBRANCH  14  21
ENDBRANCH  13  14
ENDBRANCH   9  13
ENDBRANCH   1  10
BRANCH   1  24
ATOM     24  N   UNL     1       3.305  -5.830   4.862  0.00  0.00    -0.278 N 
ATOM     25  C   UNL     1       4.579  -5.570   5.218  0.00  0.00    +0.231 C 
ATOM     26  O   UNL     1       5.333  -6.483   5.479  0.00  0.00    -0.274 OA
BRANCH  25  27
ATOM     27  C   UNL     1       5.065  -4.146   5.291  0.00  0.00    +0.204 C 
ATOM     28 CL   UNL     1       6.727  -4.113   5.990  0.00  0.00    -0.116 Cl
ENDBRANCH  25  27
BRANCH  24  29
ATOM     29  C   UNL     1       2.817  -7.211   4.842  0.00  0.00    +0.183 C 
BRANCH  29  30
ATOM     30  C   UNL     1       3.636  -8.020   3.870  0.00  0.00    +0.122 A 
ATOM     31  C   UNL     1       4.757  -8.703   4.163  0.00  0.00    +0.046 A 
ATOM     32  C   UNL     1       5.192  -9.311   2.963  0.00  0.00    +0.045 A 
ATOM     33  C   UNL     1       4.311  -8.962   2.008  0.00  0.00    +0.102 A 
ATOM     34  O   UNL     1       3.368  -8.185   2.564  0.00  0.00    -0.463 OA
ATOM     35  C   UNL     1       4.370  -9.378   0.561  0.00  0.00    +0.086 C 
ENDBRANCH  29  30
ENDBRANCH  24  29
ENDBRANCH   1  24
TORSDOF 9
