REMARK  Name = ZINC36032830
REMARK  9 active torsions:
REMARK  status: ('A' for Active; 'I' for Inactive)
REMARK    1  A    between atoms: C_1  and  C_2
REMARK    2  A    between atoms: C_4  and  C_26
REMARK    3  A    between atoms: C_5  and  O_9
REMARK    4  A    between atoms: O_9  and  C_10
REMARK    5  A    between atoms: C_10  and  C_11
REMARK    6  A    between atoms: N_13  and  N_14
REMARK    7  A    between atoms: C_15  and  C_16
REMARK    8  A    between atoms: C_19  and  O_25
REMARK    9  A    between atoms: C_20  and  N_22
REMARK                            x       y       z     vdW  Elec       q    Type
REMARK                         _______ _______ _______ _____ _____    ______ ____
ROOT
ATOM      1  C   UNL     1       1.160  -6.258  -0.041  0.00  0.00    +0.270 C 
ATOM      2  O   UNL     1       0.045  -6.737  -0.038  0.00  0.00    -0.270 OA
ATOM      3  N   UNL     1       2.239  -7.066  -0.051  0.00  0.00    -0.204 N 
ATOM      4  H   UNL     1       3.131  -6.683  -0.053  0.00  0.00    +0.177 HD
ENDROOT
BRANCH   3   5
ATOM      5  N   UNL     1       2.074  -8.457  -0.058  0.00  0.00    -0.188 NA
ATOM      6  C   UNL     1       3.113  -9.234  -0.068  0.00  0.00    +0.138 C 
BRANCH   6   7
ATOM      7  C   UNL     1       2.939 -10.698  -0.076  0.00  0.00    -0.003 A 
ATOM      8  C   UNL     1       1.655 -11.251  -0.078  0.00  0.00    +0.013 A 
ATOM      9  C   UNL     1       1.497 -12.620  -0.086  0.00  0.00    +0.048 A 
ATOM     10  C   UNL     1       2.611 -13.450  -0.090  0.00  0.00    +0.147 A 
ATOM     11  C   UNL     1       3.888 -12.904  -0.087  0.00  0.00    +0.168 A 
ATOM     12  C   UNL     1       4.056 -11.536  -0.087  0.00  0.00    +0.046 A 
BRANCH  11  13
ATOM     13  N   UNL     1       5.072 -13.794  -0.091  0.00  0.00    +0.060 N 
ATOM     14  O   UNL     1       6.184 -13.320  -0.089  0.00  0.00    -0.126 OA
ATOM     15  O   UNL     1       4.925 -14.994  -0.097  0.00  0.00    -0.126 OA
ENDBRANCH  11  13
BRANCH  10  16
ATOM     16  O   UNL     1       2.450 -14.798  -0.097  0.00  0.00    -0.504 OA
ATOM     17  H   UNL     1       2.404 -15.185  -0.982  0.00  0.00    +0.292 HD
ENDBRANCH  10  16
ENDBRANCH   6   7
ENDBRANCH   3   5
BRANCH   1  18
ATOM     18  C   UNL     1       1.338  -4.762  -0.033  0.00  0.00    +0.326 C 
BRANCH  18  19
ATOM     19  O   UNL     1       0.057  -4.130  -0.022  0.00  0.00    -0.481 OA
BRANCH  19  24
ATOM     20  C   UNL     1      -0.018   1.503   0.010  0.00  0.00    +0.044 C 
ATOM     21  C   UNL     1       0.002  -0.004   0.002  0.00  0.00    -0.049 A 
ATOM     22  C   UNL     1       0.006  -0.688  -1.200  0.00  0.00    +0.010 A 
ATOM     23  C   UNL     1       0.024  -2.069  -1.211  0.00  0.00    -0.007 A 
ATOM     24  C   UNL     1       0.039  -2.771  -0.014  0.00  0.00    +0.138 A 
ATOM     25  C   UNL     1       0.036  -2.083   1.191  0.00  0.00    +0.060 A 
ATOM     26  C   UNL     1       0.023  -0.700   1.196  0.00  0.00    +0.022 A 
ATOM     27 BR   UNL     1       0.056  -3.035   2.825  0.00  0.00    -0.047 Br
ATOM     28  C   UNL     1       0.027  -2.813  -2.521  0.00  0.00    +0.047 C 
ENDBRANCH  19  24
ENDBRANCH  18  19
ENDBRANCH   1  18
TORSDOF 7
