REMARK  Name = ZINC14460884
REMARK  4 active torsions:
REMARK  status: ('A' for Active; 'I' for Inactive)
REMARK    1  A    between atoms: C_1  and  C_2
REMARK    2  A    between atoms: C_5  and  O_26
REMARK    3  A    between atoms: C_15  and  C_18
REMARK    4  A    between atoms: C_23  and  O_24
REMARK                            x       y       z     vdW  Elec       q    Type
REMARK                         _______ _______ _______ _____ _____    ______ ____
ROOT
ATOM      1  C   UNL     1      -3.792   4.589  -3.178  0.00  0.00    +0.044 C 
ATOM      2  C   UNL     1      -3.697   4.849  -1.696  0.00  0.00    -0.045 A 
ATOM      3  C   UNL     1      -4.822   4.727  -0.909  0.00  0.00    +0.007 A 
ATOM      4  C   UNL     1      -4.745   4.964   0.451  0.00  0.00    +0.047 A 
ATOM      5  C   UNL     1      -3.536   5.325   1.016  0.00  0.00    +0.138 A 
ATOM      6  C   UNL     1      -2.394   5.450   0.219  0.00  0.00    +0.074 A 
ATOM      7  C   UNL     1      -2.475   5.210  -1.140  0.00  0.00    -0.013 A 
ATOM      8  C   UNL     1      -1.291   5.320  -2.054  0.00  0.00    +0.049 C 
ATOM      9  C   UNL     1      -0.835   3.951  -2.503  0.00  0.00    -0.023 C 
ATOM     10  C   UNL     1       0.473   3.892  -2.541  0.00  0.00    -0.030 C 
ATOM     11  C   UNL     1       1.077   5.221  -2.130  0.00  0.00    +0.033 C 
ATOM     12  C   UNL     1      -0.063   5.904  -1.323  0.00  0.00    +0.029 C 
ATOM     13  C   UNL     1      -0.025   5.350   0.103  0.00  0.00    +0.109 C 
ATOM     14  N   UNL     1      -1.198   5.820   0.840  0.00  0.00    -0.334 N 
ATOM     15  H   UNL     1      -1.159   6.818   0.984  0.00  0.00    +0.147 HD
ENDROOT
BRANCH  13  16
ATOM     16  C   UNL     1      -0.030   3.844   0.057  0.00  0.00    +0.015 A 
ATOM     17  C   UNL     1      -1.228   3.157   0.024  0.00  0.00    +0.024 A 
ATOM     18  C   UNL     1      -1.234   1.775  -0.023  0.00  0.00    +0.018 A 
ATOM     19  C   UNL     1      -0.040   1.076  -0.027  0.00  0.00    +0.019 A 
ATOM     20  C   UNL     1       1.161   1.759   0.006  0.00  0.00    +0.047 A 
ATOM     21  C   UNL     1       1.169   3.145   0.048  0.00  0.00    +0.122 A 
ATOM     22 BR   UNL     1      -2.876   0.838  -0.075  0.00  0.00    -0.050 Br
BRANCH  21  23
ATOM     23  O   UNL     1       2.349   3.819   0.080  0.00  0.00    -0.506 OA
ATOM     24  H   UNL     1       2.753   3.945  -0.790  0.00  0.00    +0.292 HD
ENDBRANCH  21  23
ENDBRANCH  13  16
BRANCH   5  25
ATOM     25  O   UNL     1      -3.457   5.560   2.354  0.00  0.00    -0.505 OA
ATOM     26  H   UNL     1      -3.624   6.479   2.602  0.00  0.00    +0.292 HD
ENDBRANCH   5  25
TORSDOF 3
