REMARK  Name = ZINC20014003
REMARK  6 active torsions:
REMARK  status: ('A' for Active; 'I' for Inactive)
REMARK    1  A    between atoms: C_1  and  C_2
REMARK    2  A    between atoms: C_3  and  N_22
REMARK    3  A    between atoms: C_5  and  S_9
REMARK    4  A    between atoms: S_9  and  N_12
REMARK    5  A    between atoms: C_14  and  C_21
REMARK    6  A    between atoms: C_17  and  C_20
REMARK                            x       y       z     vdW  Elec       q    Type
REMARK                         _______ _______ _______ _____ _____    ______ ____
ROOT
ATOM      1  C   UNL     1      -2.982   3.136   5.803  0.00  0.00    +0.047 C 
ATOM      2  C   UNL     1      -2.600   2.926   4.360  0.00  0.00    -0.011 A 
ATOM      3  C   UNL     1      -1.826   3.873   3.701  0.00  0.00    +0.031 A 
ATOM      4  C   UNL     1      -1.476   3.675   2.371  0.00  0.00    +0.051 A 
ATOM      5  C   UNL     1      -1.898   2.539   1.708  0.00  0.00    +0.109 A 
ATOM      6  C   UNL     1      -2.673   1.601   2.365  0.00  0.00    +0.049 A 
ATOM      7  C   UNL     1      -3.019   1.791   3.691  0.00  0.00    +0.047 A 
ATOM      8 CL   UNL     1      -3.986   0.607   4.513  0.00  0.00    -0.083 Cl
ENDROOT
BRANCH   5   9
ATOM      9  S   UNL     1      -1.454   2.289   0.021  0.00  0.00    +0.061 S 
ATOM     10  O   UNL     1      -1.189   3.575  -0.524  0.00  0.00    -0.153 OA
ATOM     11  O   UNL     1      -2.429   1.414  -0.530  0.00  0.00    -0.153 OA
BRANCH   9  12
ATOM     12  N   UNL     1      -0.018   1.465   0.010  0.00  0.00    -0.176 NA
ATOM     13  C   UNL     1       1.261   2.189   0.002  0.00  0.00    +0.112 C 
ATOM     14  C   UNL     1       2.125   1.677   1.158  0.00  0.00    +0.002 C 
ATOM     15  C   UNL     1       2.263   0.156   1.052  0.00  0.00    +0.009 C 
ATOM     16  C   UNL     1       0.880  -0.492   1.159  0.00  0.00    +0.002 C 
ATOM     17  C   UNL     1       0.002  -0.004   0.002  0.00  0.00    +0.112 C 
ATOM     18  C   UNL     1       0.234  -0.102   2.490  0.00  0.00    +0.009 C 
ATOM     19  C   UNL     1       3.510   2.322   1.085  0.00  0.00    +0.009 C 
ENDBRANCH   9  12
ENDBRANCH   5   9
BRANCH   3  20
ATOM     20  N   UNL     1      -1.401   5.020   4.374  0.00  0.00    -0.358 N 
ATOM     21  H   UNL     1      -0.788   5.769   3.850  0.00  0.00    +0.142 HD
ATOM     22  H   UNL     1      -1.679   5.176   5.426  0.00  0.00    +0.142 HD
ENDBRANCH   3  20
TORSDOF 3
