REMARK  Name = ZINC48788007
REMARK  8 active torsions:
REMARK  status: ('A' for Active; 'I' for Inactive)
REMARK    1  A    between atoms: C_1  and  C_2
REMARK    2  A    between atoms: C_2  and  C_4
REMARK    3  A    between atoms: C_2  and  O_11
REMARK    4  A    between atoms: N_9  and  C_10
REMARK    5  A    between atoms: O_11  and  C_12
REMARK    6  A    between atoms: C_13  and  C_19
REMARK    7  A    between atoms: C_19  and  N_20
REMARK    8  A    between atoms: N_20  and  C_21
REMARK                            x       y       z     vdW  Elec       q    Type
REMARK                         _______ _______ _______ _____ _____    ______ ____
ROOT
ATOM      1  O   UNL     1      -1.257  -0.455   0.086  0.00  0.00    -0.479 OA
ENDROOT
BRANCH   1   2
ATOM      2  C   UNL     1      -1.829  -0.803   1.269  0.00  0.00    +0.137 A 
ATOM      3  C   UNL     1      -1.636  -2.076   1.785  0.00  0.00    -0.022 A 
ATOM      4  C   UNL     1      -2.219  -2.428   2.988  0.00  0.00    +0.005 A 
ATOM      5  C   UNL     1      -2.993  -1.512   3.676  0.00  0.00    +0.002 A 
ATOM      6  C   UNL     1      -3.187  -0.243   3.164  0.00  0.00    +0.019 A 
ATOM      7  C   UNL     1      -2.602   0.116   1.964  0.00  0.00    +0.060 A 
ATOM      8 BR   UNL     1      -2.861   1.855   1.268  0.00  0.00    -0.047 Br
BRANCH   3   9
ATOM      9  C   UNL     1      -0.792  -3.074   1.036  0.00  0.00    -0.043 C 
BRANCH   9  10
ATOM     10  N   UNL     1       0.627  -2.835   1.329  0.00  0.00    +0.380 N 
ATOM     11  C   UNL     1       1.440  -3.887   0.705  0.00  0.00    -0.100 C 
ATOM     12  H   UNL     1       0.899  -1.936   0.961  0.00  0.00    -0.086 HD
ATOM     13  H   UNL     1       0.770  -2.846   2.328  0.00  0.00    -0.086 HD
ENDBRANCH   9  10
ENDBRANCH   3   9
ENDBRANCH   1   2
BRANCH   1  15
ATOM     14  C   UNL     1       0.058   1.573   0.079  0.00  0.00    +0.062 C 
ATOM     15  C   UNL     1       0.081   0.044   0.134  0.00  0.00    +0.256 C 
BRANCH  15  16
ATOM     16  C   UNL     1       0.859  -0.489  -1.041  0.00  0.00    +0.261 C 
ATOM     17  O   UNL     1       0.299  -1.149  -1.890  0.00  0.00    -0.271 OA
ATOM     18  N   UNL     1       2.178  -0.233  -1.149  0.00  0.00    -0.237 N 
ATOM     19  C   UNL     1       2.873  -0.710  -2.200  0.00  0.00    +0.306 C 
ATOM     20  O   UNL     1       2.312  -1.371  -3.051  0.00  0.00    -0.252 OA
ATOM     21  N   UNL     1       4.192  -0.453  -2.308  0.00  0.00    -0.302 N 
ATOM     22  C   UNL     1       4.948  -0.972  -3.451  0.00  0.00    +0.129 C 
ATOM     23  H   UNL     1       2.626   0.295  -0.470  0.00  0.00    +0.159 HD
ATOM     24  H   UNL     1       4.641   0.075  -1.629  0.00  0.00    +0.150 HD
ENDBRANCH  15  16
ENDBRANCH   1  15
TORSDOF 5
