REMARK  Name = ZINC13640433
REMARK  8 active torsions:
REMARK  status: ('A' for Active; 'I' for Inactive)
REMARK    1  A    between atoms: C_1  and  C_2
REMARK    2  A    between atoms: C_2  and  C_3
REMARK    3  A    between atoms: C_2  and  C_4
REMARK    4  A    between atoms: C_4  and  C_5
REMARK    5  A    between atoms: N_7  and  C_8
REMARK    6  A    between atoms: C_21  and  C_24
REMARK    7  A    between atoms: C_27  and  O_31
REMARK    8  A    between atoms: C_29  and  O_30
REMARK                            x       y       z     vdW  Elec       q    Type
REMARK                         _______ _______ _______ _____ _____    ______ ____
ROOT
ATOM      1  C   UNL     1      -1.246   3.131   0.024  0.00  0.00    +0.034 A 
ATOM      2  C   UNL     1      -1.217   1.755  -0.164  0.00  0.00    +0.025 A 
ATOM      3  C   UNL     1      -0.012   1.085  -0.179  0.00  0.00    +0.025 A 
ATOM      4  C   UNL     1       1.181   1.778  -0.016  0.00  0.00    +0.031 A 
ATOM      5  C   UNL     1       1.147   3.163   0.184  0.00  0.00    -0.018 A 
ATOM      6  C   UNL     1      -0.058   3.830   0.195  0.00  0.00    +0.029 A 
ATOM      7  C   UNL     1       2.437   3.853   0.399  0.00  0.00    +0.049 C 
ATOM      8  C   UNL     1       2.622   5.292   0.079  0.00  0.00    -0.023 C 
ATOM      9  C   UNL     1       3.885   5.487  -0.283  0.00  0.00    -0.030 C 
ATOM     10  C   UNL     1       4.645   4.159  -0.264  0.00  0.00    +0.033 C 
ATOM     11  C   UNL     1       3.511   3.150  -0.484  0.00  0.00    +0.029 C 
ATOM     12  C   UNL     1       3.689   1.767   0.118  0.00  0.00    +0.108 C 
ATOM     13  N   UNL     1       2.395   1.077  -0.076  0.00  0.00    -0.336 N 
ATOM     14  H   UNL     1       2.385   0.123  -0.247  0.00  0.00    +0.147 HD
ENDROOT
BRANCH  12  15
ATOM     15  C   UNL     1       4.787   1.024  -0.599  0.00  0.00    +0.015 A 
ATOM     16  C   UNL     1       4.475   0.160  -1.631  0.00  0.00    +0.012 A 
ATOM     17  C   UNL     1       5.480  -0.519  -2.294  0.00  0.00    +0.046 A 
ATOM     18  C   UNL     1       6.804  -0.342  -1.917  0.00  0.00    +0.120 A 
ATOM     19  C   UNL     1       7.118   0.521  -0.879  0.00  0.00    +0.091 A 
ATOM     20  C   UNL     1       6.109   1.205  -0.219  0.00  0.00    +0.125 A 
BRANCH  20  21
ATOM     21  O   UNL     1       6.414   2.052   0.799  0.00  0.00    -0.506 OA
ATOM     22  H   UNL     1       6.428   1.632   1.669  0.00  0.00    +0.292 HD
ENDBRANCH  20  21
BRANCH  18  23
ATOM     23  O   UNL     1       7.791  -1.013  -2.566  0.00  0.00    -0.507 OA
ATOM     24  H   UNL     1       8.003  -1.873  -2.178  0.00  0.00    +0.292 HD
ENDBRANCH  18  23
ENDBRANCH  12  15
BRANCH   1  27
ATOM     25  C   UNL     1      -3.571   3.212   0.531  0.00  0.00    +0.217 C 
ATOM     26  O   UNL     1      -3.484   2.120   1.052  0.00  0.00    -0.275 OA
ATOM     27  N   UNL     1      -2.470   3.813   0.037  0.00  0.00    -0.285 N 
ATOM     28  H   UNL     1      -2.525   4.717  -0.310  0.00  0.00    +0.155 HD
BRANCH  25  29
ATOM     29  C   UNL     1      -4.910   3.897   0.437  0.00  0.00    +0.099 C 
BRANCH  29  31
ATOM     30  C   UNL     1      -5.708   2.862   2.566  0.00  0.00    +0.008 C 
ATOM     31  C   UNL     1      -5.983   3.009   1.068  0.00  0.00    -0.008 C 
ATOM     32  C   UNL     1      -7.359   3.646   0.862  0.00  0.00    +0.008 C 
ENDBRANCH  29  31
ENDBRANCH  25  29
ENDBRANCH   1  27
TORSDOF 6
