REMARK  Name = ZINC35746556
REMARK  14 active torsions:
REMARK  status: ('A' for Active; 'I' for Inactive)
REMARK    1  A    between atoms: C_1  and  C_2
REMARK    2  A    between atoms: C_2  and  O_3
REMARK    3  A    between atoms: O_3  and  C_4
REMARK    4  A    between atoms: C_4  and  C_6
REMARK    5  A    between atoms: C_7  and  C_37
REMARK    6  A    between atoms: C_13  and  C_17
REMARK    7  A    between atoms: C_17  and  N_18
REMARK    8  A    between atoms: N_18  and  C_19
REMARK    9  A    between atoms: N_18  and  C_26
REMARK   10  A    between atoms: C_19  and  C_20
REMARK   11  A    between atoms: C_26  and  C_27
REMARK   12  A    between atoms: C_27  and  C_29
REMARK   13  A    between atoms: C_27  and  O_36
REMARK   14  A    between atoms: C_29  and  C_30
REMARK                            x       y       z     vdW  Elec       q    Type
REMARK                         _______ _______ _______ _____ _____    ______ ____
ROOT
ATOM      1  N   UNL     1       4.834  -3.087   7.959  0.00  0.00    +0.389 N 
ATOM      2  H   UNL     1       4.146  -2.401   8.231  0.00  0.00    -0.081 HD
ENDROOT
BRANCH   1   3
ATOM      3  C   UNL     1       4.157  -4.328   7.559  0.00  0.00    -0.003 C 
BRANCH   3  11
ATOM      4  C   UNL     1       0.182  -1.583   3.477  0.00  0.00    +0.102 A 
ATOM      5  C   UNL     1       0.302  -2.928   3.671  0.00  0.00    -0.015 A 
ATOM      6  C   UNL     1       1.219  -3.417   4.605  0.00  0.00    +0.076 A 
ATOM      7  C   UNL     1       1.516  -4.818   4.979  0.00  0.00    +0.260 A 
ATOM      8  O   UNL     1       0.928  -5.744   4.451  0.00  0.00    -0.267 OA
ATOM      9  N   UNL     1       2.455  -5.041   5.920  0.00  0.00    -0.312 N 
ATOM     10  H   UNL     1       2.662  -5.953   6.177  0.00  0.00    +0.170 HD
ATOM     11  C   UNL     1       3.117  -4.018   6.514  0.00  0.00    +0.094 A 
ATOM     12  N   UNL     1       2.878  -2.772   6.207  0.00  0.00    -0.229 NA
ATOM     13  C   UNL     1       1.974  -2.440   5.295  0.00  0.00    +0.116 A 
ATOM     14  S   UNL     1       1.383  -0.911   4.613  0.00  0.00    -0.062 S 
ATOM     15  C   UNL     1      -0.554  -3.885   2.882  0.00  0.00    +0.046 C 
BRANCH   4  16
ATOM     16  C   UNL     1      -0.707  -0.868   2.558  0.00  0.00    +0.346 C 
ATOM     17  O   UNL     1      -1.472  -1.489   1.846  0.00  0.00    -0.244 OA
BRANCH  16  18
ATOM     18  O   UNL     1      -0.676   0.480   2.503  0.00  0.00    -0.461 OA
BRANCH  18  20
ATOM     19  C   UNL     1      -1.393   2.629   1.662  0.00  0.00    +0.048 C 
ATOM     20  C   UNL     1      -1.570   1.112   1.584  0.00  0.00    +0.229 C 
ENDBRANCH  18  20
ENDBRANCH  16  18
ENDBRANCH   4  16
ENDBRANCH   3  11
ENDBRANCH   1   3
BRANCH   1  21
ATOM     21  C   UNL     1       5.619  -2.572   6.829  0.00  0.00    -0.042 C 
BRANCH  21  22
ATOM     22  C   UNL     1       6.521  -3.660   6.307  0.00  0.00    -0.064 A 
ATOM     23  C   UNL     1       7.752  -3.880   6.896  0.00  0.00    +0.002 A 
ATOM     24  C   UNL     1       8.580  -4.878   6.416  0.00  0.00    +0.000 A 
ATOM     25  C   UNL     1       8.176  -5.657   5.348  0.00  0.00    +0.000 A 
ATOM     26  C   UNL     1       6.944  -5.438   4.760  0.00  0.00    +0.000 A 
ATOM     27  C   UNL     1       6.115  -4.443   5.242  0.00  0.00    +0.002 A 
ENDBRANCH  21  22
ENDBRANCH   1  21
BRANCH   1  28
ATOM     28  C   UNL     1       5.728  -3.361   9.092  0.00  0.00    -0.046 C 
BRANCH  28  29
ATOM     29  C   UNL     1       5.989  -2.064   9.861  0.00  0.00    +0.102 C 
BRANCH  29  30
ATOM     30  O   UNL     1       6.612  -1.114   8.994  0.00  0.00    -0.393 OA
ATOM     31  H   UNL     1       7.456  -1.411   8.627  0.00  0.00    +0.210 HD
ENDBRANCH  29  30
BRANCH  29  32
ATOM     32  C   UNL     1       6.909  -2.351  11.049  0.00  0.00    +0.064 C 
BRANCH  32  33
ATOM     33  C   UNL     1       7.066  -1.101  11.876  0.00  0.00    -0.045 A 
ATOM     34  C   UNL     1       8.085  -0.209  11.593  0.00  0.00    +0.004 A 
ATOM     35  C   UNL     1       8.229   0.937  12.352  0.00  0.00    +0.000 A 
ATOM     36  C   UNL     1       7.356   1.192  13.392  0.00  0.00    +0.000 A 
ATOM     37  C   UNL     1       6.338   0.301  13.674  0.00  0.00    +0.000 A 
ATOM     38  C   UNL     1       6.190  -0.843  12.913  0.00  0.00    +0.004 A 
ENDBRANCH  32  33
ENDBRANCH  29  32
ENDBRANCH  28  29
ENDBRANCH   1  28
TORSDOF 12
