REMARK  Name = ZINC06368926
REMARK  9 active torsions:
REMARK  status: ('A' for Active; 'I' for Inactive)
REMARK    1  A    between atoms: C_1  and  C_2
REMARK    2  A    between atoms: N_11  and  C_15
REMARK    3  A    between atoms: C_15  and  C_16
REMARK    4  A    between atoms: C_16  and  O_18
REMARK    5  A    between atoms: O_18  and  C_19
REMARK    6  A    between atoms: C_19  and  C_21
REMARK    7  A    between atoms: C_19  and  C_22
REMARK    8  A    between atoms: N_24  and  C_25
REMARK    9  A    between atoms: C_30  and  C_31
REMARK                            x       y       z     vdW  Elec       q    Type
REMARK                         _______ _______ _______ _____ _____    ______ ____
ROOT
ATOM      1  C   UNL     1      -2.960   0.318   5.566  0.00  0.00    +0.326 C 
ATOM      2  O   UNL     1      -1.774   0.344   5.338  0.00  0.00    -0.249 OA
ENDROOT
BRANCH   1   3
ATOM      3  C   UNL     1      -3.946   0.310   4.426  0.00  0.00    +0.238 C 
BRANCH   3  13
ATOM      4  C   UNL     1       0.013   0.998   2.499  0.00  0.00    +0.010 C 
ATOM      5  C   UNL     1      -0.712   1.515   1.255  0.00  0.00    +0.018 C 
ATOM      6  C   UNL     1       0.005   1.011   0.000  0.00  0.00    +0.006 C 
ATOM      7  C   UNL     1      -0.732   1.512  -1.244  0.00  0.00    +0.000 C 
ATOM      8  C   UNL     1      -2.166   0.979  -1.238  0.00  0.00    +0.003 C 
ATOM      9  C   UNL     1      -2.892   1.484   0.012  0.00  0.00    +0.035 C 
ATOM     10  C   UNL     1      -2.150   1.009   1.258  0.00  0.00    +0.115 C 
ATOM     11  C   UNL     1      -2.869   1.467   2.506  0.00  0.00    +0.247 C 
ATOM     12  O   UNL     1      -3.083   2.609   2.853  0.00  0.00    -0.273 OA
ATOM     13  N   UNL     1      -3.221   0.337   3.154  0.00  0.00    -0.213 N 
ATOM     14  C   UNL     1      -2.826  -0.756   2.489  0.00  0.00    +0.310 C 
ATOM     15  O   UNL     1      -3.029  -1.891   2.873  0.00  0.00    -0.252 OA
ATOM     16  N   UNL     1      -2.179  -0.456   1.346  0.00  0.00    -0.285 N 
ATOM     17  H   UNL     1      -1.806  -1.085   0.708  0.00  0.00    +0.151 HD
ENDBRANCH   3  13
ENDBRANCH   1   3
BRANCH   1  18
ATOM     18  O   UNL     1      -3.400   0.296   6.834  0.00  0.00    -0.451 OA
BRANCH  18  19
ATOM     19  C   UNL     1      -2.394   0.306   7.881  0.00  0.00    +0.259 C 
ATOM     20  C   UNL     1      -2.069   1.752   8.263  0.00  0.00    +0.062 C 
BRANCH  19  21
ATOM     21  C   UNL     1      -2.918  -0.427   9.088  0.00  0.00    +0.258 C 
ATOM     22  O   UNL     1      -4.030  -0.910   9.069  0.00  0.00    -0.271 OA
ATOM     23  N   UNL     1      -2.151  -0.546  10.190  0.00  0.00    -0.281 N 
ATOM     24  H   UNL     1      -1.239  -0.217  10.184  0.00  0.00    +0.155 HD
BRANCH  23  25
ATOM     25  C   UNL     1      -2.669  -1.141  11.339  0.00  0.00    +0.051 A 
ATOM     26  C   UNL     1      -3.570  -2.192  11.235  0.00  0.00    +0.024 A 
ATOM     27  C   UNL     1      -4.079  -2.783  12.374  0.00  0.00    +0.002 A 
ATOM     28  C   UNL     1      -3.704  -2.328  13.628  0.00  0.00    +0.001 A 
ATOM     29  C   UNL     1      -2.814  -1.283  13.751  0.00  0.00    +0.021 A 
ATOM     30  C   UNL     1      -2.287  -0.678  12.607  0.00  0.00    +0.073 A 
BRANCH  30  31
ATOM     31  C   UNL     1      -1.363   0.409  12.728  0.00  0.00    +0.101 C 
ATOM     32  N   UNL     1      -0.630   1.272  12.824  0.00  0.00    -0.191 NA
ENDBRANCH  30  31
ENDBRANCH  23  25
ENDBRANCH  19  21
ENDBRANCH  18  19
ENDBRANCH   1  18
TORSDOF 7
