REMARK  Name = ZINC57455869
REMARK  7 active torsions:
REMARK  status: ('A' for Active; 'I' for Inactive)
REMARK    1  A    between atoms: C_1  and  C_2
REMARK    2  A    between atoms: C_2  and  N_3
REMARK    3  A    between atoms: N_6  and  C_7
REMARK    4  A    between atoms: C_7  and  C_12
REMARK    5  A    between atoms: N_14  and  C_15
REMARK    6  A    between atoms: C_21  and  O_23
REMARK    7  A    between atoms: O_23  and  C_24
REMARK                            x       y       z     vdW  Elec       q    Type
REMARK                         _______ _______ _______ _____ _____    ______ ____
ROOT
ATOM      1  C   UNL     1       0.210  -4.359   2.657  0.00  0.00    +0.237 C 
ATOM      2  O   UNL     1      -0.047  -5.233   3.458  0.00  0.00    -0.273 OA
ATOM      3  N   UNL     1      -0.707  -3.996   1.738  0.00  0.00    -0.311 N 
ATOM      4  H   UNL     1      -0.530  -3.249   1.145  0.00  0.00    +0.149 HD
ENDROOT
BRANCH   3   5
ATOM      5  C   UNL     1      -1.970  -4.730   1.634  0.00  0.00    +0.076 C 
ATOM      6  C   UNL     1      -1.775  -5.958   0.742  0.00  0.00    +0.041 C 
ATOM      7  C   UNL     1      -3.089  -6.742   0.664  0.00  0.00    +0.113 C 
ATOM      8  N   UNL     1      -4.155  -5.835   0.217  0.00  0.00    -0.267 N 
ATOM      9  C   UNL     1      -4.368  -4.580   0.951  0.00  0.00    +0.113 C 
ATOM     10  C   UNL     1      -3.040  -3.821   1.026  0.00  0.00    +0.041 C 
ATOM     11  C   UNL     1      -4.922  -6.148  -0.846  0.00  0.00    +0.403 C 
ATOM     12  O   UNL     1      -4.735  -7.189  -1.445  0.00  0.00    -0.226 OA
BRANCH  11  13
ATOM     13  O   UNL     1      -5.895  -5.308  -1.245  0.00  0.00    -0.454 OA
ATOM     14  C   UNL     1      -6.669  -5.703  -2.379  0.00  0.00    +0.282 C 
ENDBRANCH  11  13
ENDBRANCH   3   5
BRANCH   1  15
ATOM     15  C   UNL     1       1.554  -3.679   2.689  0.00  0.00    +0.112 C 
ATOM     16  C   UNL     1       2.590  -4.587   3.383  0.00  0.00    +0.035 C 
ATOM     17  C   UNL     1       3.482  -3.605   4.183  0.00  0.00    +0.003 C 
ATOM     18  C   UNL     1       2.461  -2.558   4.695  0.00  0.00    +0.003 C 
ATOM     19  C   UNL     1       1.472  -2.389   3.523  0.00  0.00    +0.035 C 
BRANCH  15  23
ATOM     20  N   UNL     1       2.366  -4.046  -0.876  0.00  0.00    -0.300 N 
ATOM     21  C   UNL     1       2.061  -4.347   0.401  0.00  0.00    +0.300 C 
ATOM     22  O   UNL     1       1.849  -5.501   0.720  0.00  0.00    -0.253 OA
ATOM     23  N   UNL     1       1.992  -3.369   1.326  0.00  0.00    -0.285 N 
ATOM     24  H   UNL     1       2.535  -3.125  -1.131  0.00  0.00    +0.150 HD
ATOM     25  H   UNL     1       2.233  -2.459   1.089  0.00  0.00    +0.151 HD
BRANCH  20  27
ATOM     26  C   UNL     1       2.800  -4.502  -3.240  0.00  0.00    +0.024 C 
ATOM     27  C   UNL     1       2.441  -5.109  -1.882  0.00  0.00    +0.102 C 
ENDBRANCH  20  27
ENDBRANCH  15  23
ENDBRANCH   1  15
TORSDOF 5
