REMARK  Name = ZINC40315512
REMARK  6 active torsions:
REMARK  status: ('A' for Active; 'I' for Inactive)
REMARK    1  A    between atoms: C_3  and  S_9
REMARK    2  A    between atoms: C_6  and  N_7
REMARK    3  A    between atoms: S_9  and  N_12
REMARK    4  A    between atoms: N_12  and  C_13
REMARK    5  A    between atoms: C_13  and  C_14
REMARK    6  A    between atoms: N_18  and  C_20
REMARK                            x       y       z     vdW  Elec       q    Type
REMARK                         _______ _______ _______ _____ _____    ______ ____
ROOT
ATOM      1  S   UNL     1       3.890   2.321  -0.023  0.00  0.00    +0.060 S 
ATOM      2  O   UNL     1       4.688   1.766  -1.059  0.00  0.00    -0.153 OA
ATOM      3  O   UNL     1       3.539   3.698   0.014  0.00  0.00    -0.153 OA
ENDROOT
BRANCH   1   6
ATOM      4  C   UNL     1      -0.017   1.385   0.010  0.00  0.00    +0.025 A 
ATOM      5  C   UNL     1       1.171   2.091   0.002  0.00  0.00    +0.032 A 
ATOM      6  C   UNL     1       2.377   1.417  -0.013  0.00  0.00    +0.124 A 
ATOM      7  C   UNL     1       2.400   0.033  -0.021  0.00  0.00    +0.069 A 
ATOM      8  C   UNL     1       1.216  -0.679  -0.014  0.00  0.00    +0.044 A 
ATOM      9  C   UNL     1       0.002  -0.004   0.002  0.00  0.00    +0.026 A 
ATOM     10 CL   UNL     1       3.918  -0.810  -0.040  0.00  0.00    -0.081 Cl
BRANCH   9  11
ATOM     11  N   UNL     1      -1.197  -0.720   0.010  0.00  0.00    -0.358 N 
ATOM     12  H   UNL     1      -2.044  -0.248   0.021  0.00  0.00    +0.142 HD
ATOM     13  H   UNL     1      -1.183  -1.690   0.005  0.00  0.00    +0.142 HD
ENDBRANCH   9  11
ENDBRANCH   1   6
BRANCH   1  14
ATOM     14  N   UNL     1       4.667   1.992   1.401  0.00  0.00    -0.190 NA
ATOM     15  H   UNL     1       4.811   2.698   2.050  0.00  0.00    +0.148 HD
BRANCH  14  16
ATOM     16  C   UNL     1       5.137   0.633   1.682  0.00  0.00    +0.107 C 
BRANCH  16  17
ATOM     17  C   UNL     1       6.125   0.666   2.849  0.00  0.00    -0.014 C 
ATOM     18  C   UNL     1       7.452   1.354   2.435  0.00  0.00    -0.016 C 
ATOM     19  C   UNL     1       8.485   0.722   3.391  0.00  0.00    -0.078 C 
ATOM     20  N   UNL     1       7.926  -0.562   3.852  0.00  0.00    +0.382 N 
ATOM     21  C   UNL     1       6.610  -0.761   3.207  0.00  0.00    -0.074 C 
ATOM     22  H   UNL     1       7.813  -0.544   4.854  0.00  0.00    -0.081 HD
BRANCH  20  23
ATOM     23  C   UNL     1       8.831  -1.657   3.478  0.00  0.00    -0.069 C 
ATOM     24  C   UNL     1       9.223  -2.654   4.571  0.00  0.00    -0.017 C 
ATOM     25  C   UNL     1      10.245  -1.635   4.061  0.00  0.00    -0.017 C 
ENDBRANCH  20  23
ENDBRANCH  16  17
ENDBRANCH  14  16
ENDBRANCH   1  14
TORSDOF 6
