REMARK  Name = ZINC63350829
REMARK  8 active torsions:
REMARK  status: ('A' for Active; 'I' for Inactive)
REMARK    1  A    between atoms: C_1  and  C_2
REMARK    2  A    between atoms: C_2  and  C_3
REMARK    3  A    between atoms: C_2  and  C_4
REMARK    4  A    between atoms: C_2  and  O_5
REMARK    5  A    between atoms: O_5  and  C_6
REMARK    6  A    between atoms: N_8  and  N_9
REMARK    7  A    between atoms: C_29  and  C_31
REMARK    8  A    between atoms: C_35  and  N_37
REMARK                            x       y       z     vdW  Elec       q    Type
REMARK                         _______ _______ _______ _____ _____    ______ ____
ROOT
ATOM      1  N   UNL     1       2.023  -1.296  -3.385  0.00  0.00    -0.207 N 
ATOM      2  C   UNL     1       1.771  -2.729  -3.142  0.00  0.00    +0.226 C 
ATOM      3  C   UNL     1       0.355  -3.047  -3.572  0.00  0.00    +0.236 C 
ATOM      4  O   UNL     1      -0.374  -3.738  -2.892  0.00  0.00    -0.274 OA
ATOM      5  N   UNL     1      -0.065  -2.518  -4.768  0.00  0.00    -0.279 N 
ATOM      6  C   UNL     1       0.938  -1.782  -5.508  0.00  0.00    +0.168 C 
ATOM      7  C   UNL     1       1.619  -0.799  -4.591  0.00  0.00    +0.253 C 
ATOM      8  O   UNL     1       1.800   0.359  -4.905  0.00  0.00    -0.272 OA
ATOM      9  C   UNL     1       0.543  -1.161  -6.823  0.00  0.00    +0.065 C 
ATOM     10  C   UNL     1      -0.948  -1.251  -7.005  0.00  0.00    -0.034 C 
ATOM     11  C   UNL     1      -1.840  -0.392  -7.479  0.00  0.00    -0.001 A 
ATOM     12  C   UNL     1      -1.695   0.958  -8.048  0.00  0.00    +0.010 A 
ATOM     13  C   UNL     1      -2.844   1.572  -8.435  0.00  0.00    +0.001 A 
ATOM     14  C   UNL     1      -4.108   0.985  -8.316  0.00  0.00    +0.002 A 
ATOM     15  C   UNL     1      -4.333  -0.253  -7.809  0.00  0.00    +0.026 A 
ATOM     16  C   UNL     1      -3.201  -0.999  -7.370  0.00  0.00    +0.043 A 
ATOM     17  N   UNL     1      -3.127  -2.192  -6.862  0.00  0.00    -0.375 N 
ATOM     18  C   UNL     1      -1.716  -2.510  -6.608  0.00  0.00    +0.131 C 
ATOM     19  C   UNL     1      -1.463  -2.714  -5.122  0.00  0.00    +0.133 C 
ATOM     20  H   UNL     1      -3.880  -2.777  -6.681  0.00  0.00    +0.160 HD
ENDROOT
BRANCH  19  21
ATOM     21  C   UNL     1      -2.304  -1.708  -4.378  0.00  0.00    -0.023 A 
ATOM     22  C   UNL     1      -1.858  -0.408  -4.233  0.00  0.00    +0.005 A 
ATOM     23  C   UNL     1      -2.628   0.515  -3.551  0.00  0.00    +0.003 A 
ATOM     24  C   UNL     1      -3.845   0.137  -3.014  0.00  0.00    +0.033 A 
ATOM     25  C   UNL     1      -4.292  -1.163  -3.160  0.00  0.00    +0.127 A 
ATOM     26  C   UNL     1      -3.523  -2.084  -3.846  0.00  0.00    +0.038 A 
BRANCH  25  27
ATOM     27  N   UNL     1      -5.594  -1.567  -2.586  0.00  0.00    +0.056 N 
ATOM     28  O   UNL     1      -6.268  -0.760  -1.988  0.00  0.00    -0.126 OA
ATOM     29  O   UNL     1      -5.984  -2.704  -2.713  0.00  0.00    -0.126 OA
ENDBRANCH  25  27
ENDBRANCH  19  21
BRANCH   1  32
ATOM     30  C   UNL     1       1.952  -0.085  -1.337  0.00  0.00    +0.417 C 
ATOM     31  O   UNL     1       2.488   0.619  -0.503  0.00  0.00    -0.225 OA
ATOM     32  N   UNL     1       2.641  -0.485  -2.424  0.00  0.00    -0.197 N 
ATOM     33  H   UNL     1       3.564  -0.211  -2.541  0.00  0.00    +0.176 HD
BRANCH  30  34
ATOM     34  O   UNL     1       0.671  -0.465  -1.174  0.00  0.00    -0.444 OA
BRANCH  34  36
ATOM     35  C   UNL     1      -0.019   1.526   0.010  0.00  0.00    +0.055 C 
ATOM     36  C   UNL     1       0.002  -0.004   0.002  0.00  0.00    +0.107 C 
ATOM     37  C   UNL     1       0.742  -0.511   1.242  0.00  0.00    +0.055 C 
ATOM     38  C   UNL     1      -1.433  -0.534   0.013  0.00  0.00    +0.055 C 
ENDBRANCH  34  36
ENDBRANCH  30  34
ENDBRANCH   1  32
TORSDOF 5
