REMARK  Name = ZINC57958136
REMARK  8 active torsions:
REMARK  status: ('A' for Active; 'I' for Inactive)
REMARK    1  A    between atoms: C_1  and  C_2
REMARK    2  A    between atoms: C_2  and  C_3
REMARK    3  A    between atoms: C_2  and  C_4
REMARK    4  A    between atoms: C_4  and  N_5
REMARK    5  A    between atoms: C_15  and  C_20
REMARK    6  A    between atoms: C_20  and  O_22
REMARK    7  A    between atoms: O_22  and  C_23
REMARK    8  A    between atoms: C_23  and  C_24
REMARK                            x       y       z     vdW  Elec       q    Type
REMARK                         _______ _______ _______ _____ _____    ______ ____
ROOT
ATOM      1  N   UNL     1      -1.107  -1.710  -0.585  0.00  0.00    -0.266 N 
ATOM      2  C   UNL     1      -1.011  -2.184  -1.847  0.00  0.00    +0.250 C 
ATOM      3  O   UNL     1      -1.068  -1.417  -2.789  0.00  0.00    -0.270 OA
ATOM      4  C   UNL     1      -0.836  -3.629  -2.088  0.00  0.00    +0.058 A 
ATOM      5  C   UNL     1      -0.396  -4.129  -3.309  0.00  0.00    +0.015 A 
ATOM      6  C   UNL     1      -0.267  -5.493  -3.478  0.00  0.00    +0.001 A 
ATOM      7  C   UNL     1      -0.572  -6.366  -2.446  0.00  0.00    +0.002 A 
ATOM      8  C   UNL     1      -1.006  -5.883  -1.223  0.00  0.00    +0.024 A 
ATOM      9  C   UNL     1      -1.131  -4.523  -1.039  0.00  0.00    +0.051 A 
ATOM     10  N   UNL     1      -1.520  -3.940   0.169  0.00  0.00    -0.239 N 
ATOM     11  C   UNL     1      -1.008  -2.611   0.561  0.00  0.00    +0.210 C 
ATOM     12  C   UNL     1      -1.873  -2.130   1.729  0.00  0.00    +0.067 C 
ATOM     13  C   UNL     1      -2.729  -3.360   2.088  0.00  0.00    +0.101 C 
ATOM     14  C   UNL     1      -2.362  -4.427   1.083  0.00  0.00    +0.222 C 
ATOM     15  O   UNL     1      -2.765  -5.570   1.109  0.00  0.00    -0.275 OA
ENDROOT
BRANCH  11  16
ATOM     16  C   UNL     1       0.430  -2.723   1.000  0.00  0.00    +0.351 C 
ATOM     17  O   UNL     1       1.239  -1.904   0.632  0.00  0.00    -0.246 OA
BRANCH  16  18
ATOM     18  O   UNL     1       0.811  -3.732   1.798  0.00  0.00    -0.456 OA
BRANCH  18  19
ATOM     19  C   UNL     1       2.189  -3.776   2.175  0.00  0.00    +0.289 C 
BRANCH  19  20
ATOM     20  C   UNL     1       2.428  -4.968   3.065  0.00  0.00    +0.097 A 
ATOM     21  C   UNL     1       1.494  -5.866   3.449  0.00  0.00    +0.119 A 
ATOM     22  N   UNL     1       2.120  -6.784   4.247  0.00  0.00    -0.306 N 
ATOM     23  C   UNL     1       1.673  -7.894   4.903  0.00  0.00    +0.092 A 
ATOM     24  C   UNL     1       2.518  -8.644   5.640  0.00  0.00    +0.018 A 
ATOM     25  C   UNL     1       3.874  -8.290   5.743  0.00  0.00    +0.005 A 
ATOM     26  C   UNL     1       4.333  -7.186   5.094  0.00  0.00    +0.047 A 
ATOM     27  C   UNL     1       3.437  -6.414   4.328  0.00  0.00    +0.138 A 
ATOM     28  N   UNL     1       3.600  -5.317   3.602  0.00  0.00    -0.229 NA
ENDBRANCH  19  20
ENDBRANCH  18  19
ENDBRANCH  16  18
ENDBRANCH  11  16
BRANCH   1  29
ATOM     29  C   UNL     1      -1.306  -0.275  -0.364  0.00  0.00    +0.113 C 
BRANCH  29  31
ATOM     30  C   UNL     1      -3.022   1.518  -0.079  0.00  0.00    +0.009 C 
ATOM     31  C   UNL     1      -2.797   0.053  -0.459  0.00  0.00    +0.000 C 
ATOM     32  C   UNL     1      -3.280  -0.181  -1.892  0.00  0.00    +0.009 C 
ENDBRANCH  29  31
ENDBRANCH   1  29
TORSDOF 6
