REMARK  Name = ZINC16007125
REMARK  4 active torsions:
REMARK  status: ('A' for Active; 'I' for Inactive)
REMARK    1  A    between atoms: C_21  and  C_32
REMARK    2  A    between atoms: C_23  and  C_25
REMARK    3  A    between atoms: C_25  and  C_27
REMARK    4  A    between atoms: C_32  and  C_34
REMARK                            x       y       z     vdW  Elec       q    Type
REMARK                         _______ _______ _______ _____ _____    ______ ____
ROOT
ATOM      1  C   UNL     1      10.189  -0.102  -0.894  0.00  0.00    +0.001 A 
ATOM      2  C   UNL     1       9.789  -1.351  -1.331  0.00  0.00    +0.000 A 
ATOM      3  C   UNL     1       8.520  -1.821  -1.043  0.00  0.00    +0.006 A 
ATOM      4  C   UNL     1       7.618  -1.034  -0.355  0.00  0.00    -0.020 A 
ATOM      5  C   UNL     1       8.035   0.215   0.125  0.00  0.00    -0.019 A 
ATOM      6  C   UNL     1       9.324   0.677  -0.155  0.00  0.00    +0.008 A 
ATOM      7  C   UNL     1       7.133   1.052   0.939  0.00  0.00    +0.022 C 
ATOM      8  C   UNL     1       5.833   0.730   1.044  0.00  0.00    +0.054 C 
ATOM      9  C   UNL     1       6.232  -1.516  -0.066  0.00  0.00    +0.107 C 
ATOM     10  C   UNL     1       5.508  -2.176  -1.235  0.00  0.00    +0.107 C 
ATOM     11  C   UNL     1       6.315  -2.383  -2.462  0.00  0.00    -0.008 A 
ATOM     12  C   UNL     1       7.075  -1.537  -3.247  0.00  0.00    +0.006 A 
ATOM     13  C   UNL     1       7.686  -2.078  -4.371  0.00  0.00    +0.000 A 
ATOM     14  C   UNL     1       7.559  -3.413  -4.690  0.00  0.00    +0.002 A 
ATOM     15  C   UNL     1       6.823  -4.282  -3.901  0.00  0.00    +0.023 A 
ATOM     16  C   UNL     1       6.205  -3.750  -2.770  0.00  0.00    +0.038 A 
ATOM     17  N   UNL     1       5.457  -4.407  -1.808  0.00  0.00    -0.284 N 
ATOM     18  C   UNL     1       5.051  -3.569  -0.834  0.00  0.00    +0.231 C 
ATOM     19  O   UNL     1       4.440  -3.855   0.172  0.00  0.00    -0.274 OA
ATOM     20  C   UNL     1       4.250  -1.312  -1.481  0.00  0.00    +0.108 C 
ATOM     21  C   UNL     1       4.017  -0.698  -0.069  0.00  0.00    +0.143 C 
ATOM     22  H   UNL     1       5.252  -5.356  -1.833  0.00  0.00    +0.155 HD
ATOM     23  N   UNL     1       5.451  -0.315  -0.001  0.00  0.00    -0.383 NA
ATOM     24  H   UNL     1       5.641   0.161  -0.891  0.00  0.00    +0.127 HD
ENDROOT
BRANCH  21  25
ATOM     25  C   UNL     1       3.179   0.546  -0.165  0.00  0.00    +0.217 C 
ATOM     26  O   UNL     1       3.708   1.639  -0.128  0.00  0.00    -0.287 OA
BRANCH  25  27
ATOM     27  C   UNL     1       1.776   0.445  -0.298  0.00  0.00    +0.172 A 
ATOM     28  C   UNL     1       0.889   1.499  -0.397  0.00  0.00    +0.053 A 
ATOM     29  C   UNL     1      -0.388   0.935  -0.512  0.00  0.00    +0.042 A 
ATOM     30  C   UNL     1      -0.238  -0.409  -0.481  0.00  0.00    +0.196 A 
ATOM     31  O   UNL     1       1.062  -0.700  -0.353  0.00  0.00    -0.460 OA
ENDBRANCH  25  27
ENDBRANCH  21  25
BRANCH  20  32
ATOM     32  C   UNL     1       4.477  -0.230  -2.500  0.00  0.00    +0.170 C 
ATOM     33  O   UNL     1       5.045   0.793  -2.182  0.00  0.00    -0.292 OA
BRANCH  32  34
ATOM     34  C   UNL     1       4.009  -0.412  -3.882  0.00  0.00    +0.018 A 
ATOM     35  C   UNL     1       3.359  -1.594  -4.255  0.00  0.00    +0.013 A 
ATOM     36  C   UNL     1       2.919  -1.755  -5.551  0.00  0.00    +0.020 A 
ATOM     37  C   UNL     1       3.129  -0.755  -6.487  0.00  0.00    +0.041 A 
ATOM     38  C   UNL     1       3.777   0.415  -6.127  0.00  0.00    +0.020 A 
ATOM     39  C   UNL     1       4.218   0.593  -4.833  0.00  0.00    +0.013 A 
ATOM     40 CL   UNL     1       2.578  -0.971  -8.119  0.00  0.00    -0.084 Cl
ENDBRANCH  32  34
ENDBRANCH  20  32
TORSDOF 4
