REMARK  Name = ZINC36032829
REMARK  9 active torsions:
REMARK  status: ('A' for Active; 'I' for Inactive)
REMARK    1  A    between atoms: C_1  and  C_2
REMARK    2  A    between atoms: C_2  and  C_3
REMARK    3  A    between atoms: C_2  and  C_4
REMARK    4  A    between atoms: C_4  and  C_5
REMARK    5  A    between atoms: N_9  and  C_28
REMARK    6  A    between atoms: N_14  and  S_17
REMARK    7  A    between atoms: S_17  and  C_20
REMARK    8  A    between atoms: C_28  and  C_29
REMARK    9  A    between atoms: C_28  and  C_30
REMARK                            x       y       z     vdW  Elec       q    Type
REMARK                         _______ _______ _______ _____ _____    ______ ____
ROOT
ATOM      1  C   UNL     1      -1.189  -2.437  -0.021  0.00  0.00    +0.019 C 
ATOM      2  C   UNL     1      -2.517  -3.142   0.153  0.00  0.00    +0.201 C 
ATOM      3  O   UNL     1      -3.106  -3.295   1.202  0.00  0.00    -0.277 OA
ATOM      4  N   UNL     1      -2.936  -3.570  -1.056  0.00  0.00    -0.311 N 
ATOM      5  C   UNL     1      -1.950  -3.200  -2.075  0.00  0.00    +0.006 C 
ATOM      6  N   UNL     1      -1.098  -2.150  -1.474  0.00  0.00    +0.401 N 
ATOM      7  C   UNL     1      -1.093  -4.409  -2.444  0.00  0.00    +0.023 C 
ATOM      8  C   UNL     1      -1.988  -5.506  -3.029  0.00  0.00    +0.109 C 
ATOM      9  N   UNL     1      -2.762  -4.941  -4.143  0.00  0.00    -0.177 NA
ATOM     10  C   UNL     1      -3.561  -3.731  -3.907  0.00  0.00    +0.109 C 
ATOM     11  C   UNL     1      -2.653  -2.648  -3.314  0.00  0.00    +0.023 C 
ATOM     12  H   UNL     1      -1.465  -1.233  -1.679  0.00  0.00    -0.082 HD
ATOM     13  H   UNL     1      -0.145  -2.235  -1.795  0.00  0.00    -0.082 HD
ENDROOT
BRANCH   9  14
ATOM     14  S   UNL     1      -2.734  -5.655  -5.637  0.00  0.00    +0.062 S 
ATOM     15  O   UNL     1      -3.070  -4.643  -6.576  0.00  0.00    -0.153 OA
ATOM     16  O   UNL     1      -1.521  -6.391  -5.712  0.00  0.00    -0.153 OA
BRANCH  14  17
ATOM     17  C   UNL     1      -4.042  -6.834  -5.676  0.00  0.00    +0.125 A 
ATOM     18  C   UNL     1      -5.102  -6.661  -6.546  0.00  0.00    +0.030 A 
ATOM     19  C   UNL     1      -6.129  -7.586  -6.578  0.00  0.00    +0.003 A 
ATOM     20  C   UNL     1      -6.098  -8.684  -5.739  0.00  0.00    +0.021 A 
ATOM     21  C   UNL     1      -5.038  -8.858  -4.867  0.00  0.00    +0.061 A 
ATOM     22  C   UNL     1      -4.006  -7.935  -4.840  0.00  0.00    +0.086 A 
ATOM     23 CL   UNL     1      -2.671  -8.156  -3.753  0.00  0.00    -0.080 Cl
ATOM     24 CL   UNL     1      -4.997 -10.237  -3.813  0.00  0.00    -0.082 Cl
ENDBRANCH  14  17
ENDBRANCH   9  14
BRANCH   4  25
ATOM     25  C   UNL     1      -4.184  -4.294  -1.310  0.00  0.00    +0.068 C 
ATOM     26  C   UNL     1      -4.499  -5.202  -0.120  0.00  0.00    +0.027 C 
ATOM     27  C   UNL     1      -5.325  -3.292  -1.504  0.00  0.00    +0.027 C 
ENDBRANCH   4  25
BRANCH   1  28
ATOM     28  C   UNL     1      -1.167  -1.135   0.782  0.00  0.00    -0.004 C 
BRANCH  28  30
ATOM     29  C   UNL     1       0.183   0.894   1.331  0.00  0.00    +0.007 C 
ATOM     30  C   UNL     1       0.201  -0.467   0.631  0.00  0.00    -0.018 C 
ATOM     31  C   UNL     1       1.274  -1.353   1.267  0.00  0.00    +0.007 C 
ENDBRANCH  28  30
ENDBRANCH   1  28
TORSDOF 5
