REMARK  Name = ZINC63492419
REMARK  4 active torsions:
REMARK  status: ('A' for Active; 'I' for Inactive)
REMARK    1  A    between atoms: C_1  and  N_2
REMARK    2  A    between atoms: C_3  and  O_29
REMARK    3  A    between atoms: C_5  and  C_13
REMARK    4  A    between atoms: N_9  and  C_12
REMARK                            x       y       z     vdW  Elec       q    Type
REMARK                         _______ _______ _______ _____ _____    ______ ____
ROOT
ATOM      1  C   UNL     1      -1.089  -1.621  -2.330  0.00  0.00    +0.096 C 
ATOM      2  C   UNL     1      -1.056  -2.887  -3.190  0.00  0.00    +0.124 C 
ATOM      3  C   UNL     1      -0.857  -2.420  -4.627  0.00  0.00    -0.036 C 
ATOM      4  C   UNL     1      -1.840  -2.957  -5.336  0.00  0.00    +0.001 A 
ATOM      5  C   UNL     1      -2.131  -2.943  -6.779  0.00  0.00    +0.030 A 
ATOM      6  C   UNL     1      -3.256  -3.600  -7.170  0.00  0.00    +0.042 A 
ATOM      7  C   UNL     1      -4.109  -4.262  -6.281  0.00  0.00    +0.022 A 
ATOM      8  C   UNL     1      -3.915  -4.332  -4.940  0.00  0.00    +0.027 A 
ATOM      9  C   UNL     1      -2.762  -3.683  -4.409  0.00  0.00    +0.043 A 
ATOM     10  N   UNL     1      -2.324  -3.616  -3.167  0.00  0.00    -0.376 N 
ATOM     11 CL   UNL     1      -3.654  -3.617  -8.860  0.00  0.00    -0.084 Cl
ATOM     12  C   UNL     1       0.236  -1.448  -5.000  0.00  0.00    +0.048 C 
ATOM     13  C   UNL     1       0.156  -0.299  -3.978  0.00  0.00    +0.085 C 
ATOM     14  N   UNL     1       0.122  -0.836  -2.615  0.00  0.00    -0.310 NA
ATOM     15  H   UNL     1       0.246  -0.102  -1.934  0.00  0.00    +0.122 HD
ATOM     16  H   UNL     1      -2.757  -3.977  -2.377  0.00  0.00    +0.160 HD
ENDROOT
BRANCH   1  20
ATOM     17  C   UNL     1      -0.018   1.461   0.010  0.00  0.00    +0.136 C 
ATOM     18  N   UNL     1       0.002  -0.004   0.002  0.00  0.00    -0.262 N 
ATOM     19  C   UNL     1      -1.262  -0.743   0.004  0.00  0.00    +0.219 C 
ATOM     20  C   UNL     1      -1.117  -2.006  -0.849  0.00  0.00    +0.142 C 
ATOM     21  C   UNL     1       0.167  -2.706  -0.484  0.00  0.00    +0.232 C 
ATOM     22  O   UNL     1       0.227  -3.916  -0.511  0.00  0.00    -0.275 OA
ATOM     23  N   UNL     1       1.248  -1.986  -0.129  0.00  0.00    -0.229 N 
ATOM     24  C   UNL     1       1.179  -0.650  -0.013  0.00  0.00    +0.313 C 
ATOM     25  O   UNL     1       2.208  -0.011   0.086  0.00  0.00    -0.252 OA
ATOM     26  C   UNL     1       2.517  -2.670   0.129  0.00  0.00    +0.142 C 
BRANCH  19  27
ATOM     27  O   UNL     1      -2.296   0.081  -0.537  0.00  0.00    -0.373 OA
ATOM     28  H   UNL     1      -2.444   0.901  -0.045  0.00  0.00    +0.212 HD
ENDBRANCH  19  27
ENDBRANCH   1  20
TORSDOF 2
