REMARK  Name = ZINC14664734
REMARK  9 active torsions:
REMARK  status: ('A' for Active; 'I' for Inactive)
REMARK    1  A    between atoms: C_1  and  C_2
REMARK    2  A    between atoms: C_2  and  C_3
REMARK    3  A    between atoms: C_2  and  O_4
REMARK    4  A    between atoms: O_4  and  C_5
REMARK    5  A    between atoms: C_10  and  C_11
REMARK    6  A    between atoms: N_13  and  C_14
REMARK    7  A    between atoms: C_14  and  N_16
REMARK    8  A    between atoms: N_16  and  N_17
REMARK    9  A    between atoms: C_18  and  C_20
REMARK                            x       y       z     vdW  Elec       q    Type
REMARK                         _______ _______ _______ _____ _____    ______ ____
ROOT
ATOM      1  C   UNL     1      -2.234  -0.387   0.226  0.00  0.00    +0.253 C 
ATOM      2  O   UNL     1      -2.420   0.796   0.437  0.00  0.00    -0.270 OA
ATOM      3  N   UNL     1      -3.260  -1.257   0.317  0.00  0.00    -0.263 N 
ATOM      4  H   UNL     1      -3.111  -2.200   0.148  0.00  0.00    +0.157 HD
ENDROOT
BRANCH   1  10
ATOM      5  C   UNL     1       0.183   0.031  -0.225  0.00  0.00    +0.133 A 
ATOM      6  C   UNL     1       1.444  -0.434  -0.566  0.00  0.00    +0.046 A 
ATOM      7  C   UNL     1       1.647  -1.779  -0.799  0.00  0.00    +0.004 A 
ATOM      8  C   UNL     1       0.592  -2.673  -0.705  0.00  0.00    +0.001 A 
ATOM      9  C   UNL     1      -0.669  -2.229  -0.373  0.00  0.00    +0.017 A 
ATOM     10  C   UNL     1      -0.887  -0.870  -0.129  0.00  0.00    +0.079 A 
BRANCH   5  11
ATOM     11  O   UNL     1      -0.016   1.352   0.009  0.00  0.00    -0.489 OA
BRANCH  11  13
ATOM     12  C   UNL     1       1.457   2.616  -1.431  0.00  0.00    +0.051 C 
ATOM     13  C   UNL     1       1.139   2.193   0.005  0.00  0.00    +0.167 C 
ATOM     14  C   UNL     1       0.868   3.437   0.854  0.00  0.00    +0.051 C 
ENDBRANCH  11  13
ENDBRANCH   5  11
ENDBRANCH   1  10
BRANCH   3  15
ATOM     15  C   UNL     1      -4.491  -0.815   0.641  0.00  0.00    +0.153 C 
ATOM     16  S   UNL     1      -4.752   0.851   0.938  0.00  0.00    -0.017 S 
BRANCH  15  17
ATOM     17  N   UNL     1      -5.516  -1.685   0.732  0.00  0.00    -0.245 N 
ATOM     18  H   UNL     1      -6.403  -1.367   0.966  0.00  0.00    +0.172 HD
BRANCH  17  19
ATOM     19  N   UNL     1      -5.303  -3.048   0.489  0.00  0.00    -0.231 N 
ATOM     20  C   UNL     1      -6.328  -3.918   0.580  0.00  0.00    +0.260 C 
ATOM     21  O   UNL     1      -7.439  -3.519   0.873  0.00  0.00    -0.269 OA
ATOM     22  H   UNL     1      -4.416  -3.366   0.255  0.00  0.00    +0.173 HD
BRANCH  20  23
ATOM     23  C   UNL     1      -6.102  -5.356   0.323  0.00  0.00    +0.038 A 
ATOM     24  C   UNL     1      -4.830  -5.816  -0.019  0.00  0.00    +0.013 A 
ATOM     25  C   UNL     1      -4.625  -7.160  -0.252  0.00  0.00    +0.001 A 
ATOM     26  C   UNL     1      -5.680  -8.050  -0.158  0.00  0.00    +0.000 A 
ATOM     27  C   UNL     1      -6.945  -7.600   0.175  0.00  0.00    +0.001 A 
ATOM     28  C   UNL     1      -7.162  -6.260   0.416  0.00  0.00    +0.013 A 
ENDBRANCH  20  23
ENDBRANCH  17  19
ENDBRANCH  15  17
ENDBRANCH   3  15
TORSDOF 7
