REMARK  Name = ZINC46531738
REMARK  9 active torsions:
REMARK  status: ('A' for Active; 'I' for Inactive)
REMARK    1  A    between atoms: C_1  and  C_2
REMARK    2  A    between atoms: C_2  and  C_3
REMARK    3  A    between atoms: C_3  and  C_5
REMARK    4  A    between atoms: C_3  and  N_6
REMARK    5  A    between atoms: C_7  and  C_9
REMARK    6  A    between atoms: C_13  and  C_15
REMARK    7  A    between atoms: C_15  and  N_16
REMARK    8  A    between atoms: N_19  and  C_20
REMARK    9  A    between atoms: N_19  and  C_21
REMARK                            x       y       z     vdW  Elec       q    Type
REMARK                         _______ _______ _______ _____ _____    ______ ____
ROOT
ATOM      1  C   UNL     1       7.174   1.093   4.590  0.00  0.00    +0.141 C 
ENDROOT
BRANCH   1   6
ATOM      2  C   UNL     1       4.287   0.437   2.232  0.00  0.00    +0.037 A 
ATOM      3  C   UNL     1       4.881   0.697   0.996  0.00  0.00    +0.013 A 
ATOM      4  C   UNL     1       6.205   1.080   0.937  0.00  0.00    +0.001 A 
ATOM      5  C   UNL     1       6.944   1.207   2.100  0.00  0.00    +0.005 A 
ATOM      6  C   UNL     1       6.361   0.952   3.329  0.00  0.00    -0.030 A 
ATOM      7  C   UNL     1       5.036   0.573   3.402  0.00  0.00    +0.018 A 
BRANCH   2   9
ATOM      8  N   UNL     1       2.148  -0.104   1.172  0.00  0.00    -0.309 N 
ATOM      9  C   UNL     1       2.869   0.026   2.303  0.00  0.00    +0.244 C 
ATOM     10  O   UNL     1       2.352  -0.194   3.381  0.00  0.00    -0.270 OA
ATOM     11  H   UNL     1       2.559   0.072   0.311  0.00  0.00    +0.149 HD
BRANCH   8  12
ATOM     12  C   UNL     1       0.742  -0.511   1.242  0.00  0.00    +0.070 C 
ATOM     13  C   UNL     1       0.655  -2.037   1.299  0.00  0.00    +0.028 C 
BRANCH  12  15
ATOM     14  C   UNL     1      -0.019   1.526   0.010  0.00  0.00    +0.005 C 
ATOM     15  C   UNL     1       0.002  -0.004   0.002  0.00  0.00    +0.018 C 
ENDBRANCH  12  15
ENDBRANCH   8  12
ENDBRANCH   2   9
ENDBRANCH   1   6
BRANCH   1  16
ATOM     16  N   UNL     1       7.058   2.463   5.095  0.00  0.00    -0.295 N 
ATOM     17  C   UNL     1       7.705   2.823   6.221  0.00  0.00    +0.303 C 
ATOM     18  O   UNL     1       8.385   2.011   6.818  0.00  0.00    -0.253 OA
ATOM     19  N   UNL     1       7.599   4.084   6.685  0.00  0.00    -0.282 N 
ATOM     20  C   UNL     1       6.781   5.063   5.965  0.00  0.00    +0.134 C 
ATOM     21  H   UNL     1       6.516   3.112   4.618  0.00  0.00    +0.151 HD
BRANCH  19  22
ATOM     22  C   UNL     1       8.303   4.476   7.909  0.00  0.00    +0.108 C 
ATOM     23  C   UNL     1       9.267   5.646   7.622  0.00  0.00    +0.032 C 
ATOM     24  C   UNL     1       9.196   6.462   8.930  0.00  0.00    +0.037 C 
ATOM     25  C   UNL     1       7.835   6.153   9.517  0.00  0.00    -0.042 A 
ATOM     26  C   UNL     1       7.321   5.009   8.931  0.00  0.00    -0.024 A 
ATOM     27  C   UNL     1       6.080   4.533   9.316  0.00  0.00    +0.006 A 
ATOM     28  C   UNL     1       5.351   5.196  10.285  0.00  0.00    +0.000 A 
ATOM     29  C   UNL     1       5.863   6.337  10.873  0.00  0.00    +0.000 A 
ATOM     30  C   UNL     1       7.104   6.818  10.486  0.00  0.00    +0.004 A 
ENDBRANCH  19  22
ENDBRANCH   1  16
TORSDOF 6
