REMARK  Name = ZINC21155789
REMARK  8 active torsions:
REMARK  status: ('A' for Active; 'I' for Inactive)
REMARK    1  A    between atoms: C_1  and  C_2
REMARK    2  A    between atoms: C_3  and  C_21
REMARK    3  A    between atoms: C_4  and  S_9
REMARK    4  A    between atoms: C_5  and  C_8
REMARK    5  A    between atoms: N_6  and  C_7
REMARK    6  A    between atoms: S_9  and  N_12
REMARK    7  A    between atoms: N_12  and  C_13
REMARK    8  A    between atoms: C_26  and  C_29
REMARK                            x       y       z     vdW  Elec       q    Type
REMARK                         _______ _______ _______ _____ _____    ______ ____
ROOT
ATOM      1  C   UNL     1      -2.361   2.775   5.950  0.00  0.00    +0.064 C 
ATOM      2  C   UNL     1      -2.213   2.021   4.653  0.00  0.00    +0.030 A 
ATOM      3  C   UNL     1      -2.630   2.453   3.424  0.00  0.00    +0.084 A 
ATOM      4  C   UNL     1      -2.273   1.391   2.477  0.00  0.00    +0.143 A 
ATOM      5  C   UNL     1      -1.686   0.421   3.200  0.00  0.00    +0.043 A 
ATOM      6  N   UNL     1      -1.647   0.807   4.508  0.00  0.00    -0.349 N 
ATOM      7  C   UNL     1      -1.079   0.013   5.599  0.00  0.00    +0.149 C 
ATOM      8  C   UNL     1      -1.155  -0.879   2.653  0.00  0.00    +0.065 C 
ENDROOT
BRANCH   3   9
ATOM      9  C   UNL     1      -3.301   3.727   3.115  0.00  0.00    +0.250 C 
ATOM     10  O   UNL     1      -4.515   3.797   3.145  0.00  0.00    -0.270 OA
ATOM     11  N   UNL     1      -2.571   4.814   2.798  0.00  0.00    -0.297 N 
ATOM     12  C   UNL     1      -1.103   4.746   2.763  0.00  0.00    +0.108 C 
ATOM     13  C   UNL     1      -0.533   5.851   3.652  0.00  0.00    +0.022 C 
ATOM     14  C   UNL     1      -1.111   7.200   3.219  0.00  0.00    -0.011 C 
ATOM     15  C   UNL     1      -2.632   7.182   3.384  0.00  0.00    +0.022 C 
ATOM     16  C   UNL     1      -3.227   6.092   2.487  0.00  0.00    +0.108 C 
ATOM     17  C   UNL     1      -0.517   8.311   4.087  0.00  0.00    +0.007 C 
ENDBRANCH   3   9
BRANCH   4  18
ATOM     18  S   UNL     1      -2.563   1.386   0.739  0.00  0.00    +0.094 S 
ATOM     19  O   UNL     1      -3.651   2.270   0.505  0.00  0.00    -0.148 OA
ATOM     20  O   UNL     1      -2.588   0.024   0.336  0.00  0.00    -0.148 OA
BRANCH  18  21
ATOM     21  N   UNL     1      -1.236   2.068   0.019  0.00  0.00    -0.095 NA
BRANCH  21  22
ATOM     22  C   UNL     1       0.020   1.469   0.157  0.00  0.00    +0.112 A 
ATOM     23  C   UNL     1       0.131   0.086   0.191  0.00  0.00    +0.068 A 
ATOM     24  C   UNL     1       1.375  -0.504   0.322  0.00  0.00    +0.125 A 
ATOM     25  C   UNL     1       2.510   0.284   0.420  0.00  0.00    +0.041 A 
ATOM     26  C   UNL     1       2.402   1.663   0.387  0.00  0.00    +0.043 A 
ATOM     27  C   UNL     1       1.161   2.258   0.256  0.00  0.00    +0.148 A 
ATOM     28  F   UNL     1       1.057   3.604   0.224  0.00  0.00    -0.203 F 
ATOM     29  F   UNL     1       1.484  -1.850   0.354  0.00  0.00    -0.205 F 
ENDBRANCH  21  22
ENDBRANCH  18  21
ENDBRANCH   4  18
TORSDOF 4
