REMARK  Name = ZINC34966154
REMARK  14 active torsions:
REMARK  status: ('A' for Active; 'I' for Inactive)
REMARK    1  A    between atoms: C_1  and  C_2
REMARK    2  A    between atoms: C_2  and  N_3
REMARK    3  A    between atoms: N_3  and  C_4
REMARK    4  A    between atoms: N_3  and  C_6
REMARK    5  A    between atoms: C_4  and  C_5
REMARK    6  A    between atoms: C_6  and  C_7
REMARK    7  A    between atoms: C_7  and  N_8
REMARK    8  A    between atoms: N_8  and  C_9
REMARK    9  A    between atoms: C_9  and  C_10
REMARK   10  A    between atoms: N_12  and  C_13
REMARK   11  A    between atoms: N_12  and  C_19
REMARK   12  A    between atoms: C_25  and  C_27
REMARK   13  A    between atoms: C_27  and  C_28
REMARK   14  A    between atoms: C_31  and  N_34
REMARK                            x       y       z     vdW  Elec       q    Type
REMARK                         _______ _______ _______ _____ _____    ______ ____
ROOT
ATOM      1  N   UNL     1      -0.993  -3.561   2.155  0.00  0.00    -0.294 N 
ATOM      2  C   UNL     1      -2.012  -4.071   2.873  0.00  0.00    +0.220 C 
ATOM      3  O   UNL     1      -1.989  -5.233   3.219  0.00  0.00    -0.275 OA
ENDROOT
BRANCH   1   4
ATOM      4  C   UNL     1      -1.021  -2.157   1.737  0.00  0.00    +0.090 C 
BRANCH   4   5
ATOM      5  C   UNL     1      -1.703  -2.045   0.371  0.00  0.00    -0.060 C 
BRANCH   5   6
ATOM      6  N   UNL     1      -1.732  -0.637  -0.047  0.00  0.00    +0.380 N 
ATOM      7  H   UNL     1      -2.174  -0.082   0.670  0.00  0.00    -0.082 HD
BRANCH   6   9
ATOM      8  C   UNL     1      -0.378   1.340  -0.556  0.00  0.00    -0.017 C 
ATOM      9  C   UNL     1      -0.358  -0.161  -0.259  0.00  0.00    -0.082 C 
ENDBRANCH   6   9
BRANCH   6  10
ATOM     10  C   UNL     1      -2.490  -0.514  -1.299  0.00  0.00    -0.082 C 
ATOM     11  C   UNL     1      -3.956  -0.873  -1.045  0.00  0.00    -0.017 C 
ENDBRANCH   6  10
ENDBRANCH   5   6
ENDBRANCH   4   5
ENDBRANCH   1   4
BRANCH   1  12
ATOM     12  C   UNL     1       0.144  -4.410   1.791  0.00  0.00    +0.203 C 
BRANCH  12  13
ATOM     13  C   UNL     1       1.196  -4.330   2.868  0.00  0.00    +0.233 C 
ATOM     14  O   UNL     1       0.922  -3.851   3.948  0.00  0.00    -0.274 OA
ATOM     15  N   UNL     1       2.439  -4.792   2.630  0.00  0.00    -0.294 N 
BRANCH  15  16
ATOM     16  C   UNL     1       3.419  -4.849   3.718  0.00  0.00    +0.076 C 
ATOM     17  C   UNL     1       2.860  -5.693   4.865  0.00  0.00    +0.022 C 
ATOM     18  C   UNL     1       3.883  -5.753   6.000  0.00  0.00    +0.002 C 
ATOM     19  C   UNL     1       4.171  -4.336   6.503  0.00  0.00    +0.000 C 
ATOM     20  C   UNL     1       4.730  -3.492   5.356  0.00  0.00    +0.002 C 
ATOM     21  C   UNL     1       3.707  -3.432   4.220  0.00  0.00    +0.022 C 
ENDBRANCH  15  16
BRANCH  15  22
ATOM     22  C   UNL     1       2.812  -5.236   1.285  0.00  0.00    +0.076 C 
ATOM     23  C   UNL     1       2.813  -4.038   0.334  0.00  0.00    +0.022 C 
ATOM     24  C   UNL     1       3.201  -4.502  -1.071  0.00  0.00    +0.002 C 
ATOM     25  C   UNL     1       2.192  -5.542  -1.562  0.00  0.00    +0.000 C 
ATOM     26  C   UNL     1       2.191  -6.740  -0.611  0.00  0.00    +0.002 C 
ATOM     27  C   UNL     1       1.802  -6.276   0.794  0.00  0.00    +0.022 C 
ENDBRANCH  15  22
ENDBRANCH  12  13
ENDBRANCH   1  12
BRANCH   2  28
ATOM     28  C   UNL     1      -3.182  -3.197   3.248  0.00  0.00    +0.131 C 
BRANCH  28  29
ATOM     29  C   UNL     1      -4.176  -4.002   4.044  0.00  0.00    -0.038 A 
ATOM     30  C   UNL     1      -5.186  -4.689   3.396  0.00  0.00    +0.006 A 
ATOM     31  C   UNL     1      -6.098  -5.427   4.126  0.00  0.00    +0.033 A 
ATOM     32  C   UNL     1      -6.000  -5.480   5.504  0.00  0.00    +0.126 A 
ATOM     33  C   UNL     1      -4.989  -4.794   6.152  0.00  0.00    +0.033 A 
ATOM     34  C   UNL     1      -4.075  -4.059   5.421  0.00  0.00    +0.006 A 
BRANCH  32  35
ATOM     35  N   UNL     1      -6.977  -6.270   6.286  0.00  0.00    +0.056 N 
ATOM     36  O   UNL     1      -7.861  -6.869   5.720  0.00  0.00    -0.126 OA
ATOM     37  O   UNL     1      -6.891  -6.316   7.491  0.00  0.00    -0.126 OA
ENDBRANCH  32  35
ENDBRANCH  28  29
ENDBRANCH   2  28
TORSDOF 12
