REMARK  Name = ZINC21243606
REMARK  8 active torsions:
REMARK  status: ('A' for Active; 'I' for Inactive)
REMARK    1  A    between atoms: C_1  and  C_2
REMARK    2  A    between atoms: C_2  and  C_3
REMARK    3  A    between atoms: C_6  and  C_9
REMARK    4  A    between atoms: C_14  and  C_24
REMARK    5  A    between atoms: C_26  and  O_32
REMARK    6  A    between atoms: C_27  and  O_31
REMARK    7  A    between atoms: O_32  and  C_33
REMARK    8  A    between atoms: C_33  and  C_34
REMARK                            x       y       z     vdW  Elec       q    Type
REMARK                         _______ _______ _______ _____ _____    ______ ____
ROOT
ATOM      1  C   UNL     1       5.758   2.889   2.365  0.00  0.00    +0.032 C 
ATOM      2  C   UNL     1       5.408   2.637   0.899  0.00  0.00    +0.059 C 
ATOM      3  C   UNL     1       3.923   2.863   0.675  0.00  0.00    +0.017 C 
ATOM      4  C   UNL     1       3.254   3.782   1.394  0.00  0.00    +0.036 C 
ATOM      5  C   UNL     1       1.789   4.117   1.260  0.00  0.00    +0.136 C 
ATOM      6  N   UNL     1       1.145   3.556   0.092  0.00  0.00    -0.331 N 
ATOM      7  C   UNL     1       1.007   2.175  -0.058  0.00  0.00    +0.049 A 
ATOM      8  C   UNL     1      -0.235   1.563  -0.042  0.00  0.00    +0.025 A 
ATOM      9  C   UNL     1      -0.312   0.182  -0.105  0.00  0.00    +0.002 A 
ATOM     10  C   UNL     1       0.839  -0.580  -0.181  0.00  0.00    +0.002 A 
ATOM     11  C   UNL     1       2.081   0.030  -0.215  0.00  0.00    +0.025 A 
ATOM     12  C   UNL     1       2.159   1.412  -0.171  0.00  0.00    +0.052 A 
ATOM     13  N   UNL     1       3.365   2.091  -0.292  0.00  0.00    -0.316 N 
ATOM     14  C   UNL     1       3.927   4.535   2.385  0.00  0.00    +0.163 C 
ATOM     15  O   UNL     1       3.304   5.372   3.010  0.00  0.00    -0.292 OA
ATOM     16  C   UNL     1       5.381   4.338   2.692  0.00  0.00    +0.088 C 
ATOM     17  H   UNL     1       0.754   4.220  -0.693  0.00  0.00    +0.147 HD
ATOM     18  H   UNL     1       3.875   1.967  -1.259  0.00  0.00    +0.152 HD
ENDROOT
BRANCH   5  19
ATOM     19  C   UNL     1       1.074   3.614   2.487  0.00  0.00    -0.018 A 
ATOM     20  C   UNL     1       0.490   4.511   3.362  0.00  0.00    +0.055 A 
ATOM     21  C   UNL     1      -0.173   4.050   4.488  0.00  0.00    +0.163 A 
ATOM     22  C   UNL     1      -0.239   2.684   4.742  0.00  0.00    +0.177 A 
ATOM     23  C   UNL     1       0.353   1.789   3.865  0.00  0.00    +0.086 A 
ATOM     24  C   UNL     1       1.008   2.256   2.739  0.00  0.00    +0.029 A 
ATOM     25 CL   UNL     1       0.273   0.083   4.178  0.00  0.00    -0.080 Cl
BRANCH  22  26
ATOM     26  O   UNL     1      -0.885   2.227   5.849  0.00  0.00    -0.502 OA
ATOM     27  H   UNL     1      -0.936   1.146   6.049  0.00  0.00    +0.292 HD
ENDBRANCH  22  26
BRANCH  21  28
ATOM     28  O   UNL     1      -0.753   4.932   5.346  0.00  0.00    -0.489 OA
BRANCH  28  29
ATOM     29  C   UNL     1      -0.645   6.319   5.022  0.00  0.00    +0.226 C 
ATOM     30  C   UNL     1      -1.352   7.150   6.095  0.00  0.00    +0.048 C 
ENDBRANCH  28  29
ENDBRANCH  21  28
ENDBRANCH   5  19
BRANCH   1  34
ATOM     31  C   UNL     1       9.946   2.304   2.973  0.00  0.00    -0.048 A 
ATOM     32  C   UNL     1       9.032   1.532   3.667  0.00  0.00    +0.004 A 
ATOM     33  C   UNL     1       7.677   1.722   3.470  0.00  0.00    +0.004 A 
ATOM     34  C   UNL     1       7.235   2.682   2.580  0.00  0.00    -0.043 A 
ATOM     35  C   UNL     1       8.149   3.450   1.882  0.00  0.00    +0.004 A 
ATOM     36  C   UNL     1       9.504   3.264   2.082  0.00  0.00    +0.004 A 
BRANCH  31  38
ATOM     37  C   UNL     1      11.942   1.052   2.200  0.00  0.00    +0.009 C 
ATOM     38  C   UNL     1      11.423   2.098   3.189  0.00  0.00    +0.032 C 
ENDBRANCH  31  38
ENDBRANCH   1  34
TORSDOF 6
