REMARK  Name = ZINC02699186
REMARK  5 active torsions:
REMARK  status: ('A' for Active; 'I' for Inactive)
REMARK    1  A    between atoms: C_1  and  C_2
REMARK    2  A    between atoms: C_5  and  S_8
REMARK    3  A    between atoms: S_8  and  C_11
REMARK    4  A    between atoms: N_13  and  C_25
REMARK    5  A    between atoms: C_25  and  C_26
REMARK                            x       y       z     vdW  Elec       q    Type
REMARK                         _______ _______ _______ _____ _____    ______ ____
ROOT
ATOM      1  C   UNL     1       1.752  -5.029  -0.035  0.00  0.00    +0.157 A 
ATOM      2  C   UNL     1       2.263  -5.705   1.015  0.00  0.00    +0.117 A 
ATOM      3  N   UNL     1       3.554  -6.113   1.061  0.00  0.00    -0.340 N 
ATOM      4  C   UNL     1       4.429  -5.859   0.026  0.00  0.00    +0.057 A 
ATOM      5  C   UNL     1       5.752  -6.282   0.088  0.00  0.00    +0.076 A 
ATOM      6  C   UNL     1       6.612  -6.016  -0.961  0.00  0.00    +0.168 A 
ATOM      7  C   UNL     1       6.159  -5.321  -2.090  0.00  0.00    +0.167 A 
ATOM      8  C   UNL     1       4.851  -4.895  -2.164  0.00  0.00    +0.063 A 
ATOM      9  C   UNL     1       3.976  -5.160  -1.107  0.00  0.00    +0.051 A 
ATOM     10  C   UNL     1       2.571  -4.727  -1.149  0.00  0.00    +0.215 A 
ATOM     11  O   UNL     1       2.126  -4.121  -2.111  0.00  0.00    -0.285 OA
ATOM     12  O   UNL     1       7.199  -5.193  -2.966  0.00  0.00    -0.453 OA
ATOM     13  C   UNL     1       8.386  -5.451  -2.194  0.00  0.00    +0.466 C 
ATOM     14  O   UNL     1       7.930  -6.318  -1.140  0.00  0.00    -0.453 OA
ENDROOT
BRANCH   1  15
ATOM     15  S   UNL     1       0.063  -4.530  -0.023  0.00  0.00    +0.030 S 
ATOM     16  O   UNL     1      -0.476  -4.950   1.223  0.00  0.00    -0.164 OA
ATOM     17  O   UNL     1      -0.490  -4.937  -1.267  0.00  0.00    -0.164 OA
BRANCH  15  22
ATOM     18  C   UNL     1      -0.018   1.503   0.010  0.00  0.00    +0.044 C 
ATOM     19  C   UNL     1       0.002  -0.004   0.002  0.00  0.00    -0.050 A 
ATOM     20  C   UNL     1       0.006  -0.689  -1.199  0.00  0.00    +0.005 A 
ATOM     21  C   UNL     1       0.025  -2.071  -1.206  0.00  0.00    +0.027 A 
ATOM     22  C   UNL     1       0.040  -2.768  -0.013  0.00  0.00    +0.094 A 
ATOM     23  C   UNL     1       0.037  -2.084   1.188  0.00  0.00    +0.027 A 
ATOM     24  C   UNL     1       0.023  -0.702   1.195  0.00  0.00    +0.005 A 
ENDBRANCH  15  22
ENDBRANCH   1  15
BRANCH   3  25
ATOM     25  C   UNL     1       4.032  -6.843   2.238  0.00  0.00    +0.157 C 
BRANCH  25  26
ATOM     26  C   UNL     1       3.828  -8.321   2.030  0.00  0.00    -0.028 A 
ATOM     27  C   UNL     1       2.644  -8.917   2.421  0.00  0.00    +0.008 A 
ATOM     28  C   UNL     1       2.456 -10.273   2.229  0.00  0.00    +0.038 A 
ATOM     29  C   UNL     1       3.454 -11.034   1.646  0.00  0.00    +0.123 A 
ATOM     30  C   UNL     1       4.640 -10.436   1.255  0.00  0.00    +0.038 A 
ATOM     31  C   UNL     1       4.824  -9.079   1.442  0.00  0.00    +0.008 A 
ATOM     32  F   UNL     1       3.272 -12.360   1.459  0.00  0.00    -0.205 F 
ENDBRANCH  25  26
ENDBRANCH   3  25
TORSDOF 4
