REMARK  Name = ZINC36809428
REMARK  3 active torsions:
REMARK  status: ('A' for Active; 'I' for Inactive)
REMARK    1  A    between atoms: C_3  and  S_9
REMARK    2  A    between atoms: C_6  and  N_7
REMARK    3  A    between atoms: S_9  and  N_12
REMARK                            x       y       z     vdW  Elec       q    Type
REMARK                         _______ _______ _______ _____ _____    ______ ____
ROOT
ATOM      1  S   UNL     1       3.890   2.321  -0.023  0.00  0.00    +0.062 S 
ATOM      2  O   UNL     1       4.704   1.645  -0.971  0.00  0.00    -0.153 OA
ATOM      3  O   UNL     1       3.589   3.706  -0.127  0.00  0.00    -0.153 OA
ENDROOT
BRANCH   1   4
ATOM      4  N   UNL     1       4.602   2.101   1.455  0.00  0.00    -0.176 NA
ATOM      5  C   UNL     1       4.232   2.946   2.599  0.00  0.00    +0.110 C 
ATOM      6  C   UNL     1       3.825   2.043   3.767  0.00  0.00    +0.021 C 
ATOM      7  C   UNL     1       4.954   1.051   4.060  0.00  0.00    -0.005 C 
ATOM      8  C   UNL     1       4.555   0.171   5.247  0.00  0.00    +0.004 C 
ATOM      9  C   UNL     1       5.676  -0.827   5.544  0.00  0.00    +0.000 C 
ATOM     10  C   UNL     1       5.911  -1.708   4.315  0.00  0.00    +0.000 C 
ATOM     11  C   UNL     1       6.314  -0.829   3.130  0.00  0.00    +0.005 C 
ATOM     12  C   UNL     1       5.197   0.174   2.830  0.00  0.00    +0.008 C 
ATOM     13  C   UNL     1       5.611   1.052   1.652  0.00  0.00    +0.113 C 
ENDBRANCH   1   4
BRANCH   1  16
ATOM     14  C   UNL     1      -0.048   1.526  -0.007  0.00  0.00    +0.025 A 
ATOM     15  C   UNL     1       1.164   2.188  -0.033  0.00  0.00    +0.032 A 
ATOM     16  C   UNL     1       2.346   1.472   0.011  0.00  0.00    +0.124 A 
ATOM     17  C   UNL     1       2.319   0.090   0.080  0.00  0.00    +0.069 A 
ATOM     18  C   UNL     1       1.110  -0.578   0.105  0.00  0.00    +0.044 A 
ATOM     19  C   UNL     1      -0.079   0.139   0.062  0.00  0.00    +0.026 A 
ATOM     20 CL   UNL     1       3.806  -0.805   0.134  0.00  0.00    -0.081 Cl
BRANCH  19  21
ATOM     21  N   UNL     1      -1.303  -0.533   0.089  0.00  0.00    -0.358 N 
ATOM     22  H   UNL     1      -2.133  -0.031   0.059  0.00  0.00    +0.142 HD
ATOM     23  H   UNL     1      -1.324  -1.502   0.138  0.00  0.00    +0.142 HD
ENDBRANCH  19  21
ENDBRANCH   1  16
TORSDOF 3
