REMARK  Name = ZINC04246283
REMARK  7 active torsions:
REMARK  status: ('A' for Active; 'I' for Inactive)
REMARK    1  A    between atoms: C_1  and  C_2
REMARK    2  A    between atoms: C_2  and  C_4
REMARK    3  A    between atoms: C_2  and  O_11
REMARK    4  A    between atoms: N_9  and  C_10
REMARK    5  A    between atoms: O_11  and  C_12
REMARK    6  A    between atoms: C_12  and  C_14
REMARK    7  A    between atoms: C_19  and  N_20
REMARK                            x       y       z     vdW  Elec       q    Type
REMARK                         _______ _______ _______ _____ _____    ______ ____
ROOT
ATOM      1  O   UNL     1      -0.676   1.543  -1.203  0.00  0.00    -0.449 OA
ENDROOT
BRANCH   1   3
ATOM      2  C   UNL     1      -0.656   1.571   1.232  0.00  0.00    +0.062 C 
ATOM      3  C   UNL     1       0.034   1.058  -0.033  0.00  0.00    +0.259 C 
BRANCH   3   4
ATOM      4  C   UNL     1       1.456   1.556  -0.067  0.00  0.00    +0.261 C 
ATOM      5  O   UNL     1       1.809   2.324  -0.936  0.00  0.00    -0.271 OA
ATOM      6  N   UNL     1       2.336   1.147   0.869  0.00  0.00    -0.237 N 
ATOM      7  C   UNL     1       3.608   1.592   0.838  0.00  0.00    +0.306 C 
ATOM      8  O   UNL     1       3.961   2.362  -0.033  0.00  0.00    -0.252 OA
ATOM      9  N   UNL     1       4.487   1.183   1.774  0.00  0.00    -0.302 N 
ATOM     10  C   UNL     1       5.870   1.667   1.741  0.00  0.00    +0.129 C 
ATOM     11  H   UNL     1       2.054   0.532   1.564  0.00  0.00    +0.159 HD
ATOM     12  H   UNL     1       4.205   0.569   2.470  0.00  0.00    +0.150 HD
ENDBRANCH   3   4
ENDBRANCH   1   3
BRANCH   1  13
ATOM     13  C   UNL     1      -1.672   0.769  -1.679  0.00  0.00    +0.342 C 
ATOM     14  O   UNL     1      -1.939  -0.282  -1.131  0.00  0.00    -0.245 OA
BRANCH  13  15
ATOM     15  C   UNL     1      -2.437   1.198  -2.862  0.00  0.00    +0.081 A 
ATOM     16  C   UNL     1      -2.218   2.461  -3.421  0.00  0.00    +0.032 A 
ATOM     17  C   UNL     1      -2.933   2.854  -4.531  0.00  0.00    +0.019 A 
ATOM     18  C   UNL     1      -3.878   2.008  -5.092  0.00  0.00    +0.017 A 
ATOM     19  C   UNL     1      -4.109   0.761  -4.548  0.00  0.00    +0.024 A 
ATOM     20  C   UNL     1      -3.394   0.344  -3.432  0.00  0.00    +0.039 A 
ATOM     21 BR   UNL     1      -2.630   4.559  -5.290  0.00  0.00    -0.050 Br
BRANCH  20  22
ATOM     22  N   UNL     1      -3.625  -0.910  -2.883  0.00  0.00    -0.357 N 
ATOM     23  H   UNL     1      -3.185  -1.167  -2.058  0.00  0.00    +0.142 HD
ATOM     24  H   UNL     1      -4.227  -1.529  -3.325  0.00  0.00    +0.142 HD
ENDBRANCH  20  22
ENDBRANCH  13  15
ENDBRANCH   1  13
TORSDOF 5
