REMARK  Name = ZINC19354104
REMARK  1 active torsions:
REMARK  status: ('A' for Active; 'I' for Inactive)
REMARK    1  A    between atoms: C_6  and  C_11
REMARK                            x       y       z     vdW  Elec       q    Type
REMARK                         _______ _______ _______ _____ _____    ______ ____
ROOT
ATOM      1  C   UNL     1       5.008  -2.700  -0.060  0.00  0.00    +0.209 C 
ATOM      2  N   UNL     1       4.938  -3.889   0.811  0.00  0.00    -0.294 N 
ATOM      3  C   UNL     1       4.343  -5.033   0.298  0.00  0.00    +0.159 C 
ATOM      4  N   UNL     1       4.811  -5.479  -0.938  0.00  0.00    -0.259 N 
ATOM      5  C   UNL     1       5.200  -4.472  -1.820  0.00  0.00    +0.205 A 
ATOM      6  N   UNL     1       5.305  -3.160  -1.421  0.00  0.00    -0.288 N 
ATOM      7  C   UNL     1       5.721  -2.427  -2.511  0.00  0.00    +0.076 A 
ATOM      8  C   UNL     1       6.002  -1.083  -2.723  0.00  0.00    +0.077 A 
ATOM      9  C   UNL     1       6.412  -0.657  -3.971  0.00  0.00    +0.164 A 
ATOM     10  C   UNL     1       6.544  -1.563  -5.019  0.00  0.00    +0.164 A 
ATOM     11  C   UNL     1       6.265  -2.900  -4.826  0.00  0.00    +0.079 A 
ATOM     12  C   UNL     1       5.850  -3.346  -3.567  0.00  0.00    +0.095 A 
ATOM     13  N   UNL     1       5.512  -4.575  -3.078  0.00  0.00    -0.214 NA
ATOM     14  O   UNL     1       6.955  -1.122  -6.244  0.00  0.00    -0.488 OA
ATOM     15  C   UNL     1       6.035  -0.284  -6.947  0.00  0.00    +0.232 C 
ATOM     16  C   UNL     1       6.176   1.163  -6.504  0.00  0.00    +0.082 C 
ATOM     17  C   UNL     1       5.792   1.362  -5.046  0.00  0.00    +0.232 C 
ATOM     18  O   UNL     1       6.692   0.663  -4.184  0.00  0.00    -0.488 OA
ATOM     19  N   UNL     1       3.396  -5.658   0.939  0.00  0.00    -0.375 N 
ATOM     20  H   UNL     1       5.296  -3.872   1.712  0.00  0.00    +0.151 HD
ATOM     21  H   UNL     1       3.089  -5.326   1.797  0.00  0.00    +0.158 HD
ATOM     22  H   UNL     1       4.863  -6.420  -1.166  0.00  0.00    +0.158 HD
ATOM     23  H   UNL     1       2.997  -6.456   0.557  0.00  0.00    +0.158 HD
ENDROOT
BRANCH   1  29
ATOM     24  C   UNL     1      -0.016   1.357   0.009  0.00  0.00    +0.001 A 
ATOM     25  C   UNL     1       1.169   2.091   0.002  0.00  0.00    +0.001 A 
ATOM     26  C   UNL     1       2.378   1.468  -0.013  0.00  0.00    +0.008 A 
ATOM     27  C   UNL     1       2.438   0.063  -0.021  0.00  0.00    -0.018 A 
ATOM     28  C   UNL     1       3.668  -0.615  -0.036  0.00  0.00    +0.015 A 
ATOM     29  C   UNL     1       3.687  -1.976  -0.043  0.00  0.00    -0.006 A 
ATOM     30  C   UNL     1       2.502  -2.710  -0.036  0.00  0.00    +0.008 A 
ATOM     31  C   UNL     1       1.292  -2.087  -0.021  0.00  0.00    +0.009 A 
ATOM     32  C   UNL     1       1.233  -0.683  -0.013  0.00  0.00    -0.018 A 
ATOM     33  C   UNL     1       0.002  -0.004   0.002  0.00  0.00    +0.008 A 
ENDBRANCH   1  29
TORSDOF 1
