REMARK  Name = ZINC38166911
REMARK  8 active torsions:
REMARK  status: ('A' for Active; 'I' for Inactive)
REMARK    1  A    between atoms: C_1  and  C_2
REMARK    2  A    between atoms: C_16  and  O_36
REMARK    3  A    between atoms: C_19  and  C_35
REMARK    4  A    between atoms: C_25  and  C_31
REMARK    5  A    between atoms: C_27  and  C_29
REMARK    6  A    between atoms: C_27  and  C_30
REMARK    7  A    between atoms: C_31  and  C_33
REMARK    8  A    between atoms: C_33  and  O_34
REMARK                            x       y       z     vdW  Elec       q    Type
REMARK                         _______ _______ _______ _____ _____    ______ ____
ROOT
ATOM      1  C   UNL     1       0.492   1.020   0.495  0.00  0.00    +0.016 C 
ATOM      2  C   UNL     1       0.468  -0.496   0.288  0.00  0.00    -0.002 C 
ATOM      3  C   UNL     1      -0.971  -0.930   0.415  0.00  0.00    +0.019 C 
ATOM      4  C   UNL     1      -1.103  -2.358   0.944  0.00  0.00    +0.080 C 
ATOM      5  C   UNL     1      -0.348  -2.431   2.258  0.00  0.00    +0.156 C 
ATOM      6  O   UNL     1      -0.861  -2.862   3.270  0.00  0.00    -0.293 OA
ATOM      7  C   UNL     1       1.041  -1.951   2.234  0.00  0.00    +0.049 C 
ATOM      8  C   UNL     1       1.407  -1.083   1.296  0.00  0.00    -0.027 C 
ATOM      9  C   UNL     1       2.866  -0.667   1.213  0.00  0.00    +0.193 C 
ATOM     10  C   UNL     1       3.343  -0.930  -0.220  0.00  0.00    +0.045 C 
ATOM     11  C   UNL     1       2.433  -0.209  -1.217  0.00  0.00    +0.002 C 
ATOM     12  C   UNL     1       1.007  -0.754  -1.120  0.00  0.00    +0.031 C 
ATOM     13  C   UNL     1       0.130  -0.006  -2.131  0.00  0.00    +0.119 C 
ATOM     14  C   UNL     1       0.644  -0.299  -3.537  0.00  0.00    +0.042 C 
ATOM     15  C   UNL     1       2.072   0.225  -3.708  0.00  0.00    +0.012 C 
ATOM     16  C   UNL     1       2.991  -0.343  -2.614  0.00  0.00    +0.004 C 
ATOM     17  C   UNL     1       3.186  -1.812  -3.034  0.00  0.00    +0.039 C 
ATOM     18  C   UNL     1       3.318  -1.736  -4.571  0.00  0.00    +0.162 C 
ATOM     19  C   UNL     1       2.630  -0.418  -5.006  0.00  0.00    +0.164 C 
ATOM     20  O   UNL     1       1.512  -0.837  -5.815  0.00  0.00    -0.332 OA
ATOM     21  C   UNL     1       1.870  -2.154  -6.286  0.00  0.00    +0.166 C 
ATOM     22  O   UNL     1       2.535  -2.795  -5.157  0.00  0.00    -0.343 OA
ATOM     23  C   UNL     1       2.837  -2.053  -7.467  0.00  0.00    +0.074 C 
ATOM     24  C   UNL     1       0.618  -2.937  -6.686  0.00  0.00    +0.074 C 
ATOM     25  C   UNL     1       2.108   1.753  -3.770  0.00  0.00    +0.015 C 
ATOM     26  F   UNL     1       3.626  -1.421   2.113  0.00  0.00    -0.241 F 
ENDROOT
BRANCH  19  27
ATOM     27  C   UNL     1       3.568   0.504  -5.742  0.00  0.00    +0.193 C 
ATOM     28  O   UNL     1       4.746   0.507  -5.473  0.00  0.00    -0.292 OA
BRANCH  27  29
ATOM     29  C   UNL     1       3.037   1.422  -6.812  0.00  0.00    +0.233 C 
BRANCH  29  30
ATOM     30  O   UNL     1       4.127   2.096  -7.445  0.00  0.00    -0.387 OA
ATOM     31  H   UNL     1       3.859   2.706  -8.146  0.00  0.00    +0.210 HD
ENDBRANCH  29  30
ENDBRANCH  27  29
ENDBRANCH  19  27
BRANCH  13  32
ATOM     32  O   UNL     1       0.197   1.399  -1.876  0.00  0.00    -0.391 OA
ATOM     33  H   UNL     1      -0.336   1.934  -2.480  0.00  0.00    +0.210 HD
ENDBRANCH  13  32
TORSDOF 4
