REMARK  Name = ZINC08815707
REMARK  6 active torsions:
REMARK  status: ('A' for Active; 'I' for Inactive)
REMARK    1  A    between atoms: C_1  and  C_2
REMARK    2  A    between atoms: C_5  and  C_8
REMARK    3  A    between atoms: N_10  and  C_20
REMARK    4  A    between atoms: N_13  and  C_14
REMARK    5  A    between atoms: C_20  and  N_57
REMARK    6  A    between atoms: C_23  and  C_26
REMARK                            x       y       z     vdW  Elec       q    Type
REMARK                         _______ _______ _______ _____ _____    ______ ____
ROOT
ATOM      1  C   UNL     1      -0.076   5.751   0.033  0.00  0.00    +0.167 A 
ATOM      2  N   UNL     1       0.937   6.525   0.307  0.00  0.00    -0.152 NA
ATOM      3  N   UNL     1       0.507   7.855   0.203  0.00  0.00    -0.257 N 
ATOM      4  C   UNL     1      -0.798   7.835  -0.134  0.00  0.00    +0.181 A 
ATOM      5  S   UNL     1      -1.799   9.203  -0.380  0.00  0.00    -0.011 S 
ATOM      6  N   UNL     1      -1.173   6.545  -0.243  0.00  0.00    -0.271 N 
ENDROOT
BRANCH   1  11
ATOM      7  C   UNL     1       0.002  -0.004   0.002  0.00  0.00    +0.044 C 
ATOM      8  C   UNL     1      -0.018   1.503   0.010  0.00  0.00    -0.050 A 
ATOM      9  C   UNL     1      -1.227   2.175   0.020  0.00  0.00    +0.004 A 
ATOM     10  C   UNL     1      -1.253   3.555   0.033  0.00  0.00    +0.012 A 
ATOM     11  C   UNL     1      -0.056   4.271   0.025  0.00  0.00    +0.020 A 
ATOM     12  C   UNL     1       1.160   3.587   0.010  0.00  0.00    +0.012 A 
ATOM     13  C   UNL     1       1.172   2.208   0.003  0.00  0.00    +0.004 A 
ENDBRANCH   1  11
BRANCH   6  14
ATOM     14  C   UNL     1      -2.455   6.088  -0.577  0.00  0.00    +0.050 A 
ATOM     15  C   UNL     1      -2.659   5.395  -1.762  0.00  0.00    +0.026 A 
ATOM     16  C   UNL     1      -3.922   4.941  -2.087  0.00  0.00    +0.002 A 
ATOM     17  C   UNL     1      -4.986   5.186  -1.237  0.00  0.00    +0.000 A 
ATOM     18  C   UNL     1      -4.786   5.880  -0.057  0.00  0.00    +0.002 A 
ATOM     19  C   UNL     1      -3.524   6.332   0.275  0.00  0.00    +0.026 A 
ENDBRANCH   6  14
BRANCH   3  20
ATOM     20  C   UNL     1       1.327   9.049   0.424  0.00  0.00    +0.072 C 
BRANCH  20  25
ATOM     21  C   UNL     1       1.585   8.289   2.723  0.00  0.00    -0.076 C 
ATOM     22  C   UNL     1       1.974   8.970   4.059  0.00  0.00    -0.012 C 
ATOM     23  C   UNL     1       2.730  10.236   3.594  0.00  0.00    +0.001 C 
ATOM     24  C   UNL     1       2.248  10.486   2.153  0.00  0.00    -0.068 C 
ATOM     25  N   UNL     1       1.266   9.440   1.865  0.00  0.00    +0.393 N 
ATOM     26  H   UNL     1       0.322   9.782   2.081  0.00  0.00    -0.079 HD
BRANCH  23  27
ATOM     27  C   UNL     1       2.377  11.408   4.474  0.00  0.00    -0.046 A 
ATOM     28  C   UNL     1       1.055  11.781   4.632  0.00  0.00    +0.004 A 
ATOM     29  C   UNL     1       0.732  12.853   5.442  0.00  0.00    +0.000 A 
ATOM     30  C   UNL     1       1.730  13.558   6.087  0.00  0.00    +0.000 A 
ATOM     31  C   UNL     1       3.053  13.188   5.926  0.00  0.00    +0.000 A 
ATOM     32  C   UNL     1       3.376  12.114   5.119  0.00  0.00    +0.004 A 
ENDBRANCH  23  27
ENDBRANCH  20  25
ENDBRANCH   3  20
TORSDOF 5
