REMARK  Name = ZINC39711031
REMARK  10 active torsions:
REMARK  status: ('A' for Active; 'I' for Inactive)
REMARK    1  A    between atoms: C_1  and  C_2
REMARK    2  A    between atoms: C_4  and  C_32
REMARK    3  A    between atoms: C_9  and  C_14
REMARK    4  A    between atoms: C_14  and  C_16
REMARK    5  A    between atoms: C_14  and  N_25
REMARK    6  A    between atoms: N_20  and  C_21
REMARK    7  A    between atoms: C_21  and  C_22
REMARK    8  A    between atoms: C_22  and  O_23
REMARK    9  A    between atoms: O_23  and  C_24
REMARK   10  A    between atoms: C_28  and  C_31
REMARK                            x       y       z     vdW  Elec       q    Type
REMARK                         _______ _______ _______ _____ _____    ______ ____
ROOT
ATOM      1  C   UNL     1      -1.152  -4.909   2.945  0.00  0.00    +0.018 C 
ENDROOT
BRANCH   1  10
ATOM      2  C   UNL     1       5.192  -4.093   6.122  0.00  0.00    +0.044 C 
ATOM      3  C   UNL     1       4.042  -3.620   5.271  0.00  0.00    -0.050 A 
ATOM      4  C   UNL     1       3.825  -2.250   5.118  0.00  0.00    +0.008 A 
ATOM      5  C   UNL     1       2.810  -1.749   4.367  0.00  0.00    -0.028 A 
ATOM      6  C   UNL     1       1.920  -2.612   3.701  0.00  0.00    +0.043 A 
ATOM      7  N   UNL     1       0.928  -2.109   2.967  0.00  0.00    -0.284 N 
ATOM      8  C   UNL     1       0.058  -2.862   2.316  0.00  0.00    +0.223 C 
ATOM      9  O   UNL     1      -0.828  -2.345   1.661  0.00  0.00    -0.275 OA
ATOM     10  C   UNL     1       0.167  -4.369   2.389  0.00  0.00    +0.092 C 
ATOM     11  C   UNL     1       1.294  -4.946   3.223  0.00  0.00    -0.006 C 
ATOM     12  C   UNL     1       2.126  -4.064   3.845  0.00  0.00    -0.007 A 
ATOM     13  C   UNL     1       3.243  -4.535   4.665  0.00  0.00    +0.012 A 
ATOM     14  C   UNL     1       2.635  -0.257   4.247  0.00  0.00    +0.046 C 
ATOM     15  H   UNL     1       0.841  -1.145   2.907  0.00  0.00    +0.155 HD
ENDBRANCH   1  10
BRANCH   1  16
ATOM     16  N   UNL     1      -1.133  -6.377   2.910  0.00  0.00    +0.387 N 
ATOM     17  C   UNL     1      -2.363  -6.895   3.521  0.00  0.00    -0.078 C 
ATOM     18  C   UNL     1      -2.313  -8.424   3.561  0.00  0.00    -0.015 C 
ATOM     19  C   UNL     1      -2.185  -8.962   2.132  0.00  0.00    -0.018 C 
ATOM     20  C   UNL     1      -0.939  -8.357   1.479  0.00  0.00    -0.015 C 
ATOM     21  C   UNL     1      -1.040  -6.831   1.517  0.00  0.00    -0.078 C 
ATOM     22  C   UNL     1      -2.054 -10.486   2.170  0.00  0.00    +0.007 C 
ATOM     23  H   UNL     1      -0.335  -6.715   3.427  0.00  0.00    -0.081 HD
ENDBRANCH   1  16
BRANCH   1  24
ATOM     24  C   UNL     1      -1.325  -4.442   4.368  0.00  0.00    +0.139 A 
ATOM     25  N   UNL     1      -0.693  -4.896   5.423  0.00  0.00    -0.115 NA
ATOM     26  N   UNL     1      -1.116  -4.245   6.451  0.00  0.00    -0.023 NA
ATOM     27  N   UNL     1      -2.002  -3.388   6.079  0.00  0.00    -0.044 NA
ATOM     28  N   UNL     1      -2.155  -3.475   4.801  0.00  0.00    -0.229 N 
BRANCH  28  29
ATOM     29  C   UNL     1      -3.063  -2.674   3.977  0.00  0.00    +0.175 C 
BRANCH  29  30
ATOM     30  C   UNL     1      -4.420  -3.376   3.884  0.00  0.00    +0.183 C 
BRANCH  30  31
ATOM     31  O   UNL     1      -5.306  -2.594   3.080  0.00  0.00    -0.381 OA
ATOM     32  C   UNL     1      -6.608  -3.163   2.929  0.00  0.00    +0.194 C 
ENDBRANCH  30  31
ENDBRANCH  29  30
ENDBRANCH  28  29
ENDBRANCH   1  24
TORSDOF 6
