REMARK  Name = ZINC00736179
REMARK  6 active torsions:
REMARK  status: ('A' for Active; 'I' for Inactive)
REMARK    1  A    between atoms: C_1  and  C_2
REMARK    2  A    between atoms: C_9  and  C_11
REMARK    3  A    between atoms: C_21  and  S_23
REMARK    4  A    between atoms: S_23  and  C_24
REMARK    5  A    between atoms: C_24  and  C_25
REMARK    6  A    between atoms: N_27  and  C_28
REMARK                            x       y       z     vdW  Elec       q    Type
REMARK                         _______ _______ _______ _____ _____    ______ ____
ROOT
ATOM      1  C   UNL     1      -0.817   1.401   0.035  0.00  0.00    +0.029 C 
ATOM      2  C   UNL     1      -0.181   0.068  -0.366  0.00  0.00    +0.091 C 
ATOM      3  C   UNL     1       0.773   0.287  -1.547  0.00  0.00    +0.128 C 
ATOM      4  N   UNL     1       1.562  -0.937  -1.746  0.00  0.00    -0.312 N 
ATOM      5  C   UNL     1       2.331  -1.476  -0.616  0.00  0.00    +0.125 C 
ATOM      6  C   UNL     1       1.377  -1.695   0.565  0.00  0.00    +0.127 C 
ATOM      7  N   UNL     1       0.584  -0.474   0.766  0.00  0.00    -0.292 N 
ATOM      8  C   UNL     1       0.563   0.141   1.965  0.00  0.00    +0.247 C 
ATOM      9  O   UNL     1      -0.102   1.147   2.121  0.00  0.00    -0.270 OA
ATOM     10  C   UNL     1       1.582  -1.570  -2.978  0.00  0.00    +0.127 A 
ATOM     11  C   UNL     1       1.040  -0.947  -4.104  0.00  0.00    +0.083 A 
ATOM     12  C   UNL     1       1.082  -1.616  -5.313  0.00  0.00    +0.135 A 
ATOM     13  N   UNL     1       1.632  -2.821  -5.368  0.00  0.00    -0.210 NA
ATOM     14  C   UNL     1       2.139  -3.388  -4.283  0.00  0.00    +0.192 A 
ATOM     15  N   UNL     1       2.123  -2.777  -3.107  0.00  0.00    -0.207 NA
ATOM     16 CL   UNL     1       0.421  -0.887  -6.743  0.00  0.00    -0.062 Cl
ENDROOT
BRANCH   8  17
ATOM     17  C   UNL     1       1.349  -0.407   3.091  0.00  0.00    +0.037 A 
ATOM     18  C   UNL     1       1.554  -1.783   3.198  0.00  0.00    +0.013 A 
ATOM     19  C   UNL     1       2.289  -2.288   4.250  0.00  0.00    +0.001 A 
ATOM     20  C   UNL     1       2.821  -1.434   5.200  0.00  0.00    +0.000 A 
ATOM     21  C   UNL     1       2.620  -0.069   5.100  0.00  0.00    +0.001 A 
ATOM     22  C   UNL     1       1.893   0.450   4.049  0.00  0.00    +0.013 A 
ENDBRANCH   8  17
BRANCH  14  23
ATOM     23  S   UNL     1       2.860  -4.991  -4.409  0.00  0.00    -0.077 S 
BRANCH  23  24
ATOM     24  C   UNL     1       2.669  -5.422  -6.160  0.00  0.00    +0.173 C 
BRANCH  24  25
ATOM     25  C   UNL     1       3.252  -6.790  -6.407  0.00  0.00    +0.228 C 
ATOM     26  O   UNL     1       3.748  -7.412  -5.492  0.00  0.00    -0.275 OA
ATOM     27  N   UNL     1       3.223  -7.321  -7.646  0.00  0.00    -0.283 N 
ATOM     28  H   UNL     1       2.878  -6.801  -8.388  0.00  0.00    +0.155 HD
BRANCH  27  29
ATOM     29  C   UNL     1       3.692  -8.623  -7.860  0.00  0.00    +0.069 A 
ATOM     30  C   UNL     1       3.621  -9.565  -6.843  0.00  0.00    +0.026 A 
ATOM     31  C   UNL     1       4.083 -10.848  -7.057  0.00  0.00    +0.002 A 
ATOM     32  C   UNL     1       4.617 -11.197  -8.284  0.00  0.00    +0.003 A 
ATOM     33  C   UNL     1       4.691 -10.263  -9.301  0.00  0.00    +0.040 A 
ATOM     34  C   UNL     1       4.224  -8.978  -9.095  0.00  0.00    +0.144 A 
ATOM     35  F   UNL     1       4.291  -8.066 -10.090  0.00  0.00    -0.204 F 
ENDBRANCH  27  29
ENDBRANCH  24  25
ENDBRANCH  23  24
ENDBRANCH  14  23
TORSDOF 5
