REMARK  Name = ZINC24145319
REMARK  4 active torsions:
REMARK  status: ('A' for Active; 'I' for Inactive)
REMARK    1  A    between atoms: C_6  and  S_14
REMARK    2  A    between atoms: C_9  and  C_10
REMARK    3  A    between atoms: S_14  and  C_15
REMARK    4  A    between atoms: C_15  and  C_16
REMARK                            x       y       z     vdW  Elec       q    Type
REMARK                         _______ _______ _______ _____ _____    ______ ____
ROOT
ATOM      1  S   UNL     1      -1.449   2.335   0.022  0.00  0.00    -0.078 S 
ENDROOT
BRANCH   1   7
ATOM      2  C   UNL     1       4.028   1.927  -0.027  0.00  0.00    +0.017 A 
ATOM      3  C   UNL     1       3.455   0.695  -0.028  0.00  0.00    +0.049 A 
ATOM      4  C   UNL     1       2.049   0.589  -0.014  0.00  0.00    +0.162 A 
ATOM      5  N   UNL     1       1.215  -0.434  -0.012  0.00  0.00    -0.129 NA
ATOM      6  N   UNL     1       0.002  -0.004   0.002  0.00  0.00    -0.122 NA
ATOM      7  C   UNL     1      -0.016   1.310   0.009  0.00  0.00    +0.196 A 
ATOM      8  N   UNL     1       1.280   1.734  -0.001  0.00  0.00    -0.277 N 
ATOM      9  C   UNL     1       1.873   2.965  -0.000  0.00  0.00    +0.107 A 
ATOM     10  C   UNL     1       3.217   3.077  -0.013  0.00  0.00    +0.071 A 
BRANCH  10  11
ATOM     11  C   UNL     1       3.854   4.443  -0.013  0.00  0.00    +0.419 C 
ATOM     12  F   UNL     1       4.064   4.859   1.306  0.00  0.00    -0.166 F 
ATOM     13  F   UNL     1       5.080   4.385  -0.684  0.00  0.00    -0.166 F 
ATOM     14  F   UNL     1       3.010   5.351  -0.659  0.00  0.00    -0.166 F 
ENDBRANCH  10  11
ENDBRANCH   1   7
BRANCH   1  15
ATOM     15  C   UNL     1      -2.830   1.158   0.023  0.00  0.00    +0.153 C 
BRANCH  15  16
ATOM     16  C   UNL     1      -4.134   1.913   0.034  0.00  0.00    +0.146 A 
ATOM     17  N   UNL     1      -4.701   2.233   1.184  0.00  0.00    -0.199 NA
ATOM     18  C   UNL     1      -5.850   2.905   1.197  0.00  0.00    +0.217 A 
ATOM     19  N   UNL     1      -6.432   3.244   0.052  0.00  0.00    -0.181 NA
ATOM     20  C   UNL     1      -5.862   2.917  -1.102  0.00  0.00    +0.217 A 
ATOM     21  N   UNL     1      -4.710   2.250  -1.107  0.00  0.00    -0.199 NA
ATOM     22  N   UNL     1      -6.463   3.267  -2.293  0.00  0.00    -0.327 N 
ATOM     23  N   UNL     1      -6.439   3.243   2.399  0.00  0.00    -0.327 N 
ATOM     24  H   UNL     1      -5.990   2.995  -3.249  0.00  0.00    +0.145 HD
ATOM     25  H   UNL     1      -7.415   3.818  -2.288  0.00  0.00    +0.145 HD
ATOM     26  H   UNL     1      -7.388   3.797   2.409  0.00  0.00    +0.145 HD
ATOM     27  H   UNL     1      -5.958   2.957   3.346  0.00  0.00    +0.145 HD
ENDBRANCH  15  16
ENDBRANCH   1  15
TORSDOF 4
