REMARK  Name = ZINC44944326
REMARK  5 active torsions:
REMARK  status: ('A' for Active; 'I' for Inactive)
REMARK    1  A    between atoms: C_1  and  C_2
REMARK    2  A    between atoms: C_4  and  C_7
REMARK    3  A    between atoms: C_7  and  N_8
REMARK    4  A    between atoms: C_11  and  C_15
REMARK    5  A    between atoms: C_11  and  C_16
REMARK                            x       y       z     vdW  Elec       q    Type
REMARK                         _______ _______ _______ _____ _____    ______ ____
ROOT
ATOM      1  N   UNL     1       1.423  -3.567  -2.011  0.00  0.00    -0.215 N 
ATOM      2  C   UNL     1       2.127  -3.049  -3.036  0.00  0.00    +0.251 C 
ATOM      3  O   UNL     1       1.748  -2.227  -3.843  0.00  0.00    -0.272 OA
ATOM      4  C   UNL     1       3.491  -3.706  -2.971  0.00  0.00    +0.138 C 
ATOM      5  N   UNL     1       3.388  -4.603  -1.807  0.00  0.00    -0.281 N 
ATOM      6  C   UNL     1       2.147  -4.448  -1.311  0.00  0.00    +0.310 C 
ATOM      7  O   UNL     1       1.729  -5.044  -0.337  0.00  0.00    -0.252 OA
ATOM      8  C   UNL     1       3.764  -4.508  -4.245  0.00  0.00    +0.047 C 
ATOM      9  H   UNL     1       4.080  -5.189  -1.463  0.00  0.00    +0.152 HD
ENDROOT
BRANCH   4  10
ATOM     10  C   UNL     1       4.567  -2.674  -2.751  0.00  0.00    +0.020 A 
ATOM     11  C   UNL     1       5.376  -2.747  -1.633  0.00  0.00    +0.012 A 
ATOM     12  C   UNL     1       6.363  -1.801  -1.431  0.00  0.00    +0.039 A 
ATOM     13  C   UNL     1       6.543  -0.779  -2.348  0.00  0.00    +0.126 A 
ATOM     14  C   UNL     1       5.733  -0.706  -3.468  0.00  0.00    +0.077 A 
ATOM     15  C   UNL     1       4.748  -1.657  -3.673  0.00  0.00    +0.132 A 
ATOM     16  F   UNL     1       3.961  -1.589  -4.769  0.00  0.00    -0.205 F 
ATOM     17  F   UNL     1       7.508   0.145  -2.150  0.00  0.00    -0.205 F 
ENDBRANCH   4  10
BRANCH   1  18
ATOM     18  C   UNL     1       0.038  -3.206  -1.697  0.00  0.00    +0.216 C 
BRANCH  18  22
ATOM     19  C   UNL     1      -0.018   1.503   0.010  0.00  0.00    +0.091 C 
ATOM     20  C   UNL     1       0.002  -0.004   0.002  0.00  0.00    +0.169 A 
ATOM     21  N   UNL     1       0.008  -0.776  -1.091  0.00  0.00    -0.195 NA
ATOM     22  C   UNL     1       0.026  -2.034  -0.750  0.00  0.00    +0.245 A 
ATOM     23  O   UNL     1       0.033  -2.107   0.587  0.00  0.00    -0.336 OA
ATOM     24  N   UNL     1       0.023  -0.767   1.057  0.00  0.00    -0.062 NA
ENDBRANCH  18  22
ENDBRANCH   1  18
TORSDOF 3
