REMARK  Name = ZINC08917418
REMARK  11 active torsions:
REMARK  status: ('A' for Active; 'I' for Inactive)
REMARK    1  A    between atoms: C_1  and  C_2
REMARK    2  A    between atoms: C_2  and  C_3
REMARK    3  A    between atoms: C_3  and  O_4
REMARK    4  A    between atoms: O_4  and  C_5
REMARK    5  A    between atoms: C_8  and  C_11
REMARK    6  A    between atoms: C_11  and  O_13
REMARK    7  A    between atoms: O_13  and  C_14
REMARK    8  A    between atoms: C_21  and  N_36
REMARK    9  A    between atoms: C_22  and  C_34
REMARK   10  A    between atoms: C_23  and  C_25
REMARK   11  A    between atoms: C_29  and  N_31
REMARK                            x       y       z     vdW  Elec       q    Type
REMARK                         _______ _______ _______ _____ _____    ______ ____
ROOT
ATOM      1  C   UNL     1       4.569  -0.310   1.134  0.00  0.00    +0.135 A 
ATOM      2  C   UNL     1       4.687   1.071   1.072  0.00  0.00    +0.047 A 
ATOM      3  C   UNL     1       3.599   1.841   0.711  0.00  0.00    +0.012 A 
ATOM      4  C   UNL     1       2.389   1.241   0.409  0.00  0.00    +0.008 A 
ATOM      5  C   UNL     1       2.265  -0.138   0.471  0.00  0.00    +0.138 A 
ATOM      6  C   UNL     1       3.359  -0.914   0.834  0.00  0.00    +0.093 A 
ATOM      7  O   UNL     1       1.088  -0.744   0.181  0.00  0.00    -0.441 OA
ATOM      8  C   UNL     1      -0.054  -0.037   0.208  0.00  0.00    +0.199 C 
ATOM      9  C   UNL     1      -0.062   1.315   0.133  0.00  0.00    +0.098 C 
ATOM     10  C   UNL     1       1.215   2.098   0.017  0.00  0.00    +0.098 C 
ENDROOT
BRANCH  10  11
ATOM     11  C   UNL     1       1.389   2.560  -1.407  0.00  0.00    -0.033 A 
ATOM     12  C   UNL     1       1.469   1.633  -2.430  0.00  0.00    +0.005 A 
ATOM     13  C   UNL     1       1.628   2.056  -3.736  0.00  0.00    +0.003 A 
ATOM     14  C   UNL     1       1.708   3.407  -4.020  0.00  0.00    +0.033 A 
ATOM     15  C   UNL     1       1.628   4.334  -2.998  0.00  0.00    +0.126 A 
ATOM     16  C   UNL     1       1.463   3.910  -1.692  0.00  0.00    +0.037 A 
BRANCH  15  17
ATOM     17  N   UNL     1       1.714   5.780  -3.301  0.00  0.00    +0.056 N 
ATOM     18  O   UNL     1       1.854   6.153  -4.452  0.00  0.00    -0.126 OA
ATOM     19  O   UNL     1       1.644   6.597  -2.401  0.00  0.00    -0.126 OA
ENDBRANCH  15  17
ENDBRANCH  10  11
BRANCH   8  20
ATOM     20  N   UNL     1      -1.249  -0.705   0.313  0.00  0.00    -0.328 N 
ATOM     21  H   UNL     1      -2.082  -0.209   0.333  0.00  0.00    +0.145 HD
ATOM     22  H   UNL     1      -1.260  -1.674   0.367  0.00  0.00    +0.145 HD
ENDBRANCH   8  20
BRANCH   9  23
ATOM     23  C   UNL     1      -1.313   2.012   0.160  0.00  0.00    +0.101 C 
ATOM     24  N   UNL     1      -2.305   2.565   0.182  0.00  0.00    -0.191 NA
ENDBRANCH   9  23
BRANCH   1  25
ATOM     25  O   UNL     1       5.639  -1.070   1.490  0.00  0.00    -0.422 OA
BRANCH  25  26
ATOM     26  C   UNL     1       6.187  -1.841   0.530  0.00  0.00    +0.344 C 
ATOM     27  O   UNL     1       5.791  -1.759  -0.616  0.00  0.00    -0.245 OA
BRANCH  26  31
ATOM     28  C   UNL     1       9.296  -4.560   1.512  0.00  0.00    +0.121 A 
ATOM     29  C   UNL     1       8.845  -4.467   0.201  0.00  0.00    +0.046 A 
ATOM     30  C   UNL     1       7.837  -3.587  -0.122  0.00  0.00    +0.018 A 
ATOM     31  C   UNL     1       7.267  -2.785   0.871  0.00  0.00    +0.060 A 
ATOM     32  C   UNL     1       7.728  -2.877   2.188  0.00  0.00    +0.018 A 
ATOM     33  C   UNL     1       8.733  -3.764   2.503  0.00  0.00    +0.046 A 
BRANCH  28  34
ATOM     34  O   UNL     1      10.290  -5.429   1.826  0.00  0.00    -0.492 OA
BRANCH  34  35
ATOM     35  C   UNL     1      10.706  -5.473   3.192  0.00  0.00    +0.229 C 
BRANCH  35  37
ATOM     36  C   UNL     1      12.271  -6.550   4.815  0.00  0.00    +0.007 C 
ATOM     37  C   UNL     1      11.826  -6.502   3.352  0.00  0.00    +0.038 C 
ENDBRANCH  35  37
ENDBRANCH  34  35
ENDBRANCH  28  34
ENDBRANCH  26  31
ENDBRANCH  25  26
ENDBRANCH   1  25
TORSDOF 10
