REMARK  Name = ZINC35191159
REMARK  14 active torsions:
REMARK  status: ('A' for Active; 'I' for Inactive)
REMARK    1  A    between atoms: C_1  and  C_2
REMARK    2  A    between atoms: C_9  and  C_20
REMARK    3  A    between atoms: C_10  and  N_11
REMARK    4  A    between atoms: N_11  and  C_12
REMARK    5  A    between atoms: C_12  and  C_13
REMARK    6  A    between atoms: C_12  and  C_14
REMARK    7  A    between atoms: C_12  and  C_15
REMARK    8  A    between atoms: C_15  and  C_16
REMARK    9  A    between atoms: C_16  and  C_17
REMARK   10  A    between atoms: C_16  and  C_18
REMARK   11  A    between atoms: C_16  and  C_19
REMARK   12  A    between atoms: C_25  and  O_26
REMARK   13  A    between atoms: O_26  and  C_27
REMARK   14  A    between atoms: C_27  and  C_29
REMARK                            x       y       z     vdW  Elec       q    Type
REMARK                         _______ _______ _______ _____ _____    ______ ____
ROOT
ATOM      1  C   UNL     1      -1.160   1.518  -3.891  0.00  0.00    +0.044 C 
ATOM      2  C   UNL     1      -1.263   0.134  -3.305  0.00  0.00    -0.046 A 
ATOM      3  C   UNL     1      -0.738  -0.969  -4.002  0.00  0.00    +0.021 A 
ATOM      4  C   UNL     1      -0.828  -2.209  -3.483  0.00  0.00    +0.094 A 
ATOM      5  N   UNL     1      -1.431  -2.416  -2.271  0.00  0.00    -0.289 N 
ATOM      6  C   UNL     1      -1.954  -1.356  -1.565  0.00  0.00    +0.117 A 
ATOM      7  C   UNL     1      -1.860  -0.053  -2.097  0.00  0.00    +0.048 A 
ATOM      8  N   UNL     1      -2.474  -1.817  -0.440  0.00  0.00    -0.338 N 
ATOM      9  C   UNL     1      -2.308  -3.151  -0.386  0.00  0.00    +0.090 A 
ATOM     10  C   UNL     1      -1.651  -3.545  -1.533  0.00  0.00    +0.129 A 
ATOM     11  H   UNL     1      -2.908  -1.277   0.240  0.00  0.00    +0.167 HD
ENDROOT
BRANCH   9  12
ATOM     12  C   UNL     1      -2.751  -4.040   0.713  0.00  0.00    +0.044 A 
ATOM     13  C   UNL     1      -4.110  -4.203   0.976  0.00  0.00    +0.014 A 
ATOM     14  C   UNL     1      -4.518  -5.033   2.001  0.00  0.00    +0.001 A 
ATOM     15  C   UNL     1      -3.582  -5.704   2.768  0.00  0.00    +0.004 A 
ATOM     16  C   UNL     1      -2.232  -5.550   2.516  0.00  0.00    +0.047 A 
ATOM     17  C   UNL     1      -1.808  -4.725   1.487  0.00  0.00    +0.141 A 
BRANCH  17  18
ATOM     18  O   UNL     1      -0.481  -4.577   1.234  0.00  0.00    -0.422 OA
BRANCH  18  19
ATOM     19  C   UNL     1       0.171  -3.570   1.847  0.00  0.00    +0.345 C 
ATOM     20  O   UNL     1      -0.409  -2.873   2.655  0.00  0.00    -0.245 OA
BRANCH  19  21
ATOM     21  C   UNL     1       1.593  -3.314   1.537  0.00  0.00    +0.062 A 
ATOM     22  C   UNL     1       2.261  -4.111   0.604  0.00  0.00    +0.015 A 
ATOM     23  C   UNL     1       3.588  -3.867   0.318  0.00  0.00    +0.004 A 
ATOM     24  C   UNL     1       4.259  -2.836   0.953  0.00  0.00    +0.038 A 
ATOM     25  C   UNL     1       3.603  -2.042   1.879  0.00  0.00    +0.124 A 
ATOM     26  C   UNL     1       2.272  -2.272   2.171  0.00  0.00    +0.053 A 
ATOM     27  F   UNL     1       4.264  -1.038   2.495  0.00  0.00    -0.205 F 
ENDBRANCH  19  21
ENDBRANCH  18  19
ENDBRANCH  17  18
ENDBRANCH   9  12
BRANCH  10  28
ATOM     28  N   UNL     1      -1.283  -4.847  -1.875  0.00  0.00    -0.323 N 
ATOM     29  H   UNL     1      -1.567  -5.593  -1.322  0.00  0.00    +0.148 HD
BRANCH  28  30
ATOM     30  C   UNL     1      -0.469  -5.089  -3.069  0.00  0.00    +0.028 C 
ATOM     31  C   UNL     1      -1.286  -4.756  -4.319  0.00  0.00    +0.031 C 
ATOM     32  C   UNL     1       0.778  -4.204  -3.023  0.00  0.00    +0.031 C 
BRANCH  30  33
ATOM     33  C   UNL     1      -0.049  -6.560  -3.110  0.00  0.00    +0.031 C 
BRANCH  33  34
ATOM     34  C   UNL     1       0.693  -6.915  -1.820  0.00  0.00    -0.036 C 
ATOM     35  C   UNL     1       0.029  -6.206  -0.638  0.00  0.00    +0.010 C 
ATOM     36  C   UNL     1       0.641  -8.428  -1.602  0.00  0.00    +0.010 C 
ATOM     37  C   UNL     1       2.152  -6.465  -1.931  0.00  0.00    +0.010 C 
ENDBRANCH  33  34
ENDBRANCH  30  33
ENDBRANCH  28  30
ENDBRANCH  10  28
TORSDOF 8
