REMARK  Name = ZINC12997368
REMARK  5 active torsions:
REMARK  status: ('A' for Active; 'I' for Inactive)
REMARK    1  A    between atoms: C_1  and  C_2
REMARK    2  A    between atoms: C_3  and  C_27
REMARK    3  A    between atoms: N_9  and  C_18
REMARK    4  A    between atoms: C_10  and  C_12
REMARK    5  A    between atoms: C_18  and  C_19
REMARK                            x       y       z     vdW  Elec       q    Type
REMARK                         _______ _______ _______ _____ _____    ______ ____
ROOT
ATOM      1  C   UNL     1      -5.184  -4.210  -0.127  0.00  0.00    +0.045 C 
ATOM      2  C   UNL     1      -4.971  -2.724   0.009  0.00  0.00    -0.026 A 
ATOM      3  C   UNL     1      -6.020  -1.896   0.139  0.00  0.00    -0.008 A 
ATOM      4  S   UNL     1      -5.263  -0.287   0.264  0.00  0.00    -0.073 S 
ATOM      5  C   UNL     1      -3.561  -0.773   0.138  0.00  0.00    +0.116 A 
ATOM      6  C   UNL     1      -3.629  -2.173   0.003  0.00  0.00    +0.075 A 
ATOM      7  C   UNL     1      -2.371  -2.848  -0.122  0.00  0.00    +0.263 A 
ATOM      8  O   UNL     1      -2.330  -4.060  -0.243  0.00  0.00    -0.267 OA
ATOM      9  N   UNL     1      -1.236  -2.126  -0.106  0.00  0.00    -0.285 N 
ATOM     10  C   UNL     1      -1.264  -0.766   0.035  0.00  0.00    +0.145 A 
ATOM     11  N   UNL     1      -2.406  -0.121   0.150  0.00  0.00    -0.222 NA
ATOM     12  C   UNL     1      -7.486  -2.244   0.172  0.00  0.00    +0.052 C 
ENDROOT
BRANCH  10  13
ATOM     13  C   UNL     1       0.005  -0.009   0.052  0.00  0.00    +0.018 A 
ATOM     14  C   UNL     1       0.924  -0.157  -0.988  0.00  0.00    +0.011 A 
ATOM     15  C   UNL     1       2.106   0.554  -0.966  0.00  0.00    +0.001 A 
ATOM     16  C   UNL     1       2.383   1.410   0.085  0.00  0.00    +0.000 A 
ATOM     17  C   UNL     1       1.476   1.562   1.119  0.00  0.00    +0.001 A 
ATOM     18  C   UNL     1       0.290   0.858   1.109  0.00  0.00    +0.011 A 
ENDBRANCH  10  13
BRANCH   9  19
ATOM     19  C   UNL     1       0.053  -2.809  -0.238  0.00  0.00    +0.203 C 
BRANCH  19  20
ATOM     20  C   UNL     1       0.518  -3.271   1.119  0.00  0.00    +0.156 A 
ATOM     21  N   UNL     1       1.269  -2.479   1.863  0.00  0.00    -0.198 NA
ATOM     22  C   UNL     1       1.677  -2.881   3.065  0.00  0.00    +0.217 A 
ATOM     23  N   UNL     1       1.337  -4.086   3.511  0.00  0.00    -0.181 NA
ATOM     24  C   UNL     1       0.586  -4.881   2.757  0.00  0.00    +0.217 A 
ATOM     25  N   UNL     1       0.177  -4.470   1.559  0.00  0.00    -0.198 NA
ATOM     26  N   UNL     1       0.230  -6.134   3.215  0.00  0.00    -0.327 N 
ATOM     27  N   UNL     1       2.457  -2.051   3.844  0.00  0.00    -0.327 N 
ATOM     28  H   UNL     1      -0.318  -6.714   2.664  0.00  0.00    +0.145 HD
ATOM     29  H   UNL     1       0.528  -6.433   4.088  0.00  0.00    +0.145 HD
ATOM     30  H   UNL     1       2.757  -2.347   4.718  0.00  0.00    +0.145 HD
ATOM     31  H   UNL     1       2.704  -1.172   3.518  0.00  0.00    +0.145 HD
ENDBRANCH  19  20
ENDBRANCH   9  19
TORSDOF 3
