REMARK  Name = ZINC14990521
REMARK  9 active torsions:
REMARK  status: ('A' for Active; 'I' for Inactive)
REMARK    1  A    between atoms: C_1  and  N_2
REMARK    2  A    between atoms: N_2  and  C_3
REMARK    3  A    between atoms: N_2  and  C_4
REMARK    4  A    between atoms: C_7  and  C_10
REMARK    5  A    between atoms: C_11  and  C_12
REMARK    6  A    between atoms: C_12  and  N_61
REMARK    7  A    between atoms: C_18  and  C_22
REMARK    8  A    between atoms: C_22  and  C_23
REMARK    9  A    between atoms: C_23  and  C_24
REMARK                            x       y       z     vdW  Elec       q    Type
REMARK                         _______ _______ _______ _____ _____    ______ ____
ROOT
ATOM      1  C   UNL     1       9.530  -0.959  -0.624  0.00  0.00    -0.071 C 
ATOM      2  C   UNL     1       9.104  -2.000  -1.655  0.00  0.00    +0.058 C 
ATOM      3  C   UNL     1       7.606  -2.161  -1.601  0.00  0.00    +0.132 A 
ATOM      4  N   UNL     1       6.924  -3.269  -1.601  0.00  0.00    -0.134 NA
ATOM      5  N   UNL     1       5.665  -2.999  -1.577  0.00  0.00    -0.134 NA
ATOM      6  C   UNL     1       5.492  -1.704  -1.555  0.00  0.00    +0.134 A 
ATOM      7  N   UNL     1       6.718  -1.138  -1.563  0.00  0.00    -0.317 N 
ATOM      8  C   UNL     1       7.046   0.286  -1.520  0.00  0.00    +0.106 C 
ATOM      9  C   UNL     1       8.400   0.511  -2.200  0.00  0.00    -0.056 C 
ATOM     10  N   UNL     1       9.513   0.390  -1.231  0.00  0.00    +0.383 N 
ATOM     11  H   UNL     1      10.400   0.541  -1.725  0.00  0.00    -0.081 HD
ENDROOT
BRANCH  10  12
ATOM     12  C   UNL     1       9.375   1.412  -0.177  0.00  0.00    -0.051 C 
BRANCH  12  14
ATOM     13  C   UNL     1      11.326   2.516   0.824  0.00  0.00    +0.002 C 
ATOM     14  C   UNL     1      10.623   1.403   0.668  0.00  0.00    -0.045 C 
BRANCH  13  18
ATOM     15  C   UNL     1      14.843   2.491   3.207  0.00  0.00    +0.029 A 
ATOM     16  C   UNL     1      14.431   3.667   2.591  0.00  0.00    +0.023 A 
ATOM     17  C   UNL     1      13.291   3.679   1.817  0.00  0.00    +0.010 A 
ATOM     18  C   UNL     1      12.549   2.507   1.652  0.00  0.00    -0.025 A 
ATOM     19  C   UNL     1      12.962   1.329   2.277  0.00  0.00    +0.010 A 
ATOM     20  C   UNL     1      14.106   1.323   3.046  0.00  0.00    +0.023 A 
BRANCH  15  22
ATOM     21  C   UNL     1      16.843   3.677   4.061  0.00  0.00    +0.129 C 
ATOM     22  N   UNL     1      15.998   2.483   3.990  0.00  0.00    -0.336 N 
ATOM     23  C   UNL     1      16.365   1.280   4.742  0.00  0.00    +0.129 C 
ENDBRANCH  15  22
ENDBRANCH  13  18
ENDBRANCH  12  14
ENDBRANCH  10  12
BRANCH   6  24
ATOM     24  C   UNL     1       4.171  -0.978  -1.532  0.00  0.00    +0.081 C 
BRANCH  24  25
ATOM     25  C   UNL     1       3.738  -0.754  -0.082  0.00  0.00    +0.043 C 
BRANCH  25  26
ATOM     26  C   UNL     1       2.417  -0.028  -0.059  0.00  0.00    -0.047 A 
ATOM     27  C   UNL     1       1.235  -0.744  -0.059  0.00  0.00    +0.003 A 
ATOM     28  C   UNL     1       0.024  -0.078  -0.038  0.00  0.00    +0.000 A 
ATOM     29  C   UNL     1      -0.005   1.304  -0.016  0.00  0.00    +0.000 A 
ATOM     30  C   UNL     1       1.178   2.020  -0.015  0.00  0.00    +0.000 A 
ATOM     31  C   UNL     1       2.389   1.354  -0.037  0.00  0.00    +0.003 A 
ENDBRANCH  25  26
ENDBRANCH  24  25
ENDBRANCH   6  24
TORSDOF 7
