REMARK  Name = ZINC52551498
REMARK  7 active torsions:
REMARK  status: ('A' for Active; 'I' for Inactive)
REMARK    1  A    between atoms: C_1  and  C_2
REMARK    2  A    between atoms: N_4  and  C_5
REMARK    3  A    between atoms: C_5  and  C_6
REMARK    4  A    between atoms: N_9  and  C_13
REMARK    5  A    between atoms: C_16  and  N_20
REMARK    6  A    between atoms: C_26  and  C_28
REMARK    7  A    between atoms: C_28  and  C_30
REMARK                            x       y       z     vdW  Elec       q    Type
REMARK                         _______ _______ _______ _____ _____    ______ ____
ROOT
ATOM      1  N   UNL     1      -6.579  -9.437   2.284  0.00  0.00    -0.325 N 
ATOM      2  C   UNL     1      -7.791  -9.765   1.519  0.00  0.00    +0.124 C 
ATOM      3  C   UNL     1      -7.472 -10.928   0.572  0.00  0.00    +0.127 C 
ATOM      4  N   UNL     1      -6.810 -11.992   1.341  0.00  0.00    -0.292 N 
ATOM      5  C   UNL     1      -5.598 -11.663   2.106  0.00  0.00    +0.127 C 
ATOM      6  C   UNL     1      -5.914 -10.501   3.048  0.00  0.00    +0.124 C 
ATOM      7  C   UNL     1      -7.304 -13.245   1.344  0.00  0.00    +0.287 C 
ATOM      8  O   UNL     1      -6.764 -14.109   2.005  0.00  0.00    -0.266 OA
ENDROOT
BRANCH   1  12
ATOM      9  C   UNL     1      -5.048  -5.556   2.272  0.00  0.00    +0.042 A 
ATOM     10  C   UNL     1      -4.631  -6.471   1.315  0.00  0.00    +0.025 A 
ATOM     11  C   UNL     1      -5.138  -7.756   1.319  0.00  0.00    +0.028 A 
ATOM     12  C   UNL     1      -6.065  -8.133   2.280  0.00  0.00    +0.066 A 
ATOM     13  C   UNL     1      -6.484  -7.218   3.239  0.00  0.00    +0.146 A 
ATOM     14  C   UNL     1      -5.972  -5.934   3.237  0.00  0.00    +0.063 A 
ATOM     15  F   UNL     1      -7.386  -7.584   4.175  0.00  0.00    -0.203 F 
BRANCH   9  18
ATOM     16  C   UNL     1      -3.663  -2.185   1.553  0.00  0.00    +0.213 C 
ATOM     17  C   UNL     1      -3.551  -3.709   1.308  0.00  0.00    +0.163 C 
ATOM     18  N   UNL     1      -4.533  -4.253   2.266  0.00  0.00    -0.234 N 
ATOM     19  C   UNL     1      -4.846  -3.272   3.134  0.00  0.00    +0.408 C 
ATOM     20  O   UNL     1      -5.654  -3.401   4.032  0.00  0.00    -0.226 OA
ATOM     21  O   UNL     1      -4.169  -2.134   2.901  0.00  0.00    -0.444 OA
BRANCH  16  22
ATOM     22  C   UNL     1      -2.291  -1.514   1.458  0.00  0.00    +0.150 C 
BRANCH  22  26
ATOM     23  C   UNL     1      -1.474   2.178   2.057  0.00  0.00    +0.109 C 
ATOM     24  C   UNL     1      -1.337   0.710   1.742  0.00  0.00    +0.210 C 
ATOM     25  O   UNL     1      -0.250   0.247   1.469  0.00  0.00    -0.276 OA
ATOM     26  N   UNL     1      -2.424  -0.087   1.764  0.00  0.00    -0.312 N 
ATOM     27  H   UNL     1      -3.293   0.283   1.983  0.00  0.00    +0.149 HD
ENDBRANCH  22  26
ENDBRANCH  16  22
ENDBRANCH   9  18
ENDBRANCH   1  12
BRANCH   7  28
ATOM     28  C   UNL     1      -8.514 -13.571   0.538  0.00  0.00    +0.246 C 
ATOM     29  O   UNL     1      -8.888 -12.809  -0.332  0.00  0.00    -0.282 OA
BRANCH  28  30
ATOM     30  C   UNL     1      -9.229 -14.770   0.785  0.00  0.00    +0.034 C 
ATOM     31  C   UNL     1     -10.360 -15.220   0.128  0.00  0.00    +0.026 A 
ATOM     32  C   UNL     1     -11.136 -14.686  -0.934  0.00  0.00    +0.013 A 
ATOM     33  C   UNL     1     -12.214 -15.393  -1.359  0.00  0.00    +0.020 A 
ATOM     34  C   UNL     1     -12.549 -16.620  -0.761  0.00  0.00    +0.113 A 
ATOM     35  N   UNL     1     -11.860 -17.140   0.215  0.00  0.00    -0.238 NA
ATOM     36  C   UNL     1     -10.765 -16.518   0.716  0.00  0.00    +0.135 A 
ATOM     37  N   UNL     1      -9.946 -16.858   1.675  0.00  0.00    -0.365 N 
ATOM     38  C   UNL     1      -8.912 -15.828   1.818  0.00  0.00    +0.154 C 
ATOM     39  H   UNL     1     -10.009 -17.667   2.206  0.00  0.00    +0.161 HD
ENDBRANCH  28  30
ENDBRANCH   7  28
TORSDOF 6
