REMARK  Name = ZINC58948711
REMARK  8 active torsions:
REMARK  status: ('A' for Active; 'I' for Inactive)
REMARK    1  A    between atoms: C_1  and  C_2
REMARK    2  A    between atoms: C_2  and  O_3
REMARK    3  A    between atoms: O_3  and  C_4
REMARK    4  A    between atoms: C_4  and  C_6
REMARK    5  A    between atoms: C_7  and  C_31
REMARK    6  A    between atoms: C_9  and  N_30
REMARK    7  A    between atoms: C_10  and  C_27
REMARK    8  A    between atoms: C_11  and  C_13
REMARK                            x       y       z     vdW  Elec       q    Type
REMARK                         _______ _______ _______ _____ _____    ______ ____
ROOT
ATOM      1  C   UNL     1      -2.674  -2.289   0.462  0.00  0.00    +0.086 C 
ATOM      2  C   UNL     1      -2.596  -3.607   0.238  0.00  0.00    +0.115 C 
ATOM      3  O   UNL     1      -3.684  -4.349  -0.022  0.00  0.00    -0.446 OA
ATOM      4  C   UNL     1      -4.819  -3.755  -0.432  0.00  0.00    +0.193 C 
ATOM      5  C   UNL     1      -5.030  -2.428  -0.244  0.00  0.00    +0.083 C 
ATOM      6  C   UNL     1      -3.997  -1.572   0.440  0.00  0.00    +0.100 C 
ATOM      7  C   UNL     1      -1.246  -4.276   0.279  0.00  0.00    +0.087 C 
ENDROOT
BRANCH   6   8
ATOM      8  C   UNL     1      -4.434  -1.284   1.853  0.00  0.00    -0.020 A 
ATOM      9  C   UNL     1      -4.757  -2.330   2.714  0.00  0.00    -0.013 A 
ATOM     10  C   UNL     1      -4.683  -3.674   2.288  0.00  0.00    +0.009 A 
ATOM     11  C   UNL     1      -5.004  -4.670   3.154  0.00  0.00    +0.001 A 
ATOM     12  C   UNL     1      -5.410  -4.402   4.462  0.00  0.00    +0.001 A 
ATOM     13  C   UNL     1      -5.503  -3.134   4.935  0.00  0.00    +0.008 A 
ATOM     14  C   UNL     1      -5.183  -2.050   4.089  0.00  0.00    -0.017 A 
ATOM     15  C   UNL     1      -5.267  -0.735   4.543  0.00  0.00    +0.017 A 
ATOM     16  C   UNL     1      -4.945   0.312   3.681  0.00  0.00    -0.017 A 
ATOM     17  C   UNL     1      -4.512   0.031   2.308  0.00  0.00    -0.013 A 
ATOM     18  C   UNL     1      -4.187   1.115   1.464  0.00  0.00    +0.009 A 
ATOM     19  C   UNL     1      -4.274   2.383   1.940  0.00  0.00    +0.001 A 
ATOM     20  C   UNL     1      -4.679   2.651   3.248  0.00  0.00    +0.001 A 
ATOM     21  C   UNL     1      -5.019   1.656   4.107  0.00  0.00    +0.008 A 
ENDBRANCH   6   8
BRANCH   5  22
ATOM     22  C   UNL     1      -6.231  -1.846  -0.689  0.00  0.00    +0.243 C 
ATOM     23  O   UNL     1      -6.254  -1.220  -1.735  0.00  0.00    -0.271 OA
ATOM     24  N   UNL     1      -7.356  -1.981   0.041  0.00  0.00    -0.325 N 
ATOM     25  H   UNL     1      -7.338  -2.479   0.873  0.00  0.00    +0.145 HD
ATOM     26  H   UNL     1      -8.184  -1.579  -0.266  0.00  0.00    +0.145 HD
ENDBRANCH   5  22
BRANCH   4  27
ATOM     27  N   UNL     1      -5.781  -4.506  -1.053  0.00  0.00    -0.329 N 
ATOM     28  H   UNL     1      -5.684  -5.469  -1.109  0.00  0.00    +0.145 HD
ATOM     29  H   UNL     1      -6.560  -4.074  -1.438  0.00  0.00    +0.145 HD
ENDBRANCH   4  27
BRANCH   1  30
ATOM     30  C   UNL     1      -1.491  -1.558   0.732  0.00  0.00    +0.339 C 
ATOM     31  O   UNL     1      -1.009  -0.844  -0.127  0.00  0.00    -0.245 OA
BRANCH  30  32
ATOM     32  O   UNL     1      -0.900  -1.653   1.940  0.00  0.00    -0.462 OA
BRANCH  32  34
ATOM     33  C   UNL     1       0.812  -1.122   3.561  0.00  0.00    +0.048 C 
ATOM     34  C   UNL     1       0.290  -0.887   2.142  0.00  0.00    +0.229 C 
ENDBRANCH  32  34
ENDBRANCH  30  32
ENDBRANCH   1  30
TORSDOF 6
