REMARK  Name = ZINC10157402
REMARK  5 active torsions:
REMARK  status: ('A' for Active; 'I' for Inactive)
REMARK    1  A    between atoms: C_1  and  C_2
REMARK    2  A    between atoms: C_11  and  C_12
REMARK    3  A    between atoms: C_20  and  C_22
REMARK    4  A    between atoms: C_22  and  C_23
REMARK    5  A    between atoms: C_22  and  C_24
REMARK                            x       y       z     vdW  Elec       q    Type
REMARK                         _______ _______ _______ _____ _____    ______ ____
ROOT
ATOM      1  C   UNL     1       2.522   3.883  -0.018  0.00  0.00    +0.046 C 
ATOM      2  C   UNL     1       1.210   3.142  -0.014  0.00  0.00    -0.024 A 
ATOM      3  C   UNL     1       1.192   1.780  -0.027  0.00  0.00    +0.005 A 
ATOM      4  C   UNL     1      -0.010   1.077  -0.022  0.00  0.00    +0.001 A 
ATOM      5  C   UNL     1      -1.205   1.731  -0.009  0.00  0.00    +0.012 A 
ATOM      6  C   UNL     1      -1.224   3.133   0.010  0.00  0.00    +0.022 A 
ATOM      7  C   UNL     1      -0.000   3.851   0.005  0.00  0.00    +0.079 A 
ATOM      8  N   UNL     1      -0.038   5.189   0.019  0.00  0.00    -0.214 NA
ATOM      9  C   UNL     1      -1.196   5.819   0.037  0.00  0.00    +0.222 A 
ATOM     10  N   UNL     1      -2.363   5.178   0.042  0.00  0.00    -0.219 NA
ATOM     11  C   UNL     1      -2.427   3.864   0.029  0.00  0.00    +0.051 A 
ATOM     12  C   UNL     1      -3.758   3.157   0.035  0.00  0.00    +0.066 C 
ATOM     13  N   UNL     1      -1.198   7.206   0.052  0.00  0.00    -0.254 N 
ATOM     14  C   UNL     1      -2.384   7.892  -0.037  0.00  0.00    +0.202 A 
ATOM     15  N   UNL     1      -2.366   9.249  -0.126  0.00  0.00    -0.295 N 
ATOM     16  H   UNL     1      -1.522   9.726  -0.126  0.00  0.00    +0.172 HD
ATOM     17  C   UNL     1      -3.529   9.930  -0.217  0.00  0.00    +0.253 A 
ATOM     18  O   UNL     1      -3.531  11.147  -0.302  0.00  0.00    -0.268 OA
ATOM     19  C   UNL     1      -4.737   9.209  -0.208  0.00  0.00    +0.093 A 
ATOM     20  C   UNL     1      -4.692   7.849  -0.113  0.00  0.00    +0.053 A 
ATOM     21  N   UNL     1      -3.519   7.224  -0.029  0.00  0.00    -0.220 NA
ATOM     22  H   UNL     1      -0.361   7.692   0.124  0.00  0.00    +0.158 HD
ENDROOT
BRANCH  20  23
ATOM     23  C   UNL     1      -5.971   7.053  -0.101  0.00  0.00    +0.032 C 
ATOM     24  C   UNL     1      -5.982   6.087  -1.287  0.00  0.00    +0.014 C 
ATOM     25  C   UNL     1      -6.067   6.260   1.204  0.00  0.00    +0.014 C 
ENDBRANCH  20  23
TORSDOF 1
