REMARK  Name = ZINC08921179
REMARK  7 active torsions:
REMARK  status: ('A' for Active; 'I' for Inactive)
REMARK    1  A    between atoms: C_1  and  C_2
REMARK    2  A    between atoms: C_2  and  O_3
REMARK    3  A    between atoms: O_3  and  C_4
REMARK    4  A    between atoms: C_14  and  O_30
REMARK    5  A    between atoms: C_16  and  C_19
REMARK    6  A    between atoms: C_20  and  C_21
REMARK    7  A    between atoms: C_24  and  N_27
REMARK                            x       y       z     vdW  Elec       q    Type
REMARK                         _______ _______ _______ _____ _____    ______ ____
ROOT
ATOM      1  C   UNL     1     -11.370  -0.269  -1.966  0.00  0.00    +0.403 C 
ATOM      2  O   UNL     1     -12.149  -0.572  -1.085  0.00  0.00    -0.226 OA
ATOM      3  N   UNL     1     -10.374   0.605  -1.714  0.00  0.00    -0.262 N 
ATOM      4  C   UNL     1     -10.206   1.208  -0.383  0.00  0.00    +0.116 C 
ATOM      5  C   UNL     1      -8.877   0.752   0.222  0.00  0.00    +0.056 C 
ATOM      6  C   UNL     1      -7.769   0.921  -0.811  0.00  0.00    -0.020 A 
ATOM      7  C   UNL     1      -8.053   1.020  -2.131  0.00  0.00    +0.013 A 
ATOM      8  S   UNL     1      -6.479   1.189  -2.928  0.00  0.00    -0.076 S 
ATOM      9  C   UNL     1      -5.474   1.134  -1.545  0.00  0.00    +0.080 A 
ATOM     10  C   UNL     1      -6.358   0.982  -0.470  0.00  0.00    +0.068 A 
ATOM     11  C   UNL     1      -5.766   0.896   0.890  0.00  0.00    +0.220 C 
ATOM     12  N   UNL     1      -4.505   1.206   1.022  0.00  0.00    -0.223 NA
ATOM     13  C   UNL     1      -3.652   1.693  -0.055  0.00  0.00    +0.217 C 
ATOM     14  N   UNL     1      -4.115   1.215  -1.371  0.00  0.00    -0.313 N 
ATOM     15  C   UNL     1      -9.411   0.993  -2.764  0.00  0.00    +0.153 C 
ATOM     16  H   UNL     1      -3.494   0.972  -2.075  0.00  0.00    +0.149 HD
ENDROOT
BRANCH  13  17
ATOM     17  C   UNL     1      -3.662   3.200  -0.047  0.00  0.00    +0.019 C 
ATOM     18  C   UNL     1      -2.560   3.868   0.262  0.00  0.00    +0.007 C 
BRANCH  18  19
ATOM     19  C   UNL     1      -1.375   3.145   0.770  0.00  0.00    -0.025 A 
ATOM     20  C   UNL     1      -0.099   3.486   0.318  0.00  0.00    +0.010 A 
ATOM     21  C   UNL     1       1.002   2.804   0.792  0.00  0.00    +0.033 A 
ATOM     22  C   UNL     1       0.845   1.790   1.720  0.00  0.00    +0.126 A 
ATOM     23  C   UNL     1      -0.416   1.450   2.176  0.00  0.00    +0.033 A 
ATOM     24  C   UNL     1      -1.526   2.122   1.706  0.00  0.00    +0.010 A 
BRANCH  22  25
ATOM     25  N   UNL     1       2.032   1.066   2.228  0.00  0.00    +0.056 N 
ATOM     26  O   UNL     1       3.143   1.363   1.830  0.00  0.00    -0.126 OA
ATOM     27  O   UNL     1       1.896   0.173   3.046  0.00  0.00    -0.126 OA
ENDBRANCH  22  25
ENDBRANCH  18  19
ENDBRANCH  13  17
BRANCH  11  28
ATOM     28  O   UNL     1      -6.508   0.510   1.954  0.00  0.00    -0.492 OA
ATOM     29  H   UNL     1      -6.019   0.490   2.788  0.00  0.00    +0.294 HD
ENDBRANCH  11  28
BRANCH   1  30
ATOM     30  O   UNL     1     -11.500  -0.805  -3.194  0.00  0.00    -0.451 OA
BRANCH  30  32
ATOM     31  C   UNL     1     -12.582  -2.238  -4.839  0.00  0.00    +0.048 C 
ATOM     32  C   UNL     1     -12.595  -1.738  -3.393  0.00  0.00    +0.230 C 
ENDBRANCH  30  32
ENDBRANCH   1  30
TORSDOF 6
