REMARK  Name = ZINC20568378
REMARK  9 active torsions:
REMARK  status: ('A' for Active; 'I' for Inactive)
REMARK    1  A    between atoms: C_1  and  C_2
REMARK    2  A    between atoms: C_7  and  C_9
REMARK    3  A    between atoms: C_7  and  C_10
REMARK    4  A    between atoms: N_11  and  C_13
REMARK    5  A    between atoms: C_13  and  N_14
REMARK    6  A    between atoms: N_22  and  N_23
REMARK    7  A    between atoms: C_24  and  C_26
REMARK    8  A    between atoms: C_29  and  O_32
REMARK    9  A    between atoms: O_32  and  C_33
REMARK                            x       y       z     vdW  Elec       q    Type
REMARK                         _______ _______ _______ _____ _____    ______ ____
ROOT
ATOM      1  N   UNL     1       1.335  -2.447  -3.369  0.00  0.00    -0.282 N 
ATOM      2  C   UNL     1       0.863  -2.575  -4.670  0.00  0.00    +0.044 A 
ATOM      3  C   UNL     1      -0.341  -3.055  -5.173  0.00  0.00    +0.024 A 
ATOM      4  C   UNL     1      -0.564  -3.076  -6.535  0.00  0.00    +0.002 A 
ATOM      5  C   UNL     1       0.403  -2.620  -7.415  0.00  0.00    +0.001 A 
ATOM      6  C   UNL     1       1.605  -2.140  -6.935  0.00  0.00    +0.012 A 
ATOM      7  C   UNL     1       1.839  -2.115  -5.564  0.00  0.00    +0.028 A 
ATOM      8  C   UNL     1       2.988  -1.675  -4.739  0.00  0.00    +0.153 C 
ATOM      9  N   UNL     1       4.125  -1.173  -5.157  0.00  0.00    -0.174 NA
ATOM     10  C   UNL     1       2.572  -1.921  -3.344  0.00  0.00    +0.270 C 
ATOM     11  O   UNL     1       3.232  -1.690  -2.348  0.00  0.00    -0.268 OA
ENDROOT
BRANCH   9  12
ATOM     12  N   UNL     1       5.111  -0.808  -4.231  0.00  0.00    -0.202 N 
ATOM     13  C   UNL     1       6.280  -0.291  -4.661  0.00  0.00    +0.263 C 
ATOM     14  O   UNL     1       6.478  -0.142  -5.851  0.00  0.00    -0.268 OA
ATOM     15  H   UNL     1       4.953  -0.927  -3.282  0.00  0.00    +0.178 HD
BRANCH  13  16
ATOM     16  C   UNL     1       7.318   0.093  -3.686  0.00  0.00    +0.039 A 
ATOM     17  C   UNL     1       7.095  -0.083  -2.318  0.00  0.00    +0.016 A 
ATOM     18  C   UNL     1       8.067   0.277  -1.412  0.00  0.00    +0.046 A 
ATOM     19  C   UNL     1       9.269   0.816  -1.856  0.00  0.00    +0.120 A 
ATOM     20  C   UNL     1       9.495   0.993  -3.216  0.00  0.00    +0.046 A 
ATOM     21  C   UNL     1       8.531   0.629  -4.130  0.00  0.00    +0.016 A 
BRANCH  19  22
ATOM     22  O   UNL     1      10.224   1.170  -0.960  0.00  0.00    -0.495 OA
ATOM     23  C   UNL     1      11.436   1.717  -1.484  0.00  0.00    +0.277 C 
ENDBRANCH  19  22
ENDBRANCH  13  16
ENDBRANCH   9  12
BRANCH   1  24
ATOM     24  C   UNL     1       0.578  -2.831  -2.175  0.00  0.00    +0.039 C 
BRANCH  24  34
ATOM     25  C   UNL     1      -0.019   1.532   0.011  0.00  0.00    +0.009 C 
ATOM     26  C   UNL     1       0.002  -0.004   0.002  0.00  0.00    -0.048 C 
ATOM     27  C   UNL     1      -1.426  -0.615   0.004  0.00  0.00    -0.011 C 
ATOM     28  C   UNL     1      -1.101  -2.018  -0.581  0.00  0.00    -0.065 C 
ATOM     29  C   UNL     1      -0.397  -2.817   0.499  0.00  0.00    -0.009 C 
ATOM     30  C   UNL     1       0.663  -2.102   1.307  0.00  0.00    -0.036 C 
ATOM     31  C   UNL     1       0.727  -0.591   1.214  0.00  0.00    +0.011 C 
ATOM     32  C   UNL     1       0.412  -2.453   2.797  0.00  0.00    +0.011 C 
ATOM     33  C   UNL     1       2.047  -2.686   0.964  0.00  0.00    +0.011 C 
ATOM     34  N   UNL     1      -0.211  -1.695  -1.714  0.00  0.00    +0.393 N 
ATOM     35  C   UNL     1       0.647  -0.577  -1.281  0.00  0.00    -0.070 C 
ATOM     36  H   UNL     1      -0.789  -1.365  -2.490  0.00  0.00    -0.079 HD
ENDBRANCH  24  34
ENDBRANCH   1  24
TORSDOF 5
