REMARK  Name = ZINC09432877
REMARK  12 active torsions:
REMARK  status: ('A' for Active; 'I' for Inactive)
REMARK    1  A    between atoms: C_1  and  O_2
REMARK    2  A    between atoms: O_2  and  C_3
REMARK    3  A    between atoms: C_3  and  C_4
REMARK    4  A    between atoms: C_4  and  N_5
REMARK    5  A    between atoms: C_6  and  C_34
REMARK    6  A    between atoms: C_8  and  C_18
REMARK    7  A    between atoms: N_20  and  C_21
REMARK    8  A    between atoms: C_21  and  C_22
REMARK    9  A    between atoms: C_22  and  N_72
REMARK   10  A    between atoms: C_23  and  C_24
REMARK   11  A    between atoms: C_23  and  N_72
REMARK   12  A    between atoms: C_29  and  N_72
REMARK                            x       y       z     vdW  Elec       q    Type
REMARK                         _______ _______ _______ _____ _____    ______ ____
ROOT
ATOM      1  N   UNL     1       4.925   5.965   2.962  0.00  0.00    -0.287 N 
ATOM      2  C   UNL     1       3.646   5.638   2.335  0.00  0.00    +0.129 C 
ATOM      3  C   UNL     1       3.744   4.339   1.539  0.00  0.00    +0.131 C 
ATOM      4  C   UNL     1       4.352   3.255   2.389  0.00  0.00    -0.021 A 
ATOM      5  C   UNL     1       3.964   1.941   2.236  0.00  0.00    +0.005 A 
ATOM      6  C   UNL     1       4.543   0.954   3.015  0.00  0.00    +0.000 A 
ATOM      7  C   UNL     1       5.513   1.277   3.948  0.00  0.00    +0.001 A 
ATOM      8  C   UNL     1       5.905   2.590   4.115  0.00  0.00    +0.013 A 
ATOM      9  C   UNL     1       5.320   3.587   3.338  0.00  0.00    +0.041 A 
ATOM     10  C   UNL     1       5.692   5.007   3.517  0.00  0.00    +0.247 C 
ATOM     11  O   UNL     1       6.679   5.306   4.160  0.00  0.00    -0.270 OA
ENDROOT
BRANCH   2  12
ATOM     12  C   UNL     1       2.596   5.484   3.404  0.00  0.00    +0.011 A 
ATOM     13  C   UNL     1       1.311   5.918   3.408  0.00  0.00    +0.013 A 
ATOM     14  C   UNL     1       0.519   5.660   4.511  0.00  0.00    +0.008 A 
ATOM     15  C   UNL     1       1.050   4.981   5.557  0.00  0.00    +0.045 A 
ATOM     16  S   UNL     1       2.717   4.678   4.992  0.00  0.00    -0.100 S 
ENDBRANCH   2  12
BRANCH   3  17
ATOM     17  C   UNL     1       2.366   3.917   1.100  0.00  0.00    +0.223 C 
ATOM     18  O   UNL     1       1.655   3.288   1.856  0.00  0.00    -0.275 OA
ATOM     19  N   UNL     1       1.923   4.237  -0.132  0.00  0.00    -0.317 N 
ATOM     20  H   UNL     1       2.516   4.675  -0.762  0.00  0.00    +0.149 HD
BRANCH  19  21
ATOM     21  C   UNL     1       0.545   3.923  -0.519  0.00  0.00    +0.086 C 
BRANCH  21  22
ATOM     22  C   UNL     1       0.301   4.388  -1.956  0.00  0.00    -0.059 C 
BRANCH  22  23
ATOM     23  N   UNL     1      -1.026   3.906  -2.393  0.00  0.00    +0.387 N 
ATOM     24  H   UNL     1      -1.105   2.905  -2.177  0.00  0.00    -0.081 HD
BRANCH  23  25
ATOM     25  C   UNL     1      -2.091   4.637  -1.675  0.00  0.00    -0.068 C 
ATOM     26  C   UNL     1      -1.839   6.159  -1.711  0.00  0.00    -0.015 C 
ATOM     27  C   UNL     1      -2.294   6.651  -0.314  0.00  0.00    -0.002 C 
ATOM     28  C   UNL     1      -1.826   5.509   0.621  0.00  0.00    -0.002 C 
ATOM     29  C   UNL     1      -2.083   4.224  -0.193  0.00  0.00    -0.015 C 
ENDBRANCH  23  25
BRANCH  23  30
ATOM     30  C   UNL     1      -1.178   4.096  -3.851  0.00  0.00    -0.003 C 
BRANCH  30  31
ATOM     31  C   UNL     1      -2.342   3.267  -4.329  0.00  0.00    +0.089 A 
ATOM     32  C   UNL     1      -3.627   3.662  -4.362  0.00  0.00    +0.042 A 
ATOM     33  C   UNL     1      -4.375   2.580  -4.879  0.00  0.00    +0.041 A 
ATOM     34  C   UNL     1      -3.504   1.585  -5.123  0.00  0.00    +0.195 A 
ATOM     35  O   UNL     1      -2.274   2.007  -4.788  0.00  0.00    -0.470 OA
ENDBRANCH  30  31
ENDBRANCH  23  30
ENDBRANCH  22  23
ENDBRANCH  21  22
ENDBRANCH  19  21
ENDBRANCH   3  17
BRANCH   1  36
ATOM     36  C   UNL     1       5.380   7.357   2.987  0.00  0.00    +0.137 C 
BRANCH  36  37
ATOM     37  C   UNL     1       6.208   7.645   1.733  0.00  0.00    +0.178 C 
BRANCH  37  39
ATOM     38  C   UNL     1       6.054   7.793  -0.654  0.00  0.00    +0.194 C 
ATOM     39  O   UNL     1       5.374   7.541   0.577  0.00  0.00    -0.381 OA
ENDBRANCH  37  39
ENDBRANCH  36  37
ENDBRANCH   1  36
TORSDOF 11
