REMARK  Name = ZINC20921121
REMARK  14 active torsions:
REMARK  status: ('A' for Active; 'I' for Inactive)
REMARK    1  A    between atoms: C_1  and  C_2
REMARK    2  A    between atoms: C_2  and  O_3
REMARK    3  A    between atoms: O_3  and  C_4
REMARK    4  A    between atoms: C_9  and  O_10
REMARK    5  A    between atoms: O_10  and  C_11
REMARK    6  A    between atoms: C_11  and  C_12
REMARK    7  A    between atoms: C_13  and  C_28
REMARK    8  A    between atoms: N_15  and  S_18
REMARK    9  A    between atoms: S_18  and  C_21
REMARK   10  A    between atoms: C_22  and  C_27
REMARK   11  A    between atoms: C_25  and  C_26
REMARK   12  A    between atoms: C_28  and  C_29
REMARK   13  A    between atoms: C_29  and  O_31
REMARK   14  A    between atoms: O_31  and  C_32
REMARK                            x       y       z     vdW  Elec       q    Type
REMARK                         _______ _______ _______ _____ _____    ______ ____
ROOT
ATOM      1  C   UNL     1      -2.089   6.363  -1.627  0.00  0.00    +0.162 A 
ATOM      2  C   UNL     1      -0.793   5.893  -1.527  0.00  0.00    +0.053 A 
ATOM      3  C   UNL     1      -0.541   4.600  -1.084  0.00  0.00    -0.038 A 
ATOM      4  C   UNL     1      -1.593   3.782  -0.735  0.00  0.00    -0.021 A 
ATOM      5  C   UNL     1      -2.897   4.248  -0.837  0.00  0.00    +0.055 A 
ATOM      6  C   UNL     1      -3.151   5.533  -1.281  0.00  0.00    +0.162 A 
ATOM      7  C   UNL     1      -1.389   2.377  -0.235  0.00  0.00    +0.121 C 
ATOM      8  N   UNL     1       0.007   1.975  -0.435  0.00  0.00    -0.168 NA
ATOM      9  C   UNL     1       1.049   2.953  -0.082  0.00  0.00    +0.115 C 
ATOM     10  C   UNL     1       0.897   4.157  -1.010  0.00  0.00    +0.052 C 
ENDROOT
BRANCH   8  11
ATOM     11  S   UNL     1       0.396   0.483  -1.039  0.00  0.00    +0.066 S 
ATOM     12  O   UNL     1       1.627   0.109  -0.437  0.00  0.00    -0.153 OA
ATOM     13  O   UNL     1      -0.776  -0.315  -0.936  0.00  0.00    -0.153 OA
BRANCH  11  14
ATOM     14  C   UNL     1       0.718   0.685  -2.760  0.00  0.00    +0.170 A 
ATOM     15  C   UNL     1      -0.211   0.680  -3.825  0.00  0.00    +0.107 A 
ATOM     16  N   UNL     1       0.478   0.867  -4.914  0.00  0.00    -0.081 NA
ATOM     17  O   UNL     1       1.659   0.975  -4.680  0.00  0.00    -0.358 OA
ATOM     18  C   UNL     1       1.913   0.876  -3.368  0.00  0.00    +0.161 A 
ATOM     19  C   UNL     1       3.261   0.960  -2.701  0.00  0.00    +0.091 C 
ATOM     20  C   UNL     1      -1.704   0.499  -3.722  0.00  0.00    +0.071 C 
ENDBRANCH  11  14
ENDBRANCH   8  11
BRANCH   1  21
ATOM     21  O   UNL     1      -2.325   7.630  -2.060  0.00  0.00    -0.489 OA
BRANCH  21  23
ATOM     22  C   UNL     1      -1.645   9.807  -2.860  0.00  0.00    +0.048 C 
ATOM     23  C   UNL     1      -1.185   8.423  -2.397  0.00  0.00    +0.226 C 
ENDBRANCH  21  23
ENDBRANCH   1  21
BRANCH   6  24
ATOM     24  O   UNL     1      -4.431   5.983  -1.378  0.00  0.00    -0.489 OA
BRANCH  24  25
ATOM     25  C   UNL     1      -5.468   5.073  -1.005  0.00  0.00    +0.226 C 
ATOM     26  C   UNL     1      -6.829   5.752  -1.180  0.00  0.00    +0.048 C 
ENDBRANCH  24  25
ENDBRANCH   6  24
BRANCH   7  27
ATOM     27  C   UNL     1      -2.308   1.426  -1.004  0.00  0.00    +0.146 C 
BRANCH  27  28
ATOM     28  C   UNL     1      -2.712   0.284  -0.107  0.00  0.00    +0.309 C 
ATOM     29  O   UNL     1      -2.354   0.267   1.047  0.00  0.00    -0.251 OA
BRANCH  28  30
ATOM     30  O   UNL     1      -3.470  -0.713  -0.590  0.00  0.00    -0.468 OA
ATOM     31  C   UNL     1      -3.928  -1.712   0.359  0.00  0.00    +0.280 C 
ENDBRANCH  28  30
ENDBRANCH  27  28
ENDBRANCH   7  27
TORSDOF 9
