REMARK  Name = ZINC16759407
REMARK  7 active torsions:
REMARK  status: ('A' for Active; 'I' for Inactive)
REMARK    1  A    between atoms: C_1  and  C_2
REMARK    2  A    between atoms: C_7  and  S_24
REMARK    3  A    between atoms: C_12  and  C_14
REMARK    4  A    between atoms: C_14  and  O_15
REMARK    5  A    between atoms: O_15  and  C_16
REMARK    6  A    between atoms: C_16  and  C_18
REMARK    7  A    between atoms: S_24  and  N_27
REMARK                            x       y       z     vdW  Elec       q    Type
REMARK                         _______ _______ _______ _____ _____    ______ ____
ROOT
ATOM      1  C   UNL     1      -1.326   0.456  -2.045  0.00  0.00    +0.029 C 
ATOM      2  C   UNL     1      -0.803   1.618  -1.199  0.00  0.00    +0.083 C 
ATOM      3  C   UNL     1      -0.013   1.086   0.008  0.00  0.00    +0.059 C 
ATOM      4  C   UNL     1      -0.767   1.596   1.215  0.00  0.00    -0.022 A 
ATOM      5  C   UNL     1      -0.533   1.438   2.566  0.00  0.00    +0.034 A 
ATOM      6  C   UNL     1      -1.384   2.011   3.491  0.00  0.00    +0.105 A 
ATOM      7  C   UNL     1      -2.474   2.746   3.061  0.00  0.00    +0.030 A 
ATOM      8  C   UNL     1      -2.714   2.907   1.713  0.00  0.00    +0.026 A 
ATOM      9  C   UNL     1      -1.859   2.331   0.772  0.00  0.00    +0.040 A 
ATOM     10  N   UNL     1      -1.920   2.372  -0.624  0.00  0.00    -0.265 N 
ATOM     11  C   UNL     1      -2.869   3.010  -1.337  0.00  0.00    +0.258 C 
ATOM     12  O   UNL     1      -2.836   2.987  -2.549  0.00  0.00    -0.271 OA
ENDROOT
BRANCH   6  13
ATOM     13  S   UNL     1      -1.081   1.807   5.215  0.00  0.00    +0.056 S 
ATOM     14  O   UNL     1       0.306   1.536   5.354  0.00  0.00    -0.153 OA
ATOM     15  O   UNL     1      -1.714   2.898   5.870  0.00  0.00    -0.153 OA
BRANCH  13  16
ATOM     16  N   UNL     1      -1.882   0.439   5.694  0.00  0.00    -0.204 NA
ATOM     17  H   UNL     1      -2.393  -0.075   5.050  0.00  0.00    +0.144 HD
ATOM     18  H   UNL     1      -1.839   0.151   6.620  0.00  0.00    +0.144 HD
ENDBRANCH  13  16
ENDBRANCH   6  13
BRANCH  11  19
ATOM     19  C   UNL     1      -3.971   3.754  -0.628  0.00  0.00    +0.328 C 
BRANCH  19  20
ATOM     20  O   UNL     1      -4.846   4.343  -1.593  0.00  0.00    -0.451 OA
BRANCH  20  21
ATOM     21  C   UNL     1      -5.894   5.049  -1.120  0.00  0.00    +0.346 C 
ATOM     22  O   UNL     1      -6.059   5.162   0.080  0.00  0.00    -0.244 OA
BRANCH  21  23
ATOM     23  C   UNL     1      -6.830   5.679  -2.049  0.00  0.00    +0.098 A 
ATOM     24  C   UNL     1      -7.961   6.435  -1.774  0.00  0.00    +0.024 A 
ATOM     25  C   UNL     1      -8.667   6.917  -2.846  0.00  0.00    +0.028 A 
ATOM     26  C   UNL     1      -8.241   6.628  -4.106  0.00  0.00    +0.079 A 
ATOM     27  S   UNL     1      -6.821   5.671  -3.833  0.00  0.00    -0.070 S 
ATOM     28 CL   UNL     1      -8.947   7.103  -5.619  0.00  0.00    -0.076 Cl
ENDBRANCH  21  23
ENDBRANCH  20  21
ENDBRANCH  19  20
ENDBRANCH  11  19
TORSDOF 6
