REMARK  Name = ZINC08922660
REMARK  7 active torsions:
REMARK  status: ('A' for Active; 'I' for Inactive)
REMARK    1  A    between atoms: C_1  and  C_2
REMARK    2  A    between atoms: C_5  and  C_8
REMARK    3  A    between atoms: C_8  and  N_9
REMARK    4  A    between atoms: C_16  and  C_19
REMARK    5  A    between atoms: C_16  and  O_32
REMARK    6  A    between atoms: C_19  and  C_20
REMARK    7  A    between atoms: C_20  and  C_22
REMARK                            x       y       z     vdW  Elec       q    Type
REMARK                         _______ _______ _______ _____ _____    ______ ____
ROOT
ATOM      1  N   UNL     1      -3.772  -3.481  -1.894  0.00  0.00    -0.264 N 
ATOM      2  C   UNL     1      -3.368  -4.633  -1.217  0.00  0.00    +0.043 A 
ATOM      3  C   UNL     1      -3.531  -5.980  -1.533  0.00  0.00    +0.025 A 
ATOM      4  C   UNL     1      -3.034  -6.956  -0.683  0.00  0.00    +0.022 A 
ATOM      5  C   UNL     1      -2.372  -6.603   0.480  0.00  0.00    +0.041 A 
ATOM      6  C   UNL     1      -2.206  -5.265   0.798  0.00  0.00    +0.028 A 
ATOM      7  C   UNL     1      -2.700  -4.293  -0.043  0.00  0.00    +0.016 A 
ATOM      8  C   UNL     1      -2.687  -2.783   0.012  0.00  0.00    +0.176 C 
ATOM      9  C   UNL     1      -3.415  -2.359  -1.246  0.00  0.00    +0.257 C 
ATOM     10  O   UNL     1      -3.635  -1.221  -1.603  0.00  0.00    -0.272 OA
ATOM     11 CL   UNL     1      -1.750  -7.832   1.536  0.00  0.00    -0.084 Cl
ENDROOT
BRANCH   8  12
ATOM     12  O   UNL     1      -3.380  -2.318   1.172  0.00  0.00    -0.374 OA
ATOM     13  H   UNL     1      -3.427  -1.355   1.242  0.00  0.00    +0.211 HD
ENDBRANCH   8  12
BRANCH   1  14
ATOM     14  C   UNL     1      -4.502  -3.494  -3.164  0.00  0.00    +0.148 C 
BRANCH  14  19
ATOM     15  C   UNL     1      -0.738  -3.449  -7.549  0.00  0.00    +0.044 C 
ATOM     16  C   UNL     1      -1.720  -3.461  -6.405  0.00  0.00    -0.050 A 
ATOM     17  C   UNL     1      -2.153  -4.663  -5.878  0.00  0.00    +0.003 A 
ATOM     18  C   UNL     1      -3.053  -4.674  -4.829  0.00  0.00    +0.005 A 
ATOM     19  C   UNL     1      -3.520  -3.483  -4.307  0.00  0.00    -0.030 A 
ATOM     20  C   UNL     1      -3.091  -2.280  -4.838  0.00  0.00    +0.005 A 
ATOM     21  C   UNL     1      -2.187  -2.269  -5.884  0.00  0.00    +0.003 A 
ENDBRANCH  14  19
ENDBRANCH   1  14
BRANCH   8  22
ATOM     22  C   UNL     1      -1.250  -2.259   0.001  0.00  0.00    +0.129 C 
BRANCH  22  23
ATOM     23  C   UNL     1      -1.264  -0.752   0.010  0.00  0.00    +0.167 C 
ATOM     24  O   UNL     1      -2.320  -0.156   0.022  0.00  0.00    -0.292 OA
BRANCH  23  25
ATOM     25  C   UNL     1       0.002  -0.004   0.002  0.00  0.00    +0.018 A 
ATOM     26  C   UNL     1       1.226  -0.701  -0.013  0.00  0.00    +0.012 A 
ATOM     27  C   UNL     1       2.407  -0.033  -0.021  0.00  0.00    +0.009 A 
ATOM     28  C   UNL     1       2.420   1.375  -0.014  0.00  0.00    -0.018 A 
ATOM     29  C   UNL     1       3.631   2.087  -0.022  0.00  0.00    +0.008 A 
ATOM     30  C   UNL     1       3.613   3.448  -0.015  0.00  0.00    +0.001 A 
ATOM     31  C   UNL     1       2.410   4.151   0.000  0.00  0.00    +0.001 A 
ATOM     32  C   UNL     1       1.217   3.496   0.009  0.00  0.00    +0.008 A 
ATOM     33  C   UNL     1       1.195   2.089   0.002  0.00  0.00    -0.017 A 
ATOM     34  C   UNL     1      -0.017   1.384   0.010  0.00  0.00    +0.020 A 
ENDBRANCH  23  25
ENDBRANCH  22  23
ENDBRANCH   8  22
TORSDOF 6
