REMARK  Name = ZINC20573492
REMARK  4 active torsions:
REMARK  status: ('A' for Active; 'I' for Inactive)
REMARK    1  A    between atoms: C_1  and  C_2
REMARK    2  A    between atoms: C_2  and  C_4
REMARK    3  A    between atoms: C_2  and  N_21
REMARK    4  A    between atoms: C_22  and  C_24
REMARK                            x       y       z     vdW  Elec       q    Type
REMARK                         _______ _______ _______ _____ _____    ______ ____
ROOT
ATOM      1  C   UNL     1       0.836  -0.462   1.171  0.00  0.00    +0.236 C 
ATOM      2  O   UNL     1       0.368  -1.229   1.986  0.00  0.00    -0.274 OA
ATOM      3  N   UNL     1       2.100  -0.017   1.312  0.00  0.00    -0.300 N 
ATOM      4  C   UNL     1       2.642   1.000   0.401  0.00  0.00    +0.110 C 
ATOM      5  C   UNL     1       3.196   2.162   1.233  0.00  0.00    +0.047 C 
ATOM      6  C   UNL     1       4.204   1.623   2.248  0.00  0.00    +0.064 C 
ATOM      7  C   UNL     1       3.514   0.636   3.191  0.00  0.00    +0.047 C 
ATOM      8  C   UNL     1       2.962  -0.537   2.383  0.00  0.00    +0.110 C 
ATOM      9  C   UNL     1       4.781   2.765   3.045  0.00  0.00    +0.057 A 
ATOM     10  C   UNL     1       6.099   2.881   3.327  0.00  0.00    +0.039 A 
ATOM     11  N   UNL     1       6.256   4.020   4.050  0.00  0.00    -0.349 N 
ATOM     12  H   UNL     1       7.090   4.372   4.398  0.00  0.00    +0.166 HD
ATOM     13  C   UNL     1       5.027   4.569   4.193  0.00  0.00    +0.171 A 
ATOM     14  N   UNL     1       4.152   3.809   3.587  0.00  0.00    -0.348 N 
ATOM     15  C   UNL     1       7.135   1.880   2.883  0.00  0.00    +0.070 C 
ATOM     16  C   UNL     1       6.401   0.601   2.455  0.00  0.00    +0.088 C 
ATOM     17  N   UNL     1       5.302   0.945   1.542  0.00  0.00    -0.305 NA
ATOM     18  H   UNL     1       4.968   0.127   1.055  0.00  0.00    +0.123 HD
ATOM     19  H   UNL     1       3.198   3.977   3.539  0.00  0.00    +0.166 HD
ENDROOT
BRANCH   1  21
ATOM     20  C   UNL     1      -0.692   1.313   0.354  0.00  0.00    +0.038 C 
ATOM     21  C   UNL     1       0.002  -0.004   0.002  0.00  0.00    +0.156 C 
BRANCH  21  22
ATOM     22  N   UNL     1      -1.007  -1.020  -0.305  0.00  0.00    -0.300 N 
ATOM     23  C   UNL     1      -1.519  -1.107  -1.549  0.00  0.00    +0.245 C 
ATOM     24  O   UNL     1      -1.144  -0.342  -2.416  0.00  0.00    -0.270 OA
ATOM     25  H   UNL     1      -1.307  -1.631   0.386  0.00  0.00    +0.150 HD
BRANCH  23  26
ATOM     26  C   UNL     1      -2.538  -2.133  -1.859  0.00  0.00    +0.037 A 
ATOM     27  C   UNL     1      -2.976  -3.009  -0.865  0.00  0.00    +0.013 A 
ATOM     28  C   UNL     1      -3.927  -3.964  -1.161  0.00  0.00    +0.001 A 
ATOM     29  C   UNL     1      -4.446  -4.053  -2.440  0.00  0.00    +0.000 A 
ATOM     30  C   UNL     1      -4.016  -3.188  -3.431  0.00  0.00    +0.001 A 
ATOM     31  C   UNL     1      -3.071  -2.225  -3.146  0.00  0.00    +0.013 A 
ENDBRANCH  23  26
ENDBRANCH  21  22
ENDBRANCH   1  21
TORSDOF 3
