REMARK  Name = ZINC11018628
REMARK  5 active torsions:
REMARK  status: ('A' for Active; 'I' for Inactive)
REMARK    1  A    between atoms: C_4  and  N_25
REMARK    2  A    between atoms: C_5  and  N_7
REMARK    3  A    between atoms: C_13  and  C_15
REMARK    4  A    between atoms: C_15  and  S_16
REMARK    5  A    between atoms: S_16  and  C_17
REMARK                            x       y       z     vdW  Elec       q    Type
REMARK                         _______ _______ _______ _____ _____    ______ ____
ROOT
ATOM      1  N   UNL     1       1.238  -2.077  -0.021  0.00  0.00    -0.325 N 
ATOM      2  C   UNL     1       1.256  -2.832   1.239  0.00  0.00    +0.124 C 
ATOM      3  C   UNL     1       0.078  -3.814   1.240  0.00  0.00    +0.126 C 
ATOM      4  N   UNL     1       0.083  -4.555  -0.030  0.00  0.00    -0.298 N 
ATOM      5  C   UNL     1       0.065  -3.800  -1.290  0.00  0.00    +0.126 C 
ATOM      6  C   UNL     1       1.238  -2.818  -1.291  0.00  0.00    +0.124 C 
ATOM      7  C   UNL     1       0.105  -5.902  -0.037  0.00  0.00    +0.226 C 
ATOM      8  O   UNL     1       0.120  -6.515   1.009  0.00  0.00    -0.275 OA
ENDROOT
BRANCH   1  13
ATOM      9  C   UNL     1      -0.017   1.377   0.010  0.00  0.00    +0.002 A 
ATOM     10  C   UNL     1       1.171   2.086   0.002  0.00  0.00    +0.002 A 
ATOM     11  C   UNL     1       2.380   1.416  -0.013  0.00  0.00    +0.034 A 
ATOM     12  C   UNL     1       2.406   0.035  -0.021  0.00  0.00    +0.147 A 
ATOM     13  C   UNL     1       1.215  -0.681  -0.013  0.00  0.00    +0.060 A 
ATOM     14  C   UNL     1       0.002  -0.004   0.002  0.00  0.00    +0.025 A 
BRANCH  12  15
ATOM     15  N   UNL     1       3.701  -0.682  -0.037  0.00  0.00    +0.058 N 
ATOM     16  O   UNL     1       4.737  -0.058  -0.044  0.00  0.00    -0.126 OA
ATOM     17  O   UNL     1       3.723  -1.891  -0.044  0.00  0.00    -0.126 OA
ENDBRANCH  12  15
ENDBRANCH   1  13
BRANCH   7  18
ATOM     18  C   UNL     1       0.110  -6.648  -1.347  0.00  0.00    +0.170 C 
BRANCH  18  19
ATOM     19  S   UNL     1       0.141  -8.433  -1.026  0.00  0.00    -0.113 S 
BRANCH  19  20
ATOM     20  C   UNL     1       0.144  -9.155  -2.633  0.00  0.00    +0.046 A 
ATOM     21  C   UNL     1       0.131  -8.345  -3.760  0.00  0.00    +0.056 A 
ATOM     22  C   UNL     1       0.135  -8.915  -5.021  0.00  0.00    +0.125 A 
ATOM     23  C   UNL     1       0.151 -10.293  -5.159  0.00  0.00    +0.041 A 
ATOM     24  C   UNL     1       0.164 -11.103  -4.038  0.00  0.00    +0.042 A 
ATOM     25  C   UNL     1       0.166 -10.539  -2.776  0.00  0.00    +0.137 A 
ATOM     26  F   UNL     1       0.184 -11.332  -1.681  0.00  0.00    -0.204 F 
ATOM     27  F   UNL     1       0.121  -8.127  -6.118  0.00  0.00    -0.205 F 
ENDBRANCH  19  20
ENDBRANCH  18  19
ENDBRANCH   7  18
TORSDOF 5
