REMARK  Name = ZINC20573650
REMARK  3 active torsions:
REMARK  status: ('A' for Active; 'I' for Inactive)
REMARK    1  A    between atoms: C_3  and  C_8
REMARK    2  A    between atoms: N_10  and  C_11
REMARK    3  A    between atoms: C_11  and  C_12
REMARK                            x       y       z     vdW  Elec       q    Type
REMARK                         _______ _______ _______ _____ _____    ______ ____
ROOT
ATOM      1  C   UNL     1       7.249   1.289  -0.061  0.00  0.00    +0.233 C 
ATOM      2  O   UNL     1       7.042   0.094  -0.065  0.00  0.00    -0.274 OA
ATOM      3  N   UNL     1       8.514   1.754  -0.071  0.00  0.00    -0.300 N 
ATOM      4  C   UNL     1       8.780   3.199  -0.060  0.00  0.00    +0.110 C 
ATOM      5  C   UNL     1       9.700   3.539  -1.237  0.00  0.00    +0.047 C 
ATOM      6  C   UNL     1      10.954   2.667  -1.168  0.00  0.00    +0.064 C 
ATOM      7  C   UNL     1      10.565   1.192  -1.268  0.00  0.00    +0.047 C 
ATOM      8  C   UNL     1       9.653   0.826  -0.087  0.00  0.00    +0.110 C 
ATOM      9  C   UNL     1      11.886   3.026  -2.294  0.00  0.00    +0.057 A 
ATOM     10  C   UNL     1      13.003   3.772  -2.134  0.00  0.00    +0.039 A 
ATOM     11  N   UNL     1      13.591   3.896  -3.324  0.00  0.00    -0.349 N 
ATOM     12  C   UNL     1      12.883   3.257  -4.220  0.00  0.00    +0.171 A 
ATOM     13  N   UNL     1      11.809   2.702  -3.611  0.00  0.00    -0.348 N 
ATOM     14  H   UNL     1      11.115   2.172  -4.035  0.00  0.00    +0.166 HD
ATOM     15  C   UNL     1      13.435   4.331  -0.800  0.00  0.00    +0.070 C 
ATOM     16  C   UNL     1      12.235   4.253   0.155  0.00  0.00    +0.088 C 
ATOM     17  N   UNL     1      11.650   2.906   0.107  0.00  0.00    -0.305 NA
ATOM     18  H   UNL     1      11.033   2.752   0.890  0.00  0.00    +0.123 HD
ATOM     19  H   UNL     1      14.412   4.382  -3.498  0.00  0.00    +0.166 HD
ENDROOT
BRANCH   1  20
ATOM     20  C   UNL     1       6.091   2.254  -0.045  0.00  0.00    +0.200 C 
BRANCH  20  23
ATOM     21  C   UNL     1       3.656   2.164  -0.022  0.00  0.00    +0.245 C 
ATOM     22  O   UNL     1       3.641   3.380  -0.015  0.00  0.00    -0.270 OA
ATOM     23  N   UNL     1       4.832   1.505  -0.036  0.00  0.00    -0.303 N 
ATOM     24  H   UNL     1       4.844   0.535  -0.042  0.00  0.00    +0.150 HD
BRANCH  21  27
ATOM     25  C   UNL     1      -0.017   1.379   0.010  0.00  0.00    +0.004 A 
ATOM     26  C   UNL     1       1.167   2.088   0.002  0.00  0.00    +0.013 A 
ATOM     27  C   UNL     1       2.385   1.409  -0.013  0.00  0.00    +0.039 A 
ATOM     28  C   UNL     1       2.400   0.013  -0.021  0.00  0.00    +0.051 A 
ATOM     29  C   UNL     1       1.208  -0.686  -0.013  0.00  0.00    +0.124 A 
ATOM     30  C   UNL     1       0.002  -0.004   0.002  0.00  0.00    +0.038 A 
ATOM     31  F   UNL     1       1.219  -2.037  -0.021  0.00  0.00    -0.205 F 
ENDBRANCH  21  27
ENDBRANCH  20  23
ENDBRANCH   1  20
TORSDOF 3
