REMARK  Name = ZINC49975558
REMARK  6 active torsions:
REMARK  status: ('A' for Active; 'I' for Inactive)
REMARK    1  A    between atoms: C_1  and  S_2
REMARK    2  A    between atoms: S_2  and  N_5
REMARK    3  A    between atoms: N_5  and  C_6
REMARK    4  A    between atoms: C_6  and  C_7
REMARK    5  A    between atoms: N_9  and  C_10
REMARK    6  A    between atoms: C_10  and  C_11
REMARK                            x       y       z     vdW  Elec       q    Type
REMARK                         _______ _______ _______ _____ _____    ______ ____
ROOT
ATOM      1  C   UNL     1       6.113  -1.075  -4.356  0.00  0.00    +0.019 C 
ATOM      2  C   UNL     1       6.220   0.399  -4.741  0.00  0.00    +0.018 C 
ATOM      3  C   UNL     1       6.918   0.573  -6.108  0.00  0.00    +0.050 C 
ATOM      4  C   UNL     1       6.115  -0.275  -7.082  0.00  0.00    -0.036 A 
ATOM      5  C   UNL     1       5.520   0.194  -8.217  0.00  0.00    +0.004 A 
ATOM      6  C   UNL     1       4.815  -0.694  -9.019  0.00  0.00    +0.000 A 
ATOM      7  C   UNL     1       4.719  -2.028  -8.671  0.00  0.00    +0.000 A 
ATOM      8  C   UNL     1       5.327  -2.499  -7.514  0.00  0.00    +0.004 A 
ATOM      9  C   UNL     1       6.018  -1.620  -6.730  0.00  0.00    -0.036 A 
ATOM     10  C   UNL     1       6.733  -1.984  -5.439  0.00  0.00    +0.054 C 
ATOM     11  C   UNL     1       8.157  -1.483  -5.619  0.00  0.00    -0.036 A 
ATOM     12  C   UNL     1       8.255  -0.139  -5.971  0.00  0.00    -0.036 A 
ATOM     13  C   UNL     1       9.473   0.446  -6.165  0.00  0.00    +0.004 A 
ATOM     14  C   UNL     1      10.618  -0.325  -6.005  0.00  0.00    +0.000 A 
ATOM     15  C   UNL     1      10.522  -1.659  -5.656  0.00  0.00    +0.000 A 
ATOM     16  C   UNL     1       9.278  -2.246  -5.461  0.00  0.00    +0.004 A 
ENDROOT
BRANCH   1  17
ATOM     17  C   UNL     1       4.638  -1.440  -4.179  0.00  0.00    +0.108 C 
BRANCH  17  20
ATOM     18  C   UNL     1       2.784  -0.842  -2.716  0.00  0.00    +0.229 C 
ATOM     19  O   UNL     1       2.083  -1.614  -3.335  0.00  0.00    -0.274 OA
ATOM     20  N   UNL     1       4.077  -0.681  -3.059  0.00  0.00    -0.314 N 
ATOM     21  H   UNL     1       4.637  -0.063  -2.563  0.00  0.00    +0.149 HD
BRANCH  18  22
ATOM     22  C   UNL     1       2.207  -0.061  -1.563  0.00  0.00    +0.201 C 
BRANCH  22  23
ATOM     23  N   UNL     1       0.795  -0.411  -1.394  0.00  0.00    -0.186 NA
ATOM     24  H   UNL     1       0.324  -0.881  -2.099  0.00  0.00    +0.148 HD
BRANCH  23  26
ATOM     25  C   UNL     1      -0.022   1.810   0.012  0.00  0.00    +0.214 C 
ATOM     26  S   UNL     1       0.002  -0.004   0.002  0.00  0.00    +0.027 S 
ATOM     27  O   UNL     1       0.835  -0.488   1.046  0.00  0.00    -0.158 OA
ATOM     28  O   UNL     1      -1.315  -0.510  -0.168  0.00  0.00    -0.158 OA
ENDBRANCH  23  26
ENDBRANCH  22  23
ENDBRANCH  18  22
ENDBRANCH  17  20
ENDBRANCH   1  17
TORSDOF 5
