REMARK  Name = ZINC38705934
REMARK  16 active torsions:
REMARK  status: ('A' for Active; 'I' for Inactive)
REMARK    1  A    between atoms: C_1  and  C_2
REMARK    2  A    between atoms: C_2  and  C_3
REMARK    3  A    between atoms: C_3  and  C_4
REMARK    4  A    between atoms: C_4  and  C_5
REMARK    5  A    between atoms: C_5  and  O_6
REMARK    6  A    between atoms: O_6  and  C_7
REMARK    7  A    between atoms: C_10  and  C_16
REMARK    8  A    between atoms: C_12  and  O_13
REMARK    9  A    between atoms: O_13  and  C_14
REMARK   10  A    between atoms: C_14  and  C_15
REMARK   11  A    between atoms: C_19  and  C_33
REMARK   12  A    between atoms: N_26  and  C_27
REMARK   13  A    between atoms: C_27  and  C_28
REMARK   14  A    between atoms: C_34  and  C_41
REMARK   15  A    between atoms: C_36  and  C_40
REMARK   16  A    between atoms: C_38  and  O_39
REMARK                            x       y       z     vdW  Elec       q    Type
REMARK                         _______ _______ _______ _____ _____    ______ ____
ROOT
ATOM      1  C   UNL     1      -7.603  -6.330   0.138  0.00  0.00    +0.142 C 
ATOM      2  C   UNL     1      -8.225  -6.604   1.480  0.00  0.00    +0.035 A 
ATOM      3  C   UNL     1      -8.111  -7.228   2.727  0.00  0.00    +0.102 A 
ATOM      4  N   UNL     1      -9.206  -6.951   3.407  0.00  0.00    -0.173 NA
ATOM      5  N   UNL     1      -9.999  -6.213   2.714  0.00  0.00    -0.272 N 
ATOM      6  H   UNL     1     -10.861  -5.887   3.014  0.00  0.00    +0.189 HD
ATOM      7  C   UNL     1      -9.445  -5.957   1.492  0.00  0.00    +0.126 A 
ATOM      8  C   UNL     1      -9.626  -5.278   0.204  0.00  0.00    +0.266 C 
ATOM      9  O   UNL     1     -10.601  -4.618  -0.102  0.00  0.00    -0.268 OA
ATOM     10  N   UNL     1      -8.560  -5.489  -0.592  0.00  0.00    -0.278 N 
ENDROOT
BRANCH   3  11
ATOM     11  C   UNL     1      -6.970  -8.052   3.197  0.00  0.00    +0.047 A 
ATOM     12  C   UNL     1      -6.415  -7.826   4.454  0.00  0.00    -0.037 A 
ATOM     13  C   UNL     1      -5.353  -8.594   4.887  0.00  0.00    +0.007 A 
ATOM     14  C   UNL     1      -4.837  -9.589   4.075  0.00  0.00    -0.047 A 
ATOM     15  C   UNL     1      -5.380  -9.821   2.826  0.00  0.00    +0.049 A 
ATOM     16  C   UNL     1      -6.450  -9.061   2.382  0.00  0.00    +0.127 A 
ATOM     17  C   UNL     1      -3.678 -10.423   4.557  0.00  0.00    +0.044 C 
ATOM     18  C   UNL     1      -6.974  -6.743   5.341  0.00  0.00    +0.044 C 
BRANCH  16  19
ATOM     19  O   UNL     1      -6.989  -9.293   1.156  0.00  0.00    -0.506 OA
ATOM     20  H   UNL     1      -6.540  -8.830   0.436  0.00  0.00    +0.292 HD
ENDBRANCH  16  19
ENDBRANCH   3  11
BRANCH   1  24
ATOM     21  C   UNL     1      -3.900  -4.248   0.632  0.00  0.00    +0.162 A 
ATOM     22  C   UNL     1      -5.100  -3.604   0.887  0.00  0.00    +0.050 A 
ATOM     23  C   UNL     1      -6.295  -4.279   0.726  0.00  0.00    +0.009 A 
ATOM     24  C   UNL     1      -6.297  -5.598   0.311  0.00  0.00    -0.019 A 
ATOM     25  C   UNL     1      -5.103  -6.247   0.056  0.00  0.00    +0.055 A 
ATOM     26  C   UNL     1      -3.902  -5.574   0.209  0.00  0.00    +0.162 A 
BRANCH  21  27
ATOM     27  O   UNL     1      -2.723  -3.585   0.789  0.00  0.00    -0.488 OA
BRANCH  27  28
ATOM     28  C   UNL     1      -2.798  -2.226   1.226  0.00  0.00    +0.229 C 
BRANCH  28  29
ATOM     29  C   UNL     1      -1.385  -1.651   1.345  0.00  0.00    +0.041 C 
BRANCH  29  30
ATOM     30  C   UNL     1      -1.465  -0.196   1.812  0.00  0.00    +0.003 C 
BRANCH  30  32
ATOM     31  C   UNL     1      -0.132   1.834   2.398  0.00  0.00    +0.004 C 
ATOM     32  C   UNL     1      -0.052   0.380   1.931  0.00  0.00    -0.003 C 
ENDBRANCH  30  32
ENDBRANCH  29  30
ENDBRANCH  28  29
ENDBRANCH  27  28
ENDBRANCH  21  27
BRANCH  26  33
ATOM     33  O   UNL     1      -2.727  -6.209  -0.048  0.00  0.00    -0.489 OA
BRANCH  33  34
ATOM     34  C   UNL     1      -2.806  -7.570  -0.478  0.00  0.00    +0.226 C 
ATOM     35  C   UNL     1      -1.395  -8.112  -0.716  0.00  0.00    +0.048 C 
ENDBRANCH  33  34
ENDBRANCH  26  33
ENDBRANCH   1  24
BRANCH  10  36
ATOM     36  C   UNL     1      -8.385  -4.969  -1.950  0.00  0.00    +0.183 C 
BRANCH  36  37
ATOM     37  C   UNL     1      -8.947  -5.955  -2.942  0.00  0.00    +0.122 A 
ATOM     38  C   UNL     1     -10.211  -5.976  -3.401  0.00  0.00    +0.046 A 
ATOM     39  C   UNL     1     -10.301  -7.059  -4.305  0.00  0.00    +0.041 A 
ATOM     40  C   UNL     1      -9.087  -7.636  -4.345  0.00  0.00    +0.195 A 
ATOM     41  O   UNL     1      -8.269  -6.960  -3.521  0.00  0.00    -0.466 OA
ENDBRANCH  36  37
ENDBRANCH  10  36
TORSDOF 12
