REMARK  Name = ZINC06938693
REMARK  4 active torsions:
REMARK  status: ('A' for Active; 'I' for Inactive)
REMARK    1  A    between atoms: C_1  and  C_2
REMARK    2  A    between atoms: C_9  and  N_14
REMARK    3  A    between atoms: C_10  and  C_11
REMARK    4  A    between atoms: C_15  and  C_17
REMARK                            x       y       z     vdW  Elec       q    Type
REMARK                         _______ _______ _______ _____ _____    ______ ____
ROOT
ATOM      1  C   UNL     1      -0.866   9.933  -0.037  0.00  0.00    +0.008 C 
ATOM      2  C   UNL     1      -1.317   8.500  -0.326  0.00  0.00    -0.009 C 
ATOM      3  C   UNL     1      -2.553   8.168   0.516  0.00  0.00    +0.008 C 
ATOM      4  C   UNL     1      -3.154   6.839   0.055  0.00  0.00    +0.037 C 
ATOM      5  C   UNL     1      -2.057   5.782   0.044  0.00  0.00    -0.023 A 
ATOM      6  C   UNL     1      -0.752   6.134   0.039  0.00  0.00    -0.004 A 
ATOM      7  S   UNL     1       0.130   4.599   0.026  0.00  0.00    -0.077 S 
ATOM      8  C   UNL     1      -1.213   3.504   0.027  0.00  0.00    +0.085 A 
ATOM      9  C   UNL     1      -2.312   4.352   0.031  0.00  0.00    +0.068 A 
ATOM     10  C   UNL     1      -0.191   7.522   0.042  0.00  0.00    +0.046 C 
ENDROOT
BRANCH   9  11
ATOM     11  C   UNL     1      -3.679   3.824   0.027  0.00  0.00    +0.244 C 
ATOM     12  O   UNL     1      -4.248   3.598   1.079  0.00  0.00    -0.270 OA
ATOM     13  N   UNL     1      -4.307   3.587  -1.142  0.00  0.00    -0.325 N 
ATOM     14  H   UNL     1      -3.854   3.767  -1.981  0.00  0.00    +0.145 HD
ATOM     15  H   UNL     1      -5.212   3.238  -1.145  0.00  0.00    +0.145 HD
ENDBRANCH   9  11
BRANCH   8  16
ATOM     16  N   UNL     1      -1.194   2.119   0.019  0.00  0.00    -0.275 N 
ATOM     17  C   UNL     1      -0.018   1.461   0.010  0.00  0.00    +0.255 C 
ATOM     18  O   UNL     1       1.028   2.084   0.003  0.00  0.00    -0.269 OA
ATOM     19  H   UNL     1      -2.027   1.623   0.021  0.00  0.00    +0.156 HD
BRANCH  17  20
ATOM     20  C   UNL     1       0.002  -0.004   0.002  0.00  0.00    +0.075 A 
ATOM     21  C   UNL     1       1.087  -0.863  -0.019  0.00  0.00    +0.024 A 
ATOM     22  C   UNL     1       0.840  -2.231  -0.011  0.00  0.00    -0.036 A 
ATOM     23  C   UNL     1      -0.458  -2.609  -0.015  0.00  0.00    -0.006 A 
ATOM     24  S   UNL     1      -1.368  -1.150   0.008  0.00  0.00    -0.088 S 
ATOM     25  C   UNL     1      -0.980  -4.028  -0.066  0.00  0.00    +0.043 C 
ATOM     26  C   UNL     1      -0.601  -4.700   1.265  0.00  0.00    +0.005 C 
ATOM     27  C   UNL     1       0.847  -5.128   1.246  0.00  0.00    +0.001 C 
ATOM     28  C   UNL     1       1.874  -4.028   1.329  0.00  0.00    +0.005 C 
ATOM     29  C   UNL     1       1.985  -3.249   0.016  0.00  0.00    +0.036 C 
ENDBRANCH  17  20
ENDBRANCH   8  16
TORSDOF 3
