REMARK  Name = ZINC39006631
REMARK  10 active torsions:
REMARK  status: ('A' for Active; 'I' for Inactive)
REMARK    1  A    between atoms: C_1  and  C_2
REMARK    2  A    between atoms: C_5  and  S_8
REMARK    3  A    between atoms: S_8  and  N_11
REMARK    4  A    between atoms: N_11  and  C_12
REMARK    5  A    between atoms: N_11  and  C_26
REMARK    6  A    between atoms: C_12  and  C_13
REMARK    7  A    between atoms: C_19  and  C_25
REMARK    8  A    between atoms: C_26  and  C_27
REMARK    9  A    between atoms: C_27  and  C_28
REMARK   10  A    between atoms: C_27  and  C_29
REMARK                            x       y       z     vdW  Elec       q    Type
REMARK                         _______ _______ _______ _____ _____    ______ ____
ROOT
ATOM      1  N   UNL     1       1.992  -5.473  -0.287  0.00  0.00    -0.175 NA
ENDROOT
BRANCH   1   2
ATOM      2  S   UNL     1       0.419  -5.340   0.214  0.00  0.00    +0.061 S 
ATOM      3  O   UNL     1       0.260  -6.244   1.299  0.00  0.00    -0.153 OA
ATOM      4  O   UNL     1      -0.386  -5.404  -0.955  0.00  0.00    -0.153 OA
BRANCH   2   9
ATOM      5  C   UNL     1      -0.273   0.209   2.480  0.00  0.00    +0.044 C 
ATOM      6  C   UNL     1      -0.100  -1.177   1.914  0.00  0.00    -0.050 A 
ATOM      7  C   UNL     1      -0.331  -1.409   0.571  0.00  0.00    +0.005 A 
ATOM      8  C   UNL     1      -0.172  -2.680   0.052  0.00  0.00    +0.029 A 
ATOM      9  C   UNL     1       0.218  -3.720   0.875  0.00  0.00    +0.105 A 
ATOM     10  C   UNL     1       0.449  -3.488   2.219  0.00  0.00    +0.029 A 
ATOM     11  C   UNL     1       0.294  -2.216   2.737  0.00  0.00    +0.005 A 
ENDBRANCH   2   9
ENDBRANCH   1   2
BRANCH   1  12
ATOM     12  C   UNL     1       3.028  -5.894   0.659  0.00  0.00    +0.126 C 
BRANCH  12  13
ATOM     13  C   UNL     1       3.599  -7.245   0.223  0.00  0.00    +0.114 C 
ATOM     14  C   UNL     1       4.813  -7.537   1.083  0.00  0.00    -0.003 C 
ATOM     15  C   UNL     1       4.799  -8.688   1.813  0.00  0.00    -0.007 A 
ATOM     16  C   UNL     1       5.930  -9.047   2.669  0.00  0.00    +0.010 A 
ATOM     17  C   UNL     1       5.873 -10.204   3.379  0.00  0.00    +0.004 A 
ATOM     18  C   UNL     1       4.764 -11.047   3.305  0.00  0.00    -0.049 A 
ATOM     19  C   UNL     1       3.683 -10.770   2.530  0.00  0.00    +0.027 A 
ATOM     20  C   UNL     1       3.641  -9.597   1.755  0.00  0.00    +0.041 A 
ATOM     21  N   UNL     1       2.575  -9.336   0.999  0.00  0.00    -0.284 N 
ATOM     22  C   UNL     1       2.472  -8.254   0.247  0.00  0.00    +0.225 C 
ATOM     23  O   UNL     1       1.474  -8.070  -0.423  0.00  0.00    -0.275 OA
ATOM     24  C   UNL     1       4.766 -12.316   4.118  0.00  0.00    +0.044 C 
ATOM     25  H   UNL     1       1.842  -9.970   1.000  0.00  0.00    +0.155 HD
ENDBRANCH  12  13
ENDBRANCH   1  12
BRANCH   1  26
ATOM     26  C   UNL     1       2.347  -5.170  -1.675  0.00  0.00    +0.112 C 
BRANCH  26  27
ATOM     27  C   UNL     1       2.664  -3.679  -1.806  0.00  0.00    -0.001 C 
ATOM     28  C   UNL     1       3.946  -3.360  -1.035  0.00  0.00    +0.008 C 
ATOM     29  C   UNL     1       2.856  -3.326  -3.283  0.00  0.00    +0.008 C 
ENDBRANCH  26  27
ENDBRANCH   1  26
TORSDOF 6
