REMARK  Name = ZINC08708381
REMARK  6 active torsions:
REMARK  status: ('A' for Active; 'I' for Inactive)
REMARK    1  A    between atoms: N_7  and  C_20
REMARK    2  A    between atoms: C_9  and  C_12
REMARK    3  A    between atoms: C_20  and  C_21
REMARK    4  A    between atoms: C_21  and  C_22
REMARK    5  A    between atoms: N_24  and  C_25
REMARK    6  A    between atoms: C_26  and  C_34
REMARK                            x       y       z     vdW  Elec       q    Type
REMARK                         _______ _______ _______ _____ _____    ______ ____
ROOT
ATOM      1  C   UNL     1       3.276   1.482   0.653  0.00  0.00    +0.002 A 
ATOM      2  C   UNL     1       4.125   1.770   1.706  0.00  0.00    +0.004 A 
ATOM      3  C   UNL     1       3.633   1.828   2.995  0.00  0.00    +0.047 A 
ATOM      4  C   UNL     1       2.286   1.596   3.240  0.00  0.00    +0.143 A 
ATOM      5  C   UNL     1       1.432   1.302   2.184  0.00  0.00    +0.072 A 
ATOM      6  C   UNL     1       1.936   1.248   0.888  0.00  0.00    +0.027 A 
ATOM      7  N   UNL     1       0.070   1.055   2.383  0.00  0.00    -0.323 N 
ATOM      8  C   UNL     1      -0.407   1.587   3.665  0.00  0.00    +0.159 C 
ATOM      9  C   UNL     1       0.538   1.108   4.775  0.00  0.00    +0.276 C 
ATOM     10  O   UNL     1       1.832   1.665   4.521  0.00  0.00    -0.476 OA
ENDROOT
BRANCH   9  11
ATOM     11  C   UNL     1       0.033   1.580   6.114  0.00  0.00    +0.258 C 
ATOM     12  O   UNL     1       0.684   2.372   6.763  0.00  0.00    -0.271 OA
ATOM     13  N   UNL     1      -1.142   1.123   6.591  0.00  0.00    -0.298 N 
ATOM     14  C   UNL     1      -1.944   0.168   5.814  0.00  0.00    +0.108 C 
ATOM     15  C   UNL     1      -2.249  -1.049   6.700  0.00  0.00    +0.019 C 
ATOM     16  C   UNL     1      -2.914  -0.576   7.995  0.00  0.00    +0.003 C 
ATOM     17  C   UNL     1      -1.958   0.345   8.755  0.00  0.00    +0.019 C 
ATOM     18  C   UNL     1      -1.647   1.574   7.894  0.00  0.00    +0.108 C 
ENDBRANCH   9  11
BRANCH   7  19
ATOM     19  C   UNL     1      -0.729   1.579   1.267  0.00  0.00    +0.114 C 
BRANCH  19  20
ATOM     20  C   UNL     1      -0.504   3.087   1.143  0.00  0.00    +0.115 C 
BRANCH  20  21
ATOM     21  C   UNL     1      -1.222   3.604  -0.078  0.00  0.00    +0.219 C 
ATOM     22  O   UNL     1      -1.852   2.840  -0.779  0.00  0.00    -0.275 OA
ATOM     23  N   UNL     1      -1.165   4.914  -0.390  0.00  0.00    -0.279 N 
ATOM     24  H   UNL     1      -0.661   5.524   0.171  0.00  0.00    +0.155 HD
BRANCH  23  25
ATOM     25  C   UNL     1      -1.826   5.389  -1.513  0.00  0.00    +0.090 A 
ATOM     26  C   UNL     1      -1.884   6.689  -1.994  0.00  0.00    +0.084 A 
ATOM     27  C   UNL     1      -2.652   6.925  -3.204  0.00  0.00    -0.018 A 
ATOM     28  C   UNL     1      -3.236   5.829  -3.737  0.00  0.00    -0.004 A 
ATOM     29  S   UNL     1      -2.773   4.501  -2.661  0.00  0.00    -0.077 S 
ATOM     30  C   UNL     1      -4.082   5.766  -4.971  0.00  0.00    +0.043 C 
ATOM     31  C   UNL     1      -4.503   7.196  -5.342  0.00  0.00    +0.005 C 
ATOM     32  C   UNL     1      -3.267   8.100  -5.302  0.00  0.00    +0.005 C 
ATOM     33  C   UNL     1      -2.810   8.293  -3.854  0.00  0.00    +0.037 C 
BRANCH  26  34
ATOM     34  C   UNL     1      -1.212   7.759  -1.320  0.00  0.00    +0.102 C 
ATOM     35  N   UNL     1      -0.679   8.609  -0.786  0.00  0.00    -0.191 NA
ENDBRANCH  26  34
ENDBRANCH  23  25
ENDBRANCH  20  21
ENDBRANCH  19  20
ENDBRANCH   7  19
TORSDOF 6
