REMARK  Name = ZINC24578304
REMARK  12 active torsions:
REMARK  status: ('A' for Active; 'I' for Inactive)
REMARK    1  A    between atoms: C_1  and  C_2
REMARK    2  A    between atoms: C_2  and  C_3
REMARK    3  A    between atoms: C_2  and  C_4
REMARK    4  A    between atoms: C_4  and  C_5
REMARK    5  A    between atoms: C_5  and  C_7
REMARK    6  A    between atoms: C_5  and  N_22
REMARK    7  A    between atoms: N_9  and  C_10
REMARK    8  A    between atoms: C_10  and  C_11
REMARK    9  A    between atoms: N_22  and  S_23
REMARK   10  A    between atoms: S_23  and  C_26
REMARK   11  A    between atoms: C_29  and  O_32
REMARK   12  A    between atoms: O_32  and  C_33
REMARK                            x       y       z     vdW  Elec       q    Type
REMARK                         _______ _______ _______ _____ _____    ______ ____
ROOT
ATOM      1  C   UNL     1       5.229  -1.758   3.675  0.00  0.00    +0.162 C 
ENDROOT
BRANCH   1   2
ATOM      2  C   UNL     1       6.686  -2.081   3.885  0.00  0.00    +0.232 C 
ATOM      3  O   UNL     1       7.009  -3.164   4.325  0.00  0.00    -0.274 OA
ATOM      4  N   UNL     1       7.629  -1.167   3.585  0.00  0.00    -0.310 N 
ATOM      5  H   UNL     1       7.336  -0.185   3.186  0.00  0.00    +0.149 HD
BRANCH   4   6
ATOM      6  C   UNL     1       9.045  -1.482   3.789  0.00  0.00    +0.152 C 
BRANCH   6   7
ATOM      7  C   UNL     1       9.899  -0.283   3.372  0.00  0.00    +0.228 C 
ATOM      8  C   UNL     1      11.386  -0.618   3.556  0.00  0.00    +0.275 C 
ATOM      9  O   UNL     1      12.155   0.518   3.145  0.00  0.00    -0.485 OA
ATOM     10  C   UNL     1      11.805   1.100   1.966  0.00  0.00    +0.162 A 
ATOM     11  C   UNL     1      12.699   1.952   1.335  0.00  0.00    +0.049 A 
ATOM     12  C   UNL     1      12.356   2.554   0.139  0.00  0.00    +0.004 A 
ATOM     13  C   UNL     1      11.121   2.307  -0.432  0.00  0.00    +0.004 A 
ATOM     14  C   UNL     1      10.226   1.458   0.190  0.00  0.00    +0.049 A 
ATOM     15  C   UNL     1      10.565   0.850   1.390  0.00  0.00    +0.163 A 
ATOM     16  O   UNL     1       9.674   0.014   1.990  0.00  0.00    -0.480 OA
ENDBRANCH   6   7
ENDBRANCH   4   6
ENDBRANCH   1   2
BRANCH   1  17
ATOM     17  N   UNL     1       4.411  -2.906   4.074  0.00  0.00    -0.178 NA
ATOM     18  H   UNL     1       4.069  -3.627   3.317  0.00  0.00    +0.149 HD
BRANCH  17  19
ATOM     19  S   UNL     1       3.795  -2.990   5.609  0.00  0.00    +0.059 S 
ATOM     20  O   UNL     1       4.873  -2.720   6.495  0.00  0.00    -0.153 OA
ATOM     21  O   UNL     1       3.036  -4.190   5.676  0.00  0.00    -0.153 OA
BRANCH  19  22
ATOM     22  C   UNL     1       2.652  -1.661   5.786  0.00  0.00    +0.105 A 
ATOM     23  C   UNL     1       1.337  -1.824   5.392  0.00  0.00    +0.032 A 
ATOM     24  C   UNL     1       0.439  -0.783   5.530  0.00  0.00    +0.047 A 
ATOM     25  C   UNL     1       0.858   0.427   6.063  0.00  0.00    +0.120 A 
ATOM     26  C   UNL     1       2.180   0.590   6.452  0.00  0.00    +0.047 A 
ATOM     27  C   UNL     1       3.073  -0.456   6.318  0.00  0.00    +0.032 A 
BRANCH  25  28
ATOM     28  O   UNL     1      -0.023   1.452   6.199  0.00  0.00    -0.495 OA
ATOM     29  C   UNL     1       0.479   2.669   6.756  0.00  0.00    +0.277 C 
ENDBRANCH  25  28
ENDBRANCH  19  22
ENDBRANCH  17  19
ENDBRANCH   1  17
BRANCH   1  30
ATOM     30  C   UNL     1       4.984  -1.445   2.198  0.00  0.00    +0.032 C 
BRANCH  30  32
ATOM     31  C   UNL     1       3.347  -0.491   0.568  0.00  0.00    +0.007 C 
ATOM     32  C   UNL     1       3.544  -0.963   2.010  0.00  0.00    -0.015 C 
ATOM     33  C   UNL     1       2.579  -2.113   2.306  0.00  0.00    +0.007 C 
ENDBRANCH  30  32
ENDBRANCH   1  30
TORSDOF 9
