REMARK  Name = ZINC16777518
REMARK  6 active torsions:
REMARK  status: ('A' for Active; 'I' for Inactive)
REMARK    1  A    between atoms: C_1  and  C_2
REMARK    2  A    between atoms: C_2  and  C_3
REMARK    3  A    between atoms: C_2  and  C_4
REMARK    4  A    between atoms: C_7  and  C_10
REMARK    5  A    between atoms: C_10  and  C_11
REMARK    6  A    between atoms: N_18  and  N_19
REMARK                            x       y       z     vdW  Elec       q    Type
REMARK                         _______ _______ _______ _____ _____    ______ ____
ROOT
ATOM      1  C   UNL     1      -1.717   3.124   5.875  0.00  0.00    +0.132 A 
ATOM      2  C   UNL     1      -2.135   3.579   7.145  0.00  0.00    +0.296 A 
ATOM      3  O   UNL     1      -3.307   3.838   7.363  0.00  0.00    -0.264 OA
ATOM      4  N   UNL     1      -1.201   3.714   8.114  0.00  0.00    -0.173 NA
ATOM      5  C   UNL     1       0.094   3.417   7.815  0.00  0.00    +0.227 A 
ATOM      6  N   UNL     1       0.423   3.000   6.605  0.00  0.00    -0.247 N 
ATOM      7  N   UNL     1      -0.448   2.859   5.672  0.00  0.00    -0.170 NA
ATOM      8  N   UNL     1       1.060   3.551   8.774  0.00  0.00    -0.247 N 
ATOM      9  H   UNL     1       0.790   3.897   9.783  0.00  0.00    +0.169 HD
ATOM     10  H   UNL     1       1.472   2.762   6.372  0.00  0.00    +0.192 HD
ENDROOT
BRANCH   8  11
ATOM     11  N   UNL     1       2.361   3.254   8.480  0.00  0.00    -0.223 NA
ATOM     12  C   UNL     1       2.838   2.121   9.286  0.00  0.00    +0.133 C 
ATOM     13  C   UNL     1       4.277   1.785   8.882  0.00  0.00    +0.177 C 
ATOM     14  O   UNL     1       5.095   2.946   9.042  0.00  0.00    -0.377 OA
ATOM     15  C   UNL     1       4.659   4.069   8.271  0.00  0.00    +0.177 C 
ATOM     16  C   UNL     1       3.225   4.428   8.668  0.00  0.00    +0.133 C 
ENDBRANCH   8  11
BRANCH   1  17
ATOM     17  C   UNL     1      -2.718   2.949   4.762  0.00  0.00    +0.098 C 
BRANCH  17  21
ATOM     18  C   UNL     1      -0.718   1.572   1.248  0.00  0.00    -0.045 A 
ATOM     19  C   UNL     1      -0.856   2.928   1.478  0.00  0.00    +0.004 A 
ATOM     20  C   UNL     1      -1.507   3.374   2.613  0.00  0.00    +0.004 A 
ATOM     21  C   UNL     1      -2.012   2.463   3.523  0.00  0.00    -0.041 A 
ATOM     22  C   UNL     1      -1.870   1.107   3.295  0.00  0.00    +0.004 A 
ATOM     23  C   UNL     1      -1.222   0.662   2.158  0.00  0.00    +0.004 A 
BRANCH  18  25
ATOM     24  C   UNL     1       1.423   1.615  -0.003  0.00  0.00    +0.012 C 
ATOM     25  C   UNL     1      -0.013   1.086   0.008  0.00  0.00    +0.013 C 
ATOM     26  C   UNL     1      -0.753   1.593  -1.232  0.00  0.00    +0.012 C 
ENDBRANCH  18  25
ENDBRANCH  17  21
ENDBRANCH   1  17
TORSDOF 4
