REMARK  Name = ZINC05173162
REMARK  8 active torsions:
REMARK  status: ('A' for Active; 'I' for Inactive)
REMARK    1  A    between atoms: C_1  and  C_2
REMARK    2  A    between atoms: C_5  and  C_9
REMARK    3  A    between atoms: C_7  and  C_8
REMARK    4  A    between atoms: N_11  and  C_12
REMARK    5  A    between atoms: C_12  and  C_13
REMARK    6  A    between atoms: C_13  and  O_15
REMARK    7  A    between atoms: O_15  and  C_16
REMARK    8  A    between atoms: C_16  and  C_17
REMARK                            x       y       z     vdW  Elec       q    Type
REMARK                         _______ _______ _______ _____ _____    ______ ____
ROOT
ATOM      1  C   UNL     1      -0.016   1.338   0.009  0.00  0.00    +0.325 C 
ATOM      2  O   UNL     1      -1.071   1.928   0.018  0.00  0.00    -0.249 OA
ENDROOT
BRANCH   1   3
ATOM      3  C   UNL     1       1.279   2.109   0.001  0.00  0.00    +0.225 C 
BRANCH   3   6
ATOM      4  C   UNL     1       2.004   4.436   0.007  0.00  0.00    +0.245 C 
ATOM      5  O   UNL     1       3.155   4.046  -0.006  0.00  0.00    -0.270 OA
ATOM      6  N   UNL     1       0.991   3.546   0.012  0.00  0.00    -0.301 N 
ATOM      7  H   UNL     1       0.073   3.857   0.022  0.00  0.00    +0.150 HD
BRANCH   4  12
ATOM      8  C   UNL     1       0.876  10.078   0.048  0.00  0.00    +0.044 C 
ATOM      9  C   UNL     1       1.171   8.601   0.037  0.00  0.00    -0.047 A 
ATOM     10  C   UNL     1       0.129   7.690   0.042  0.00  0.00    +0.004 A 
ATOM     11  C   UNL     1       0.393   6.336   0.026  0.00  0.00    +0.013 A 
ATOM     12  C   UNL     1       1.714   5.885   0.017  0.00  0.00    +0.037 A 
ATOM     13  C   UNL     1       2.760   6.809   0.012  0.00  0.00    +0.016 A 
ATOM     14  C   UNL     1       2.482   8.161   0.022  0.00  0.00    -0.047 A 
ATOM     15  C   UNL     1       3.611   9.160   0.016  0.00  0.00    +0.044 C 
ENDBRANCH   4  12
ENDBRANCH   3   6
ENDBRANCH   1   3
BRANCH   1  16
ATOM     16  O   UNL     1       0.002  -0.004   0.002  0.00  0.00    -0.456 OA
BRANCH  16  17
ATOM     17  C   UNL     1      -1.282  -0.681   0.011  0.00  0.00    +0.306 C 
BRANCH  17  18
ATOM     18  C   UNL     1      -1.065  -2.172   0.001  0.00  0.00    +0.148 A 
ATOM     19  N   UNL     1      -2.155  -2.984   0.007  0.00  0.00    -0.307 N 
ATOM     20  H   UNL     1      -3.075  -2.594   0.018  0.00  0.00    +0.170 HD
ATOM     21  C   UNL     1      -1.981  -4.328  -0.003  0.00  0.00    +0.266 A 
ATOM     22  O   UNL     1      -2.939  -5.083   0.003  0.00  0.00    -0.267 OA
ATOM     23  C   UNL     1      -0.677  -4.823  -0.018  0.00  0.00    +0.102 A 
ATOM     24  C   UNL     1       0.433  -3.960  -0.024  0.00  0.00    +0.085 A 
ATOM     25  N   UNL     1       0.151  -2.616  -0.019  0.00  0.00    -0.230 NA
ATOM     26  C   UNL     1       1.686  -4.589  -0.040  0.00  0.00    +0.036 A 
ATOM     27  C   UNL     1       1.769  -5.937  -0.049  0.00  0.00    +0.048 A 
ATOM     28  S   UNL     1       0.055  -6.437  -0.035  0.00  0.00    -0.090 S 
ENDBRANCH  17  18
ENDBRANCH  16  17
ENDBRANCH   1  16
TORSDOF 6
