REMARK  Name = ZINC35159288
REMARK  7 active torsions:
REMARK  status: ('A' for Active; 'I' for Inactive)
REMARK    1  A    between atoms: N_9  and  C_28
REMARK    2  A    between atoms: C_10  and  S_12
REMARK    3  A    between atoms: S_12  and  C_13
REMARK    4  A    between atoms: C_13  and  C_14
REMARK    5  A    between atoms: C_14  and  C_15
REMARK    6  A    between atoms: C_15  and  C_16
REMARK    7  A    between atoms: N_18  and  C_19
REMARK                            x       y       z     vdW  Elec       q    Type
REMARK                         _______ _______ _______ _____ _____    ______ ____
ROOT
ATOM      1  C   UNL     1      -0.017   1.363   0.009  0.00  0.00    +0.001 A 
ATOM      2  C   UNL     1       1.168   2.089   0.002  0.00  0.00    +0.002 A 
ATOM      3  C   UNL     1       2.379   1.458  -0.013  0.00  0.00    +0.028 A 
ATOM      4  C   UNL     1       2.432   0.061  -0.021  0.00  0.00    +0.079 A 
ATOM      5  C   UNL     1       1.225  -0.674  -0.013  0.00  0.00    +0.065 A 
ATOM      6  C   UNL     1       0.002  -0.004   0.002  0.00  0.00    +0.015 A 
ATOM      7  C   UNL     1       1.305  -2.141  -0.022  0.00  0.00    +0.267 A 
ATOM      8  O   UNL     1       0.300  -2.829  -0.016  0.00  0.00    -0.267 OA
ATOM      9  N   UNL     1       2.538  -2.699  -0.037  0.00  0.00    -0.254 N 
ATOM     10  C   UNL     1       3.655  -1.911  -0.044  0.00  0.00    +0.177 A 
ATOM     11  N   UNL     1       3.606  -0.602  -0.036  0.00  0.00    -0.223 NA
ENDROOT
BRANCH   9  12
ATOM     12  C   UNL     1       2.670  -4.095  -0.045  0.00  0.00    +0.070 A 
ATOM     13  C   UNL     1       2.729  -4.780  -1.251  0.00  0.00    +0.029 A 
ATOM     14  C   UNL     1       2.860  -6.155  -1.257  0.00  0.00    +0.022 A 
ATOM     15  C   UNL     1       2.932  -6.850  -0.062  0.00  0.00    +0.042 A 
ATOM     16  C   UNL     1       2.873  -6.170   1.141  0.00  0.00    +0.042 A 
ATOM     17  C   UNL     1       2.748  -4.793   1.153  0.00  0.00    +0.066 A 
ATOM     18 CL   UNL     1       2.682  -3.939   2.663  0.00  0.00    -0.081 Cl
ATOM     19 CL   UNL     1       3.095  -8.578  -0.073  0.00  0.00    -0.083 Cl
ENDBRANCH   9  12
BRANCH  10  20
ATOM     20  S   UNL     1       5.235  -2.692  -0.063  0.00  0.00    -0.087 S 
BRANCH  20  21
ATOM     21  C   UNL     1       6.408  -1.309  -0.068  0.00  0.00    +0.078 C 
BRANCH  21  22
ATOM     22  C   UNL     1       7.838  -1.853  -0.084  0.00  0.00    +0.020 C 
BRANCH  22  23
ATOM     23  C   UNL     1       8.828  -0.686  -0.088  0.00  0.00    +0.096 C 
BRANCH  23  24
ATOM     24  C   UNL     1      10.236  -1.223  -0.105  0.00  0.00    +0.214 C 
ATOM     25  O   UNL     1      10.429  -2.420  -0.113  0.00  0.00    -0.276 OA
ATOM     26  N   UNL     1      11.281  -0.372  -0.111  0.00  0.00    -0.304 N 
ATOM     27  H   UNL     1      11.127   0.586  -0.104  0.00  0.00    +0.149 HD
BRANCH  26  28
ATOM     28  C   UNL     1      12.650  -0.893  -0.126  0.00  0.00    +0.159 C 
ATOM     29  C   UNL     1      13.591   0.152  -0.731  0.00  0.00    +0.032 C 
ATOM     30  C   UNL     1      14.827  -0.510  -1.314  0.00  0.00    +0.004 C 
ATOM     31  C   UNL     1      15.727  -1.151  -0.274  0.00  0.00    +0.019 C 
ATOM     32  C   UNL     1      15.037  -2.349   0.381  0.00  0.00    +0.104 C 
ATOM     33  N   UNL     1      14.225  -1.866   1.510  0.00  0.00    -0.314 N 
ATOM     34  C   UNL     1      13.099  -1.188   1.290  0.00  0.00    +0.233 C 
ATOM     35  O   UNL     1      12.434  -0.802   2.227  0.00  0.00    -0.274 OA
ATOM     36  H   UNL     1      14.510  -2.045   2.420  0.00  0.00    +0.149 HD
ENDBRANCH  26  28
ENDBRANCH  23  24
ENDBRANCH  22  23
ENDBRANCH  21  22
ENDBRANCH  20  21
ENDBRANCH  10  20
TORSDOF 7
