REMARK  Name = ZINC63339789
REMARK  7 active torsions:
REMARK  status: ('A' for Active; 'I' for Inactive)
REMARK    1  A    between atoms: C_1  and  O_2
REMARK    2  A    between atoms: O_2  and  C_3
REMARK    3  A    between atoms: C_6  and  C_11
REMARK    4  A    between atoms: C_8  and  O_9
REMARK    5  A    between atoms: O_9  and  C_10
REMARK    6  A    between atoms: N_29  and  C_32
REMARK    7  A    between atoms: C_32  and  C_33
REMARK                            x       y       z     vdW  Elec       q    Type
REMARK                         _______ _______ _______ _____ _____    ______ ____
ROOT
ATOM      1  C   UNL     1       2.590  -2.548   4.315  0.00  0.00    +0.133 C 
ATOM      2  C   UNL     1       4.110  -2.510   4.107  0.00  0.00    +0.131 C 
ATOM      3  C   UNL     1       4.571  -1.093   4.420  0.00  0.00    -0.034 C 
ATOM      4  C   UNL     1       5.189  -0.649   3.330  0.00  0.00    -0.001 A 
ATOM      5  C   UNL     1       5.890   0.613   3.049  0.00  0.00    +0.010 A 
ATOM      6  C   UNL     1       6.406   0.746   1.798  0.00  0.00    +0.001 A 
ATOM      7  C   UNL     1       6.296  -0.239   0.812  0.00  0.00    +0.002 A 
ATOM      8  C   UNL     1       5.674  -1.433   0.986  0.00  0.00    +0.026 A 
ATOM      9  C   UNL     1       5.094  -1.690   2.262  0.00  0.00    +0.043 A 
ATOM     10  N   UNL     1       4.459  -2.748   2.704  0.00  0.00    -0.375 N 
ATOM     11  C   UNL     1       4.269  -0.396   5.726  0.00  0.00    +0.065 C 
ATOM     12  C   UNL     1       3.318  -1.320   6.505  0.00  0.00    +0.166 C 
ATOM     13  N   UNL     1       2.299  -1.830   5.563  0.00  0.00    -0.291 N 
ATOM     14  C   UNL     1       1.103  -1.489   6.060  0.00  0.00    +0.143 C 
ATOM     15  S   UNL     1      -0.389  -1.997   5.393  0.00  0.00    -0.018 S 
ATOM     16  N   UNL     1       1.210  -0.703   7.141  0.00  0.00    -0.248 N 
ATOM     17  C   UNL     1       2.521  -0.512   7.506  0.00  0.00    +0.242 C 
ATOM     18  O   UNL     1       2.955   0.155   8.421  0.00  0.00    -0.273 OA
ATOM     19  H   UNL     1       4.251  -3.548   2.196  0.00  0.00    +0.160 HD
ENDROOT
BRANCH   1  23
ATOM     20  C   UNL     1       0.626  -0.619   1.042  0.00  0.00    +0.162 A 
ATOM     21  C   UNL     1       1.202   0.137   2.051  0.00  0.00    +0.050 A 
ATOM     22  C   UNL     1       1.836  -0.490   3.108  0.00  0.00    +0.009 A 
ATOM     23  C   UNL     1       1.897  -1.870   3.161  0.00  0.00    -0.021 A 
ATOM     24  C   UNL     1       1.325  -2.630   2.158  0.00  0.00    +0.055 A 
ATOM     25  C   UNL     1       0.683  -2.008   1.099  0.00  0.00    +0.162 A 
BRANCH  20  27
ATOM     26  C   UNL     1      -0.017   1.425   0.010  0.00  0.00    +0.277 C 
ATOM     27  O   UNL     1       0.002  -0.004   0.002  0.00  0.00    -0.491 OA
ENDBRANCH  20  27
BRANCH  25  28
ATOM     28  O   UNL     1       0.115  -2.754   0.114  0.00  0.00    -0.491 OA
ATOM     29  C   UNL     1       0.211  -4.174   0.238  0.00  0.00    +0.277 C 
ENDBRANCH  25  28
ENDBRANCH   1  23
BRANCH  16  30
ATOM     30  C   UNL     1       0.069  -0.124   7.853  0.00  0.00    +0.142 C 
BRANCH  30  31
ATOM     31  C   UNL     1      -0.379  -1.070   8.937  0.00  0.00    -0.015 C 
ATOM     32  C   UNL     1      -0.462  -0.655  10.177  0.00  0.00    +0.005 C 
ENDBRANCH  30  31
ENDBRANCH  16  30
TORSDOF 5
