REMARK  Name = ZINC02283967
REMARK  7 active torsions:
REMARK  status: ('A' for Active; 'I' for Inactive)
REMARK    1  A    between atoms: C_3  and  C_6
REMARK    2  A    between atoms: C_7  and  C_8
REMARK    3  A    between atoms: C_7  and  N_22
REMARK    4  A    between atoms: N_10  and  N_11
REMARK    5  A    between atoms: C_12  and  C_13
REMARK    6  A    between atoms: C_16  and  N_19
REMARK    7  A    between atoms: C_23  and  C_25
REMARK                            x       y       z     vdW  Elec       q    Type
REMARK                         _______ _______ _______ _____ _____    ______ ____
ROOT
ATOM      1  C   UNL     1       2.555  -0.053  -0.167  0.00  0.00    +0.074 C 
ATOM      2  C   UNL     1       2.417   1.297  -0.075  0.00  0.00    +0.101 C 
ENDROOT
BRANCH   1   5
ATOM      3  C   UNL     1       0.075  -2.669   0.030  0.00  0.00    +0.042 A 
ATOM      4  C   UNL     1       1.417  -2.268  -0.064  0.00  0.00    +0.049 A 
ATOM      5  C   UNL     1       1.415  -0.889  -0.081  0.00  0.00    +0.130 A 
ATOM      6  O   UNL     1       0.132  -0.478   0.004  0.00  0.00    -0.463 OA
ATOM      7  C   UNL     1      -0.676  -1.546   0.066  0.00  0.00    +0.195 A 
ENDBRANCH   1   5
BRANCH   2   8
ATOM      8  C   UNL     1       3.604   2.154  -0.040  0.00  0.00    +0.278 C 
ATOM      9  O   UNL     1       3.481   3.362   0.042  0.00  0.00    -0.267 OA
ATOM     10  N   UNL     1       4.833   1.604  -0.099  0.00  0.00    -0.202 N 
ATOM     11  H   UNL     1       4.932   0.641  -0.165  0.00  0.00    +0.178 HD
BRANCH  10  12
ATOM     12  N   UNL     1       5.969   2.424  -0.066  0.00  0.00    -0.187 NA
ATOM     13  C   UNL     1       7.153   1.894  -0.123  0.00  0.00    +0.138 C 
BRANCH  13  14
ATOM     14  C   UNL     1       8.349   2.757  -0.088  0.00  0.00    -0.005 A 
ATOM     15  C   UNL     1       8.211   4.144   0.000  0.00  0.00    +0.012 A 
ATOM     16  C   UNL     1       9.334   4.944   0.037  0.00  0.00    +0.033 A 
ATOM     17  C   UNL     1      10.594   4.377  -0.023  0.00  0.00    +0.126 A 
ATOM     18  C   UNL     1      10.738   3.004  -0.116  0.00  0.00    +0.033 A 
ATOM     19  C   UNL     1       9.624   2.191  -0.149  0.00  0.00    +0.012 A 
BRANCH  17  20
ATOM     20  N   UNL     1      11.795   5.243   0.011  0.00  0.00    +0.056 N 
ATOM     21  O   UNL     1      12.906   4.747  -0.042  0.00  0.00    -0.126 OA
ATOM     22  O   UNL     1      11.672   6.452   0.093  0.00  0.00    -0.126 OA
ENDBRANCH  17  20
ENDBRANCH  13  14
ENDBRANCH  10  12
ENDBRANCH   2   8
BRANCH   2  23
ATOM     23  N   UNL     1       1.141   1.867  -0.013  0.00  0.00    -0.277 N 
ATOM     24  C   UNL     1       0.796   2.637   1.038  0.00  0.00    +0.248 C 
ATOM     25  O   UNL     1       1.560   2.763   1.976  0.00  0.00    -0.270 OA
ATOM     26  H   UNL     1       0.503   1.709  -0.727  0.00  0.00    +0.155 HD
BRANCH  24  27
ATOM     27  C   UNL     1      -0.512   3.324   1.054  0.00  0.00    +0.037 A 
ATOM     28  C   UNL     1      -1.433   3.102   0.029  0.00  0.00    +0.014 A 
ATOM     29  C   UNL     1      -2.654   3.742   0.052  0.00  0.00    +0.016 A 
ATOM     30  C   UNL     1      -2.963   4.613   1.083  0.00  0.00    +0.018 A 
ATOM     31  C   UNL     1      -2.052   4.842   2.100  0.00  0.00    +0.016 A 
ATOM     32  C   UNL     1      -0.829   4.203   2.091  0.00  0.00    +0.014 A 
ATOM     33 BR   UNL     1      -4.637   5.492   1.103  0.00  0.00    -0.050 Br
ENDBRANCH  24  27
ENDBRANCH   2  23
TORSDOF 7
