REMARK  Name = ZINC36039556
REMARK  7 active torsions:
REMARK  status: ('A' for Active; 'I' for Inactive)
REMARK    1  A    between atoms: C_3  and  N_8
REMARK    2  A    between atoms: C_10  and  C_25
REMARK    3  A    between atoms: N_13  and  C_14
REMARK    4  A    between atoms: C_14  and  C_16
REMARK    5  A    between atoms: C_16  and  N_17
REMARK    6  A    between atoms: N_17  and  C_18
REMARK    7  A    between atoms: C_18  and  C_19
REMARK                            x       y       z     vdW  Elec       q    Type
REMARK                         _______ _______ _______ _____ _____    ______ ____
ROOT
ATOM      1  N   UNL     1       3.585   2.126  -0.021  0.00  0.00    -0.287 N 
ATOM      2  C   UNL     1       3.709   3.501  -0.009  0.00  0.00    +0.120 A 
ATOM      3  C   UNL     1       5.020   3.801  -0.022  0.00  0.00    +0.066 A 
ATOM      4  N   UNL     1       5.731   2.607  -0.042  0.00  0.00    -0.326 N 
ATOM      5  C   UNL     1       4.834   1.587  -0.036  0.00  0.00    +0.205 A 
ATOM      6  N   UNL     1       5.126   0.287  -0.046  0.00  0.00    -0.148 NA
ATOM      7  H   UNL     1       6.697   2.518  -0.054  0.00  0.00    +0.169 HD
ENDROOT
BRANCH   1  10
ATOM      8  C   UNL     1      -0.017   1.378   0.010  0.00  0.00    +0.003 A 
ATOM      9  C   UNL     1       1.169   2.087   0.002  0.00  0.00    +0.026 A 
ATOM     10  C   UNL     1       2.381   1.410  -0.013  0.00  0.00    +0.051 A 
ATOM     11  C   UNL     1       2.398   0.021  -0.021  0.00  0.00    +0.046 A 
ATOM     12  C   UNL     1       1.209  -0.682  -0.013  0.00  0.00    +0.043 A 
ATOM     13  C   UNL     1       0.002  -0.004   0.002  0.00  0.00    +0.020 A 
ATOM     14 CL   UNL     1       1.228  -2.418  -0.023  0.00  0.00    -0.083 Cl
ENDBRANCH   1  10
BRANCH   3  15
ATOM     15  C   UNL     1       5.602   5.161  -0.016  0.00  0.00    -0.000 A 
ATOM     16  C   UNL     1       4.768   6.279   0.009  0.00  0.00    +0.011 A 
ATOM     17  C   UNL     1       5.316   7.545   0.015  0.00  0.00    +0.020 A 
ATOM     18  C   UNL     1       6.691   7.707  -0.006  0.00  0.00    +0.041 A 
ATOM     19  C   UNL     1       7.524   6.601  -0.032  0.00  0.00    +0.020 A 
ATOM     20  C   UNL     1       6.987   5.330  -0.031  0.00  0.00    +0.011 A 
ATOM     21 CL   UNL     1       7.374   9.303   0.000  0.00  0.00    -0.084 Cl
ENDBRANCH   3  15
BRANCH   6  22
ATOM     22  C   UNL     1       6.393  -0.109  -0.060  0.00  0.00    +0.222 C 
ATOM     23  O   UNL     1       7.288   0.716  -0.064  0.00  0.00    -0.276 OA
BRANCH  22  24
ATOM     24  C   UNL     1       6.724  -1.579  -0.071  0.00  0.00    +0.017 C 
BRANCH  24  25
ATOM     25  N   UNL     1       8.182  -1.753  -0.086  0.00  0.00    +0.386 N 
ATOM     26  H   UNL     1       8.565  -1.316  -0.911  0.00  0.00    -0.085 HD
ATOM     27  H   UNL     1       8.581  -1.325   0.737  0.00  0.00    -0.085 HD
BRANCH  25  28
ATOM     28  C   UNL     1       8.504  -3.186  -0.096  0.00  0.00    -0.050 C 
BRANCH  28  29
ATOM     29  C   UNL     1      10.023  -3.368  -0.112  0.00  0.00    +0.101 C 
ATOM     30  C   UNL     1      10.370  -4.866  -0.245  0.00  0.00    +0.032 C 
ATOM     31  C   UNL     1      11.591  -5.007   0.705  0.00  0.00    +0.030 C 
ATOM     32  C   UNL     1      11.223  -3.987   1.811  0.00  0.00    +0.160 C 
ATOM     33  O   UNL     1      10.581  -2.900   1.122  0.00  0.00    -0.378 OA
ENDBRANCH  28  29
ENDBRANCH  25  28
ENDBRANCH  24  25
ENDBRANCH  22  24
ENDBRANCH   6  22
TORSDOF 7
