REMARK  Name = ZINC40568810
REMARK  4 active torsions:
REMARK  status: ('A' for Active; 'I' for Inactive)
REMARK    1  A    between atoms: C_8  and  C_19
REMARK    2  A    between atoms: C_9  and  N_18
REMARK    3  A    between atoms: N_23  and  C_24
REMARK    4  A    between atoms: C_24  and  C_25
REMARK                            x       y       z     vdW  Elec       q    Type
REMARK                         _______ _______ _______ _____ _____    ______ ____
ROOT
ATOM      1  C   UNL     1      -0.049   1.020   0.834  0.00  0.00    +0.000 A 
ATOM      2  C   UNL     1       1.088   1.791   0.956  0.00  0.00    +0.002 A 
ATOM      3  C   UNL     1       2.350   1.288   0.680  0.00  0.00    +0.024 A 
ATOM      4  C   UNL     1       2.430  -0.044   0.269  0.00  0.00    +0.041 A 
ATOM      5  C   UNL     1       1.268  -0.815   0.148  0.00  0.00    -0.001 A 
ATOM      6  C   UNL     1       0.016  -0.308   0.425  0.00  0.00    +0.007 A 
ATOM      7  C   UNL     1       1.709  -2.171  -0.309  0.00  0.00    +0.144 C 
ATOM      8  C   UNL     1       1.345  -3.224   0.696  0.00  0.00    +0.110 C 
ATOM      9  C   UNL     1       0.319  -4.077   0.451  0.00  0.00    +0.199 C 
ATOM     10  O   UNL     1      -0.393  -3.996  -0.685  0.00  0.00    -0.445 OA
ATOM     11  C   UNL     1       0.110  -3.375  -1.769  0.00  0.00    +0.115 C 
ATOM     12  C   UNL     1       1.121  -2.492  -1.659  0.00  0.00    +0.058 C 
ATOM     13  C   UNL     1       1.656  -1.849  -2.791  0.00  0.00    +0.164 C 
ATOM     14  O   UNL     1       2.560  -1.049  -2.651  0.00  0.00    -0.292 OA
ATOM     15  C   UNL     1       1.130  -2.134  -4.171  0.00  0.00    +0.080 C 
ATOM     16  C   UNL     1       0.573  -3.562  -4.204  0.00  0.00    +0.016 C 
ATOM     17  C   UNL     1      -0.494  -3.691  -3.116  0.00  0.00    +0.075 C 
ATOM     18  C   UNL     1       3.215  -2.055  -0.420  0.00  0.00    +0.241 C 
ATOM     19  O   UNL     1       3.982  -2.930  -0.763  0.00  0.00    -0.274 OA
ATOM     20  N   UNL     1       3.542  -0.795  -0.067  0.00  0.00    -0.265 N 
ENDROOT
BRANCH   9  21
ATOM     21  N   UNL     1       0.004  -5.039   1.378  0.00  0.00    -0.328 N 
ATOM     22  H   UNL     1       0.513  -5.104   2.201  0.00  0.00    +0.145 HD
ATOM     23  H   UNL     1      -0.729  -5.653   1.211  0.00  0.00    +0.145 HD
ENDBRANCH   9  21
BRANCH   8  24
ATOM     24  C   UNL     1       2.084  -3.330   1.918  0.00  0.00    +0.102 C 
ATOM     25  N   UNL     1       2.670  -3.413   2.887  0.00  0.00    -0.191 NA
ENDBRANCH   8  24
BRANCH  20  26
ATOM     26  C   UNL     1       4.914  -0.282  -0.043  0.00  0.00    +0.151 C 
BRANCH  26  27
ATOM     27  C   UNL     1       5.587  -0.707   1.236  0.00  0.00    +0.007 A 
ATOM     28  C   UNL     1       5.474   0.075   2.371  0.00  0.00    +0.047 A 
ATOM     29  C   UNL     1       6.093  -0.316   3.545  0.00  0.00    +0.020 A 
ATOM     30  C   UNL     1       6.824  -1.488   3.584  0.00  0.00    +0.003 A 
ATOM     31  C   UNL     1       6.937  -2.271   2.450  0.00  0.00    +0.020 A 
ATOM     32  C   UNL     1       6.314  -1.884   1.277  0.00  0.00    +0.047 A 
ATOM     33 CL   UNL     1       6.450  -2.870  -0.144  0.00  0.00    -0.083 Cl
ATOM     34 CL   UNL     1       4.557   1.548   2.322  0.00  0.00    -0.083 Cl
ENDBRANCH  26  27
ENDBRANCH  20  26
TORSDOF 4
