REMARK  Name = ZINC39657699
REMARK  10 active torsions:
REMARK  status: ('A' for Active; 'I' for Inactive)
REMARK    1  A    between atoms: C_4  and  S_31
REMARK    2  A    between atoms: C_5  and  C_7
REMARK    3  A    between atoms: C_7  and  N_8
REMARK    4  A    between atoms: C_9  and  C_11
REMARK    5  A    between atoms: C_22  and  C_24
REMARK    6  A    between atoms: C_24  and  C_25
REMARK    7  A    between atoms: C_25  and  C_26
REMARK    8  A    between atoms: S_31  and  C_32
REMARK    9  A    between atoms: C_37  and  C_38
REMARK   10  A    between atoms: C_38  and  O_39
REMARK                            x       y       z     vdW  Elec       q    Type
REMARK                         _______ _______ _______ _____ _____    ______ ____
ROOT
ATOM      1  N   UNL     1       2.463  -3.720   0.795  0.00  0.00    -0.311 N 
ATOM      2  C   UNL     1       1.351  -4.018   1.496  0.00  0.00    +0.218 C 
ATOM      3  O   UNL     1       0.257  -3.822   1.011  0.00  0.00    -0.275 OA
ATOM      4  H   UNL     1       3.338  -3.876   1.184  0.00  0.00    +0.149 HD
ENDROOT
BRANCH   2   5
ATOM      5  C   UNL     1       1.468  -4.595   2.884  0.00  0.00    +0.100 C 
ATOM      6  C   UNL     1       0.213  -4.250   3.717  0.00  0.00    +0.121 C 
ATOM      7  N   UNL     1      -0.671  -5.431   3.570  0.00  0.00    -0.300 N 
ATOM      8  C   UNL     1       0.252  -6.590   3.618  0.00  0.00    +0.115 C 
ATOM      9  C   UNL     1       1.491  -6.132   2.824  0.00  0.00    -0.004 C 
ATOM     10  C   UNL     1       1.394  -6.606   1.377  0.00  0.00    -0.010 C 
ATOM     11  C   UNL     1       1.477  -8.135   1.339  0.00  0.00    -0.082 C 
ATOM     12  N   UNL     1       2.745  -8.573   1.935  0.00  0.00    +0.379 N 
ATOM     13  C   UNL     1       2.791  -8.193   3.352  0.00  0.00    -0.082 C 
ATOM     14  C   UNL     1       2.763  -6.667   3.475  0.00  0.00    -0.010 C 
ATOM     15  C   UNL     1      -2.010  -5.446   3.426  0.00  0.00    +0.216 C 
ATOM     16  O   UNL     1      -2.596  -6.503   3.317  0.00  0.00    -0.276 OA
ATOM     17  H   UNL     1       2.825  -9.575   1.854  0.00  0.00    -0.086 HD
ATOM     18  H   UNL     1       3.513  -8.137   1.447  0.00  0.00    -0.086 HD
BRANCH  15  19
ATOM     19  C   UNL     1      -2.781  -4.151   3.399  0.00  0.00    +0.096 C 
BRANCH  19  20
ATOM     20  C   UNL     1      -4.272  -4.449   3.226  0.00  0.00    +0.013 C 
BRANCH  20  21
ATOM     21  C   UNL     1      -5.054  -3.134   3.199  0.00  0.00    -0.011 C 
ATOM     22  C   UNL     1      -5.001  -2.459   4.586  0.00  0.00    +0.003 C 
ATOM     23  C   UNL     1      -6.407  -1.831   4.756  0.00  0.00    +0.000 C 
ATOM     24  C   UNL     1      -7.335  -2.893   4.117  0.00  0.00    +0.000 C 
ATOM     25  C   UNL     1      -6.538  -3.409   2.901  0.00  0.00    +0.003 C 
ENDBRANCH  20  21
ENDBRANCH  19  20
ENDBRANCH  15  19
ENDBRANCH   2   5
BRANCH   1  26
ATOM     26  C   UNL     1       2.350  -3.159  -0.553  0.00  0.00    +0.140 C 
BRANCH  26  31
ATOM     27  C   UNL     1       5.533  -1.424  -1.609  0.00  0.00    +0.000 A 
ATOM     28  C   UNL     1       6.260  -2.472  -2.145  0.00  0.00    +0.001 A 
ATOM     29  C   UNL     1       5.725  -3.744  -2.168  0.00  0.00    +0.015 A 
ATOM     30  C   UNL     1       4.455  -3.972  -1.652  0.00  0.00    +0.017 A 
ATOM     31  C   UNL     1       3.728  -2.917  -1.114  0.00  0.00    -0.017 A 
ATOM     32  C   UNL     1       4.269  -1.647  -1.095  0.00  0.00    +0.006 A 
BRANCH  30  33
ATOM     33  S   UNL     1       3.768  -5.594  -1.679  0.00  0.00    -0.089 S 
BRANCH  33  34
ATOM     34  C   UNL     1       4.934  -6.535  -2.607  0.00  0.00    +0.018 A 
ATOM     35  C   UNL     1       5.811  -7.394  -1.955  0.00  0.00    +0.015 A 
ATOM     36  C   UNL     1       6.723  -8.130  -2.685  0.00  0.00    +0.001 A 
ATOM     37  C   UNL     1       6.765  -8.014  -4.062  0.00  0.00    +0.000 A 
ATOM     38  C   UNL     1       5.894  -7.160  -4.714  0.00  0.00    +0.007 A 
ATOM     39  C   UNL     1       4.975  -6.424  -3.991  0.00  0.00    -0.008 A 
BRANCH  39  40
ATOM     40  C   UNL     1       4.022  -5.498  -4.702  0.00  0.00    +0.192 C 
BRANCH  40  41
ATOM     41  O   UNL     1       4.260  -5.560  -6.110  0.00  0.00    -0.390 OA
ATOM     42  H   UNL     1       3.681  -4.988  -6.632  0.00  0.00    +0.210 HD
ENDBRANCH  40  41
ENDBRANCH  39  40
ENDBRANCH  33  34
ENDBRANCH  30  33
ENDBRANCH  26  31
ENDBRANCH   1  26
TORSDOF 10
