REMARK  Name = ZINC39363384
REMARK  6 active torsions:
REMARK  status: ('A' for Active; 'I' for Inactive)
REMARK    1  A    between atoms: C_1  and  C_2
REMARK    2  A    between atoms: C_4  and  C_9
REMARK    3  A    between atoms: N_7  and  C_8
REMARK    4  A    between atoms: C_24  and  C_26
REMARK    5  A    between atoms: C_29  and  S_32
REMARK    6  A    between atoms: S_32  and  C_33
REMARK                            x       y       z     vdW  Elec       q    Type
REMARK                         _______ _______ _______ _____ _____    ______ ____
ROOT
ATOM      1  C   UNL     1       1.542  -2.931  -0.956  0.00  0.00    +0.239 C 
ATOM      2  O   UNL     1       2.589  -3.095  -0.367  0.00  0.00    -0.273 OA
ATOM      3  N   UNL     1       1.418  -3.336  -2.236  0.00  0.00    -0.287 N 
ATOM      4  C   UNL     1       0.159  -3.140  -2.970  0.00  0.00    +0.113 C 
ATOM      5  C   UNL     1       0.407  -2.175  -4.135  0.00  0.00    +0.056 C 
ATOM      6  C   UNL     1       1.679  -2.573  -4.840  0.00  0.00    -0.015 A 
ATOM      7  C   UNL     1       2.125  -2.199  -6.167  0.00  0.00    +0.003 A 
ATOM      8  C   UNL     1       1.561  -1.401  -7.166  0.00  0.00    +0.010 A 
ATOM      9  C   UNL     1       2.279  -1.261  -8.328  0.00  0.00    +0.001 A 
ATOM     10  C   UNL     1       3.505  -1.877  -8.514  0.00  0.00    +0.002 A 
ATOM     11  C   UNL     1       4.087  -2.672  -7.541  0.00  0.00    +0.026 A 
ATOM     12  C   UNL     1       3.381  -2.832  -6.351  0.00  0.00    +0.047 A 
ATOM     13  N   UNL     1       3.655  -3.531  -5.211  0.00  0.00    -0.356 N 
ATOM     14  C   UNL     1       2.632  -3.372  -4.314  0.00  0.00    +0.046 A 
ATOM     15  H   UNL     1       4.454  -4.060  -5.059  0.00  0.00    +0.166 HD
ATOM     16  C   UNL     1       2.542  -3.980  -2.936  0.00  0.00    +0.153 C 
ENDROOT
BRANCH   1  20
ATOM     17  C   UNL     1       0.394   1.396   0.497  0.00  0.00    +0.061 C 
ATOM     18  C   UNL     1       0.428  -0.110   0.447  0.00  0.00    +0.017 C 
ATOM     19  C   UNL     1       0.278  -0.817  -0.655  0.00  0.00    +0.022 C 
ATOM     20  C   UNL     1       0.379  -2.274  -0.258  0.00  0.00    +0.183 C 
ATOM     21  N   UNL     1       0.603  -2.238   1.201  0.00  0.00    -0.225 NA
ATOM     22  N   UNL     1       0.625  -0.918   1.550  0.00  0.00    -0.274 N 
ATOM     23  C   UNL     1       0.829  -0.424   2.914  0.00  0.00    +0.149 C 
ATOM     24  H   UNL     1      -0.128  -2.732   1.691  0.00  0.00    +0.146 HD
ENDBRANCH   1  20
BRANCH  16  25
ATOM     25  C   UNL     1       2.292  -5.462  -3.050  0.00  0.00    -0.021 A 
ATOM     26  C   UNL     1       3.134  -6.354  -2.413  0.00  0.00    +0.007 A 
ATOM     27  C   UNL     1       2.909  -7.713  -2.515  0.00  0.00    +0.015 A 
ATOM     28  C   UNL     1       1.834  -8.182  -3.261  0.00  0.00    +0.008 A 
ATOM     29  C   UNL     1       0.990  -7.282  -3.900  0.00  0.00    +0.015 A 
ATOM     30  C   UNL     1       1.218  -5.925  -3.788  0.00  0.00    +0.007 A 
BRANCH  28  31
ATOM     31  S   UNL     1       1.542  -9.915  -3.395  0.00  0.00    -0.129 S 
ATOM     32  C   UNL     1       0.065 -10.032  -4.441  0.00  0.00    +0.090 C 
ENDBRANCH  28  31
ENDBRANCH  16  25
TORSDOF 3
