REMARK  Name = ZINC09466846
REMARK  12 active torsions:
REMARK  status: ('A' for Active; 'I' for Inactive)
REMARK    1  A    between atoms: C_1  and  C_2
REMARK    2  A    between atoms: C_2  and  N_3
REMARK    3  A    between atoms: C_7  and  S_26
REMARK    4  A    between atoms: C_11  and  C_12
REMARK    5  A    between atoms: C_12  and  N_65
REMARK    6  A    between atoms: C_13  and  N_65
REMARK    7  A    between atoms: C_14  and  C_15
REMARK    8  A    between atoms: C_14  and  N_65
REMARK    9  A    between atoms: C_20  and  N_21
REMARK   10  A    between atoms: S_26  and  N_29
REMARK   11  A    between atoms: N_29  and  C_30
REMARK   12  A    between atoms: N_29  and  C_31
REMARK                            x       y       z     vdW  Elec       q    Type
REMARK                         _______ _______ _______ _____ _____    ______ ____
ROOT
ATOM      1  N   UNL     1       2.550   2.035   1.055  0.00  0.00    -0.329 N 
ATOM      2  C   UNL     1       3.588   1.198   1.412  0.00  0.00    +0.069 A 
ATOM      3  C   UNL     1       4.963   1.353   1.516  0.00  0.00    +0.030 A 
ATOM      4  C   UNL     1       5.743   0.288   1.913  0.00  0.00    +0.030 A 
ATOM      5  C   UNL     1       5.162  -0.937   2.207  0.00  0.00    +0.108 A 
ATOM      6  C   UNL     1       3.811  -1.109   2.111  0.00  0.00    +0.058 A 
ATOM      7  C   UNL     1       3.000  -0.043   1.712  0.00  0.00    +0.091 A 
ATOM      8  N   UNL     1       1.662   0.098   1.526  0.00  0.00    -0.234 NA
ATOM      9  C   UNL     1       1.400   1.313   1.142  0.00  0.00    +0.094 A 
ENDROOT
BRANCH   5  10
ATOM     10  S   UNL     1       6.179  -2.285   2.712  0.00  0.00    +0.060 S 
ATOM     11  O   UNL     1       5.461  -3.473   2.403  0.00  0.00    -0.153 OA
ATOM     12  O   UNL     1       7.479  -2.027   2.200  0.00  0.00    -0.153 OA
BRANCH  10  13
ATOM     13  N   UNL     1       6.297  -2.219   4.362  0.00  0.00    -0.183 NA
ATOM     14  C   UNL     1       5.322  -2.926   5.196  0.00  0.00    +0.131 C 
ATOM     15  C   UNL     1       7.378  -1.453   4.988  0.00  0.00    +0.131 C 
ENDBRANCH  10  13
ENDBRANCH   5  10
BRANCH   1  17
ATOM     16  C   UNL     1       2.665   4.325   1.905  0.00  0.00    +0.027 C 
ATOM     17  C   UNL     1       2.665   3.440   0.657  0.00  0.00    +0.120 C 
ENDBRANCH   1  17
BRANCH   9  18
ATOM     18  C   UNL     1       0.023   1.842   0.832  0.00  0.00    -0.003 C 
BRANCH  18  20
ATOM     19  C   UNL     1      -0.890   1.171   2.972  0.00  0.00    -0.095 C 
ATOM     20  N   UNL     1      -0.598   2.317   2.086  0.00  0.00    +0.385 N 
ATOM     21  H   UNL     1       0.056   2.949   2.564  0.00  0.00    -0.081 HD
BRANCH  20  22
ATOM     22  C   UNL     1      -1.844   3.054   1.786  0.00  0.00    -0.041 C 
BRANCH  22  23
ATOM     23  C   UNL     1      -2.263   3.818   3.015  0.00  0.00    -0.043 A 
ATOM     24  C   UNL     1      -3.299   3.350   3.800  0.00  0.00    +0.003 A 
ATOM     25  C   UNL     1      -3.681   4.048   4.931  0.00  0.00    +0.000 A 
ATOM     26  C   UNL     1      -3.036   5.222   5.274  0.00  0.00    +0.002 A 
ATOM     27  C   UNL     1      -2.003   5.698   4.490  0.00  0.00    +0.023 A 
ATOM     28  C   UNL     1      -1.613   4.997   3.357  0.00  0.00    +0.031 A 
BRANCH  28  29
ATOM     29  N   UNL     1      -0.569   5.476   2.562  0.00  0.00    -0.330 N 
ATOM     30  C   UNL     1      -1.084   6.016   1.277  0.00  0.00    +0.105 C 
ATOM     31  C   UNL     1       0.064   6.940   0.796  0.00  0.00    +0.020 C 
ATOM     32  C   UNL     1       0.575   7.570   2.112  0.00  0.00    +0.020 C 
ATOM     33  C   UNL     1       0.127   6.601   3.222  0.00  0.00    +0.105 C 
ENDBRANCH  28  29
ENDBRANCH  22  23
ENDBRANCH  20  22
ENDBRANCH  18  20
ENDBRANCH   9  18
TORSDOF 8
