REMARK  Name = ZINC24892771
REMARK  12 active torsions:
REMARK  status: ('A' for Active; 'I' for Inactive)
REMARK    1  A    between atoms: C_1  and  C_2
REMARK    2  A    between atoms: C_2  and  C_4
REMARK    3  A    between atoms: C_2  and  N_10
REMARK    4  A    between atoms: C_4  and  C_5
REMARK    5  A    between atoms: N_10  and  C_11
REMARK    6  A    between atoms: N_10  and  C_20
REMARK    7  A    between atoms: C_11  and  C_12
REMARK    8  A    between atoms: C_15  and  O_18
REMARK    9  A    between atoms: O_18  and  C_19
REMARK   10  A    between atoms: C_20  and  C_21
REMARK   11  A    between atoms: N_23  and  C_24
REMARK   12  A    between atoms: C_33  and  C_35
REMARK                            x       y       z     vdW  Elec       q    Type
REMARK                         _______ _______ _______ _____ _____    ______ ____
ROOT
ATOM      1  N   UNL     1      -6.009   1.923   0.359  0.00  0.00    +0.390 N 
ATOM      2  H   UNL     1      -5.756   2.721   1.073  0.00  0.00    -0.080 HD
ENDROOT
BRANCH   1   4
ATOM      3  C   UNL     1      -6.435   3.939  -0.965  0.00  0.00    -0.013 C 
ATOM      4  C   UNL     1      -5.944   2.490  -0.994  0.00  0.00    -0.066 C 
BRANCH   4   5
ATOM      5  C   UNL     1      -6.830   1.670  -1.933  0.00  0.00    +0.027 C 
BRANCH   5   6
ATOM      6  C   UNL     1      -6.266   0.279  -2.070  0.00  0.00    -0.012 A 
ATOM      7  C   UNL     1      -6.619  -0.854  -1.415  0.00  0.00    +0.011 A 
ATOM      8  C   UNL     1      -5.956  -2.031  -1.706  0.00  0.00    +0.008 A 
ATOM      9  C   UNL     1      -4.972  -2.018  -2.638  0.00  0.00    +0.045 A 
ATOM     10  S   UNL     1      -4.964  -0.305  -3.142  0.00  0.00    -0.102 S 
ENDBRANCH   5   6
ENDBRANCH   4   5
ENDBRANCH   1   4
BRANCH   1  11
ATOM     11  C   UNL     1      -7.366   1.454   0.669  0.00  0.00    -0.042 C 
BRANCH  11  12
ATOM     12  C   UNL     1      -8.268   2.640   0.893  0.00  0.00    -0.064 A 
ATOM     13  C   UNL     1      -8.209   3.337   2.086  0.00  0.00    +0.005 A 
ATOM     14  C   UNL     1      -9.031   4.428   2.292  0.00  0.00    +0.046 A 
ATOM     15  C   UNL     1      -9.925   4.817   1.305  0.00  0.00    +0.120 A 
ATOM     16  C   UNL     1      -9.987   4.112   0.112  0.00  0.00    +0.046 A 
ATOM     17  C   UNL     1      -9.159   3.026  -0.092  0.00  0.00    +0.005 A 
BRANCH  15  18
ATOM     18  O   UNL     1     -10.739   5.886   1.507  0.00  0.00    -0.495 OA
ATOM     19  C   UNL     1     -10.620   6.564   2.759  0.00  0.00    +0.277 C 
ENDBRANCH  15  18
ENDBRANCH  11  12
ENDBRANCH   1  11
BRANCH   1  20
ATOM     20  C   UNL     1      -5.027   0.843   0.525  0.00  0.00    +0.020 C 
BRANCH  20  21
ATOM     21  C   UNL     1      -3.637   1.424   0.532  0.00  0.00    +0.201 C 
ATOM     22  O   UNL     1      -3.482   2.627   0.515  0.00  0.00    -0.278 OA
ATOM     23  N   UNL     1      -2.565   0.607   0.558  0.00  0.00    -0.287 N 
ATOM     24  H   UNL     1      -2.703  -0.483   0.494  0.00  0.00    +0.155 HD
BRANCH  23  25
ATOM     25  C   UNL     1      -1.277   1.145   0.666  0.00  0.00    +0.034 A 
ATOM     26  C   UNL     1      -0.297   0.471   1.385  0.00  0.00    +0.025 A 
ATOM     27  C   UNL     1       0.969   1.004   1.496  0.00  0.00    +0.025 A 
ATOM     28  C   UNL     1       1.280   2.220   0.883  0.00  0.00    +0.040 A 
ATOM     29  C   UNL     1       0.299   2.884   0.164  0.00  0.00    -0.023 A 
ATOM     30  C   UNL     1      -0.971   2.351   0.052  0.00  0.00    +0.028 A 
ATOM     31  C   UNL     1       0.890   4.160  -0.391  0.00  0.00    +0.056 C 
ATOM     32  C   UNL     1       2.347   4.158   0.099  0.00  0.00    +0.118 C 
ATOM     33  N   UNL     1       2.490   2.923   0.874  0.00  0.00    -0.271 N 
ATOM     34  C   UNL     1       3.621   2.523   1.488  0.00  0.00    +0.217 C 
ATOM     35  O   UNL     1       4.622   3.205   1.421  0.00  0.00    -0.276 OA
ATOM     36  C   UNL     1       3.643   1.227   2.258  0.00  0.00    +0.109 C 
ENDBRANCH  23  25
ENDBRANCH  20  21
ENDBRANCH   1  20
TORSDOF 9
