REMARK  Name = ZINC38528784
REMARK  8 active torsions:
REMARK  status: ('A' for Active; 'I' for Inactive)
REMARK    1  A    between atoms: C_1  and  C_2
REMARK    2  A    between atoms: C_2  and  CA_4
REMARK    3  A    between atoms: C_2  and  C_27
REMARK    4  A    between atoms: CA_4  and  C_6
REMARK    5  A    between atoms: CA_4  and  N_9
REMARK    6  A    between atoms: C_10  and  O_12
REMARK    7  A    between atoms: O_12  and  C_13
REMARK    8  A    between atoms: C_13  and  C_14
REMARK                            x       y       z     vdW  Elec       q    Type
REMARK                         _______ _______ _______ _____ _____    ______ ____
ROOT
ATOM      1  O   UNL     1       0.018   0.578  -4.701  0.00  0.00    -0.449 OA
ENDROOT
BRANCH   1   3
ATOM      2  N   UNL     1       0.010  -0.012  -2.444  0.00  0.00    -0.267 N 
ATOM      3  C   UNL     1       0.669   0.132  -3.610  0.00  0.00    +0.401 C 
ATOM      4  O   UNL     1       1.851  -0.141  -3.678  0.00  0.00    -0.226 OA
ATOM      5  H   UNL     1      -0.934   0.205  -2.390  0.00  0.00    +0.153 HD
BRANCH   2   6
ATOM      6  CA  UNL     1       0.718  -0.497  -1.257  0.00  0.00    +0.203 C 
BRANCH   6   7
ATOM      7  C   UNL     1       0.739  -2.004  -1.265  0.00  0.00    +0.377 C 
ATOM      8  O   UNL     1       0.061  -2.619  -2.071  0.00  0.00    -0.244 OA
ATOM      9  OXT UNL     1       1.433  -2.609  -0.466  0.00  0.00    -0.244 OA
ENDBRANCH   6   7
BRANCH   6  11
ATOM     10  C   UNL     1      -0.019   1.526   0.010  0.00  0.00    +0.022 C 
ATOM     11  C   UNL     1       0.002  -0.004   0.002  0.00  0.00    +0.130 C 
BRANCH  11  12
ATOM     12  C   UNL     1       0.731  -0.503   1.223  0.00  0.00    +0.361 C 
ATOM     13  O   UNL     1       0.321  -0.220   2.336  0.00  0.00    -0.246 OA
ATOM     14  O   UNL     1       1.730  -1.190   1.098  0.00  0.00    -0.246 OA
ENDBRANCH  11  12
ENDBRANCH   6  11
ENDBRANCH   2   6
ENDBRANCH   1   3
BRANCH   1  15
ATOM     15  C   UNL     1       0.779   0.707  -5.904  0.00  0.00    +0.246 C 
BRANCH  15  16
ATOM     16  C   UNL     1      -0.124   1.222  -7.026  0.00  0.00    +0.088 C 
ATOM     17  C   UNL     1      -1.139   0.171  -7.402  0.00  0.00    -0.029 A 
ATOM     18  C   UNL     1      -2.137  -0.452  -6.682  0.00  0.00    +0.005 A 
ATOM     19  C   UNL     1      -2.939  -1.401  -7.289  0.00  0.00    +0.000 A 
ATOM     20  C   UNL     1      -2.742  -1.728  -8.619  0.00  0.00    +0.001 A 
ATOM     21  C   UNL     1      -1.746  -1.111  -9.346  0.00  0.00    +0.009 A 
ATOM     22  C   UNL     1      -0.932  -0.152  -8.740  0.00  0.00    -0.014 A 
ATOM     23  C   UNL     1       0.193   0.654  -9.275  0.00  0.00    -0.014 A 
ATOM     24  C   UNL     1       0.690   1.480  -8.270  0.00  0.00    -0.029 A 
ATOM     25  C   UNL     1       1.746   2.329  -8.526  0.00  0.00    +0.005 A 
ATOM     26  C   UNL     1       2.317   2.364  -9.786  0.00  0.00    +0.000 A 
ATOM     27  C   UNL     1       1.830   1.547 -10.791  0.00  0.00    +0.001 A 
ATOM     28  C   UNL     1       0.774   0.694 -10.543  0.00  0.00    +0.009 A 
ENDBRANCH  15  16
ENDBRANCH   1  15
TORSDOF 7
