REMARK  Name = ZINC05714553
REMARK  11 active torsions:
REMARK  status: ('A' for Active; 'I' for Inactive)
REMARK    1  A    between atoms: C_1  and  C_2
REMARK    2  A    between atoms: C_2  and  C_3
REMARK    3  A    between atoms: C_2  and  C_4
REMARK    4  A    between atoms: C_2  and  C_5
REMARK    5  A    between atoms: C_5  and  C_7
REMARK    6  A    between atoms: C_5  and  N_58
REMARK    7  A    between atoms: C_7  and  O_8
REMARK    8  A    between atoms: O_8  and  C_9
REMARK    9  A    between atoms: C_21  and  C_23
REMARK   10  A    between atoms: C_23  and  C_24
REMARK   11  A    between atoms: C_24  and  C_25
REMARK                            x       y       z     vdW  Elec       q    Type
REMARK                         _______ _______ _______ _____ _____    ______ ____
ROOT
ATOM      1  C   UNL     1       2.860  -0.781  -1.030  0.00  0.00    +0.154 C 
ATOM      2  N   UNL     1       4.183  -0.969  -1.334  0.00  0.00    -0.316 N 
ATOM      3  C   UNL     1       5.129   0.125  -1.146  0.00  0.00    +0.107 C 
ATOM      4  C   UNL     1       6.171  -0.203  -0.078  0.00  0.00    +0.024 C 
ATOM      5  C   UNL     1       7.025  -1.395  -0.519  0.00  0.00    +0.037 C 
ATOM      6  C   UNL     1       6.343  -2.669  -0.083  0.00  0.00    -0.042 A 
ATOM      7  C   UNL     1       6.872  -3.414   0.956  0.00  0.00    +0.004 A 
ATOM      8  C   UNL     1       6.226  -4.560   1.379  0.00  0.00    +0.000 A 
ATOM      9  C   UNL     1       5.053  -4.963   0.767  0.00  0.00    +0.000 A 
ATOM     10  C   UNL     1       4.529  -4.222  -0.277  0.00  0.00    +0.006 A 
ATOM     11  C   UNL     1       5.181  -3.081  -0.699  0.00  0.00    -0.024 A 
ATOM     12  C   UNL     1       4.630  -2.267  -1.851  0.00  0.00    +0.105 C 
ATOM     13  N   UNL     1       2.506   0.412  -0.565  0.00  0.00    -0.373 N 
ATOM     14  H   UNL     1       3.212   1.148  -0.447  0.00  0.00    +0.161 HD
ENDROOT
BRANCH  13  15
ATOM     15  C   UNL     1       1.070   0.685  -0.212  0.00  0.00    +0.111 C 
BRANCH  15  17
ATOM     16  C   UNL     1       2.007   2.192   1.546  0.00  0.00    +0.013 C 
ATOM     17  C   UNL     1       1.004   1.071   1.267  0.00  0.00    -0.015 C 
ATOM     18  C   UNL     1       1.346  -0.146   2.128  0.00  0.00    +0.013 C 
ATOM     19  C   UNL     1      -0.408   1.554   1.605  0.00  0.00    +0.013 C 
ENDBRANCH  15  17
BRANCH  15  20
ATOM     20  C   UNL     1       0.578   1.854  -1.067  0.00  0.00    +0.184 C 
BRANCH  20  21
ATOM     21  O   UNL     1       1.370   3.011  -0.792  0.00  0.00    -0.381 OA
ATOM     22  C   UNL     1       0.991   4.167  -1.543  0.00  0.00    +0.194 C 
ENDBRANCH  20  21
ENDBRANCH  15  20
ENDBRANCH  13  15
BRANCH  12  23
ATOM     23  C   UNL     1       5.725  -2.053  -2.898  0.00  0.00    +0.028 C 
BRANCH  23  24
ATOM     24  C   UNL     1       5.088  -1.939  -4.285  0.00  0.00    +0.018 C 
BRANCH  24  25
ATOM     25  C   UNL     1       6.183  -1.725  -5.332  0.00  0.00    +0.109 C 
ATOM     26 CL   UNL     1       5.432  -1.590  -6.966  0.00  0.00    -0.125 Cl
ENDBRANCH  24  25
ENDBRANCH  23  24
ENDBRANCH  12  23
TORSDOF 7
