REMARK  Name = ZINC38611364
REMARK  12 active torsions:
REMARK  status: ('A' for Active; 'I' for Inactive)
REMARK    1  A    between atoms: C_1  and  C_2
REMARK    2  A    between atoms: C_2  and  O_3
REMARK    3  A    between atoms: O_3  and  C_4
REMARK    4  A    between atoms: C_6  and  C_20
REMARK    5  A    between atoms: C_9  and  O_10
REMARK    6  A    between atoms: O_10  and  C_11
REMARK    7  A    between atoms: C_11  and  C_12
REMARK    8  A    between atoms: C_20  and  C_22
REMARK    9  A    between atoms: C_20  and  C_29
REMARK   10  A    between atoms: C_23  and  C_28
REMARK   11  A    between atoms: C_30  and  C_36
REMARK   12  A    between atoms: C_33  and  O_35
REMARK                            x       y       z     vdW  Elec       q    Type
REMARK                         _______ _______ _______ _____ _____    ______ ____
ROOT
ATOM      1  C   UNL     1       1.151  -2.485   1.701  0.00  0.00    +0.162 A 
ATOM      2  C   UNL     1       0.478  -3.093   0.654  0.00  0.00    +0.054 A 
ATOM      3  C   UNL     1       0.354  -4.469   0.618  0.00  0.00    -0.032 A 
ATOM      4  C   UNL     1       0.901  -5.242   1.625  0.00  0.00    +0.008 A 
ATOM      5  C   UNL     1       1.574  -4.642   2.673  0.00  0.00    +0.050 A 
ATOM      6  C   UNL     1       1.706  -3.263   2.712  0.00  0.00    +0.162 A 
ENDROOT
BRANCH   1   7
ATOM      7  O   UNL     1       1.274  -1.131   1.738  0.00  0.00    -0.489 OA
BRANCH   7   9
ATOM      8  C   UNL     1       0.919   1.100   0.879  0.00  0.00    +0.048 C 
ATOM      9  C   UNL     1       0.679  -0.396   0.666  0.00  0.00    +0.226 C 
ENDBRANCH   7   9
ENDBRANCH   1   7
BRANCH   6  10
ATOM     10  O   UNL     1       2.373  -2.671   3.739  0.00  0.00    -0.484 OA
BRANCH  10  11
ATOM     11  C   UNL     1       2.917  -3.533   4.742  0.00  0.00    +0.264 C 
BRANCH  11  12
ATOM     12  C   UNL     1       3.615  -2.705   5.790  0.00  0.00    -0.009 A 
ATOM     13  C   UNL     1       4.955  -2.397   5.649  0.00  0.00    +0.008 A 
ATOM     14  C   UNL     1       5.596  -1.639   6.610  0.00  0.00    +0.022 A 
ATOM     15  C   UNL     1       4.896  -1.187   7.715  0.00  0.00    +0.059 A 
ATOM     16  C   UNL     1       3.554  -1.496   7.856  0.00  0.00    +0.060 A 
ATOM     17  C   UNL     1       2.913  -2.250   6.891  0.00  0.00    +0.028 A 
ATOM     18 CL   UNL     1       2.674  -0.930   9.242  0.00  0.00    -0.082 Cl
ATOM     19 CL   UNL     1       5.701  -0.235   8.923  0.00  0.00    -0.082 Cl
ENDBRANCH  11  12
ENDBRANCH  10  11
ENDBRANCH   6  10
BRANCH   3  20
ATOM     20  C   UNL     1      -0.379  -5.129  -0.522  0.00  0.00    +0.088 C 
BRANCH  20  21
ATOM     21  C   UNL     1      -1.523  -5.945   0.022  0.00  0.00    +0.052 A 
ATOM     22  C   UNL     1      -2.332  -5.605   1.111  0.00  0.00    +0.068 A 
ATOM     23  N   UNL     1      -3.214  -6.557   1.279  0.00  0.00    -0.176 NA
ATOM     24  N   UNL     1      -2.997  -7.537   0.303  0.00  0.00    -0.243 N 
ATOM     25  C   UNL     1      -1.956  -7.139  -0.463  0.00  0.00    +0.271 A 
ATOM     26  O   UNL     1      -1.437  -7.810  -1.522  0.00  0.00    -0.266 OA
ATOM     27  C   UNL     1      -2.209  -4.357   1.946  0.00  0.00    +0.068 C 
ATOM     28  H   UNL     1      -3.505  -8.356   0.193  0.00  0.00    +0.192 HD
ENDBRANCH  20  21
BRANCH  20  29
ATOM     29  C   UNL     1       0.568  -6.029  -1.273  0.00  0.00    +0.017 C 
ATOM     30  C   UNL     1       0.821  -6.046  -2.584  0.00  0.00    +0.065 C 
ATOM     31  N   UNL     1       1.731  -6.998  -2.885  0.00  0.00    -0.156 NA
ATOM     32  N   UNL     1       2.136  -7.644  -1.915  0.00  0.00    -0.151 NA
ATOM     33  C   UNL     1       1.459  -7.124  -0.715  0.00  0.00    +0.284 C 
ATOM     34  C   UNL     1       0.178  -5.128  -3.591  0.00  0.00    +0.067 C 
BRANCH  33  35
ATOM     35  O   UNL     1       0.677  -8.147  -0.096  0.00  0.00    -0.366 OA
ATOM     36  H   UNL     1       1.199  -8.870   0.277  0.00  0.00    +0.212 HD
ENDBRANCH  33  35
ENDBRANCH  20  29
ENDBRANCH   3  20
TORSDOF 9
