REMARK  Name = ZINC20801850
REMARK  3 active torsions:
REMARK  status: ('A' for Active; 'I' for Inactive)
REMARK    1  A    between atoms: C_1  and  C_2
REMARK    2  A    between atoms: C_2  and  N_3
REMARK    3  A    between atoms: C_23  and  C_28
REMARK                            x       y       z     vdW  Elec       q    Type
REMARK                         _______ _______ _______ _____ _____    ______ ____
ROOT
ATOM      1  N   UNL     1      -2.490  11.664  -0.854  0.00  0.00    -0.329 N 
ATOM      2  C   UNL     1      -1.774  11.030   0.137  0.00  0.00    +0.135 A 
ATOM      3  C   UNL     1      -1.115  11.773   1.142  0.00  0.00    +0.078 A 
ATOM      4  C   UNL     1      -0.403  11.090   2.131  0.00  0.00    +0.059 A 
ATOM      5  N   UNL     1      -0.371   9.768   2.088  0.00  0.00    -0.218 NA
ATOM      6  C   UNL     1      -0.995   9.099   1.126  0.00  0.00    +0.220 A 
ATOM      7  N   UNL     1      -1.685   9.704   0.171  0.00  0.00    -0.199 NA
ATOM      8  N   UNL     1      -0.926   7.722   1.124  0.00  0.00    -0.297 N 
ATOM      9  C   UNL     1      -1.678   7.159  -0.006  0.00  0.00    +0.127 C 
ATOM     10  C   UNL     1      -1.644   5.631   0.072  0.00  0.00    +0.125 C 
ATOM     11  N   UNL     1      -0.247   5.173   0.053  0.00  0.00    -0.314 N 
ATOM     12  C   UNL     1       0.504   5.736   1.183  0.00  0.00    +0.125 C 
ATOM     13  C   UNL     1       0.470   7.264   1.105  0.00  0.00    +0.127 C 
ATOM     14  C   UNL     1      -0.178   3.785   0.051  0.00  0.00    +0.099 A 
ATOM     15  C   UNL     1       1.063   3.156   0.033  0.00  0.00    +0.042 A 
ATOM     16  C   UNL     1       1.117   1.774   0.031  0.00  0.00    +0.005 A 
ATOM     17  C   UNL     1      -0.076   1.064   0.047  0.00  0.00    +0.018 A 
ATOM     18  C   UNL     1      -1.273   1.753   0.058  0.00  0.00    +0.084 A 
ATOM     19  N   UNL     1      -1.294   3.072   0.065  0.00  0.00    -0.350 N 
ATOM     20  C   UNL     1       0.308  11.820   3.235  0.00  0.00    +0.065 C 
ATOM     21  C   UNL     1       0.615  13.261   2.834  0.00  0.00    +0.032 C 
ATOM     22  C   UNL     1      -0.678  13.954   2.386  0.00  0.00    +0.088 C 
ATOM     23  C   UNL     1      -1.172  13.236   1.146  0.00  0.00    +0.169 C 
ATOM     24  O   UNL     1      -1.600  13.852   0.192  0.00  0.00    -0.292 OA
ATOM     25  H   UNL     1      -2.631  12.755  -0.819  0.00  0.00    +0.147 HD
ATOM     26  H   UNL     1      -2.270   3.579   0.083  0.00  0.00    +0.166 HD
ENDROOT
BRANCH  21  27
ATOM     27  C   UNL     1       1.198  13.997   4.013  0.00  0.00    -0.044 A 
ATOM     28  C   UNL     1       0.464  14.129   5.177  0.00  0.00    +0.004 A 
ATOM     29  C   UNL     1       1.000  14.800   6.260  0.00  0.00    +0.000 A 
ATOM     30  C   UNL     1       2.266  15.348   6.176  0.00  0.00    +0.000 A 
ATOM     31  C   UNL     1       2.998  15.221   5.010  0.00  0.00    +0.000 A 
ATOM     32  C   UNL     1       2.464  14.545   3.929  0.00  0.00    +0.004 A 
ENDBRANCH  21  27
BRANCH   1  34
ATOM     33  C   UNL     1      -3.805  11.825  -2.910  0.00  0.00    +0.024 C 
ATOM     34  C   UNL     1      -3.065  10.886  -1.954  0.00  0.00    +0.099 C 
ENDBRANCH   1  34
TORSDOF 2
