REMARK  Name = ZINC39696073
REMARK  8 active torsions:
REMARK  status: ('A' for Active; 'I' for Inactive)
REMARK    1  A    between atoms: C_1  and  C_2
REMARK    2  A    between atoms: C_2  and  C_3
REMARK    3  A    between atoms: C_6  and  C_9
REMARK    4  A    between atoms: C_9  and  C_11
REMARK    5  A    between atoms: C_9  and  N_12
REMARK    6  A    between atoms: C_13  and  C_15
REMARK    7  A    between atoms: C_26  and  C_28
REMARK    8  A    between atoms: C_28  and  C_34
REMARK                            x       y       z     vdW  Elec       q    Type
REMARK                         _______ _______ _______ _____ _____    ______ ____
ROOT
ATOM      1  C   UNL     1       2.006  -0.200   8.501  0.00  0.00    +0.100 C 
ATOM      2  C   UNL     1       0.850  -1.179   8.807  0.00  0.00    +0.121 C 
ATOM      3  N   UNL     1       1.396  -2.092   9.839  0.00  0.00    -0.300 N 
ATOM      4  C   UNL     1       2.198  -1.212  10.722  0.00  0.00    +0.115 C 
ATOM      5  C   UNL     1       2.886  -0.222   9.761  0.00  0.00    -0.004 C 
ATOM      6  C   UNL     1       2.946   1.168  10.388  0.00  0.00    -0.010 C 
ATOM      7  C   UNL     1       3.874   1.134  11.606  0.00  0.00    -0.082 C 
ATOM      8  N   UNL     1       5.214   0.705  11.191  0.00  0.00    +0.379 N 
ATOM      9  C   UNL     1       5.163  -0.668  10.674  0.00  0.00    -0.082 C 
ATOM     10  C   UNL     1       4.290  -0.711   9.417  0.00  0.00    -0.010 C 
ATOM     11  C   UNL     1       1.206  -3.421   9.950  0.00  0.00    +0.222 C 
ATOM     12  O   UNL     1       0.582  -4.018   9.098  0.00  0.00    -0.275 OA
ATOM     13  H   UNL     1       5.555   1.322  10.468  0.00  0.00    -0.086 HD
ATOM     14  H   UNL     1       5.839   0.743  11.982  0.00  0.00    -0.086 HD
ENDROOT
BRANCH  11  15
ATOM     15  C   UNL     1       1.769  -4.167  11.132  0.00  0.00    +0.044 C 
ATOM     16  C   UNL     1       3.298  -4.149  11.066  0.00  0.00    +0.016 C 
ATOM     17  C   UNL     1       3.760  -4.821   9.771  0.00  0.00    +0.001 C 
ATOM     18  C   UNL     1       3.266  -6.269   9.743  0.00  0.00    +0.000 C 
ATOM     19  C   UNL     1       1.737  -6.287   9.810  0.00  0.00    +0.001 C 
ATOM     20  C   UNL     1       1.275  -5.615  11.104  0.00  0.00    +0.016 C 
ATOM     21  C   UNL     1       1.307  -3.495  12.426  0.00  0.00    +0.021 C 
ENDBRANCH  11  15
BRANCH   1  23
ATOM     22  N   UNL     1       3.412   0.221   6.510  0.00  0.00    -0.308 N 
ATOM     23  C   UNL     1       2.791  -0.673   7.304  0.00  0.00    +0.219 C 
ATOM     24  O   UNL     1       2.863  -1.858   7.056  0.00  0.00    -0.275 OA
ATOM     25  H   UNL     1       3.354   1.169   6.708  0.00  0.00    +0.149 HD
BRANCH  22  26
ATOM     26  C   UNL     1       4.175  -0.239   5.347  0.00  0.00    +0.100 C 
ATOM     27  C   UNL     1       3.231  -0.420   4.157  0.00  0.00    +0.033 C 
BRANCH  26  31
ATOM     28  C   UNL     1       7.161   2.655   4.366  0.00  0.00    -0.048 A 
ATOM     29  C   UNL     1       7.455   1.306   4.295  0.00  0.00    +0.004 A 
ATOM     30  C   UNL     1       6.489   0.370   4.612  0.00  0.00    +0.006 A 
ATOM     31  C   UNL     1       5.229   0.782   5.002  0.00  0.00    -0.027 A 
ATOM     32  C   UNL     1       4.934   2.131   5.074  0.00  0.00    +0.006 A 
ATOM     33  C   UNL     1       5.902   3.067   4.760  0.00  0.00    +0.004 A 
BRANCH  28  35
ATOM     34  C   UNL     1       9.006   4.038   5.278  0.00  0.00    +0.009 C 
ATOM     35  C   UNL     1       8.214   3.676   4.020  0.00  0.00    +0.032 C 
ENDBRANCH  28  35
ENDBRANCH  26  31
ENDBRANCH  22  26
ENDBRANCH   1  23
TORSDOF 5
