REMARK  Name = ZINC62401972
REMARK  6 active torsions:
REMARK  status: ('A' for Active; 'I' for Inactive)
REMARK    1  A    between atoms: C_1  and  C_2
REMARK    2  A    between atoms: C_2  and  S_3
REMARK    3  A    between atoms: S_3  and  C_4
REMARK    4  A    between atoms: C_9  and  N_10
REMARK    5  A    between atoms: C_17  and  C_19
REMARK    6  A    between atoms: N_21  and  C_22
REMARK                            x       y       z     vdW  Elec       q    Type
REMARK                         _______ _______ _______ _____ _____    ______ ____
ROOT
ATOM      1  N   UNL     1       1.976  -2.551  -3.459  0.00  0.00    -0.268 N 
ATOM      2  C   UNL     1       2.618  -3.320  -4.361  0.00  0.00    +0.306 C 
ATOM      3  O   UNL     1       2.582  -4.531  -4.263  0.00  0.00    -0.252 OA
ATOM      4  N   UNL     1       3.300  -2.745  -5.372  0.00  0.00    -0.285 N 
ATOM      5  C   UNL     1       3.455  -1.285  -5.436  0.00  0.00    +0.109 C 
ATOM      6  C   UNL     1       4.945  -0.953  -5.565  0.00  0.00    +0.020 C 
ATOM      7  C   UNL     1       5.528  -1.700  -6.766  0.00  0.00    +0.016 C 
ATOM      8  C   UNL     1       5.386  -3.209  -6.549  0.00  0.00    +0.092 C 
ATOM      9  C   UNL     1       3.906  -3.567  -6.428  0.00  0.00    +0.122 C 
ATOM     10  H   UNL     1       1.950  -1.588  -3.573  0.00  0.00    +0.156 HD
ENDROOT
BRANCH   1  16
ATOM     11  C   UNL     1       1.212  -2.433  -1.162  0.00  0.00    +0.029 A 
ATOM     12  C   UNL     1       0.583  -3.024  -0.075  0.00  0.00    +0.016 A 
ATOM     13  C   UNL     1       0.097  -4.314  -0.175  0.00  0.00    +0.001 A 
ATOM     14  C   UNL     1       0.237  -5.020  -1.356  0.00  0.00    +0.002 A 
ATOM     15  C   UNL     1       0.862  -4.440  -2.444  0.00  0.00    +0.024 A 
ATOM     16  C   UNL     1       1.347  -3.144  -2.355  0.00  0.00    +0.048 A 
BRANCH  11  17
ATOM     17  S   UNL     1       1.831  -0.788  -1.038  0.00  0.00    -0.124 S 
BRANCH  17  19
ATOM     18  C   UNL     1       1.919   1.133   0.906  0.00  0.00    +0.015 C 
ATOM     19  C   UNL     1       1.430  -0.295   0.661  0.00  0.00    +0.071 C 
ENDBRANCH  17  19
ENDBRANCH  11  17
ENDBRANCH   1  16
BRANCH   8  20
ATOM     20  C   UNL     1       5.989  -3.944  -7.718  0.00  0.00    +0.218 C 
ATOM     21  O   UNL     1       6.484  -3.323  -8.635  0.00  0.00    -0.275 OA
ATOM     22  N   UNL     1       5.979  -5.291  -7.745  0.00  0.00    -0.312 N 
ATOM     23  H   UNL     1       5.583  -5.788  -7.011  0.00  0.00    +0.149 HD
BRANCH  22  24
ATOM     24  C   UNL     1       6.566  -6.006  -8.881  0.00  0.00    +0.073 C 
ATOM     25  C   UNL     1       5.529  -6.123 -10.000  0.00  0.00    +0.022 C 
ATOM     26  C   UNL     1       6.142  -6.869 -11.187  0.00  0.00    +0.002 C 
ATOM     27  C   UNL     1       6.571  -8.269 -10.742  0.00  0.00    +0.000 C 
ATOM     28  C   UNL     1       7.608  -8.152  -9.623  0.00  0.00    +0.002 C 
ATOM     29  C   UNL     1       6.995  -7.406  -8.436  0.00  0.00    +0.022 C 
ENDBRANCH  22  24
ENDBRANCH   8  20
TORSDOF 5
