REMARK  Name = ZINC02093342
REMARK  6 active torsions:
REMARK  status: ('A' for Active; 'I' for Inactive)
REMARK    1  A    between atoms: C_1  and  C_2
REMARK    2  A    between atoms: C_8  and  C_35
REMARK    3  A    between atoms: C_9  and  O_34
REMARK    4  A    between atoms: C_19  and  C_21
REMARK    5  A    between atoms: C_21  and  N_64
REMARK    6  A    between atoms: N_24  and  C_27
REMARK                            x       y       z     vdW  Elec       q    Type
REMARK                         _______ _______ _______ _____ _____    ______ ____
ROOT
ATOM      1  C   UNL     1       1.167   1.438  -4.999  0.00  0.00    +0.008 C 
ATOM      2  C   UNL     1       2.044   1.250  -3.797  0.00  0.00    -0.001 C 
ATOM      3  C   UNL     1       2.464  -0.234  -3.717  0.00  0.00    +0.008 C 
ATOM      4  C   UNL     1       3.536  -0.309  -2.625  0.00  0.00    +0.027 C 
ATOM      5  C   UNL     1       2.981   0.216  -1.411  0.00  0.00    -0.027 C 
ATOM      6  C   UNL     1       2.099   1.100  -1.370  0.00  0.00    -0.061 C 
ATOM      7  C   UNL     1       1.452   1.829  -2.573  0.00  0.00    +0.018 C 
ATOM      8  C   UNL     1      -0.010   1.710  -2.526  0.00  0.00    +0.132 C 
ATOM      9  C   UNL     1      -0.697   1.675  -1.176  0.00  0.00    +0.071 C 
ATOM     10  C   UNL     1      -0.013   1.122   0.008  0.00  0.00    +0.187 C 
ATOM     11  C   UNL     1       1.454   1.544  -0.004  0.00  0.00    +0.076 C 
ATOM     12  O   UNL     1      -0.631   1.688   1.143  0.00  0.00    -0.460 OA
ATOM     13  C   UNL     1      -1.570   2.601   0.875  0.00  0.00    +0.309 C 
ATOM     14  O   UNL     1      -2.309   3.094   1.594  0.00  0.00    -0.251 OA
ATOM     15  C   UNL     1      -1.417   2.923  -0.671  0.00  0.00    +0.090 C 
ATOM     16  C   UNL     1       1.972   3.316  -2.474  0.00  0.00    +0.018 C 
ENDROOT
BRANCH   8  17
ATOM     17  O   UNL     1      -0.554   2.869  -3.303  0.00  0.00    -0.391 OA
ATOM     18  H   UNL     1      -1.520   2.898  -3.343  0.00  0.00    +0.210 HD
ENDBRANCH   8  17
BRANCH  15  19
ATOM     19  C   UNL     1      -0.621   4.179  -0.807  0.00  0.00    -0.064 C 
BRANCH  19  25
ATOM     20  C   UNL     1      -2.564   5.524  -1.339  0.00  0.00    -0.060 C 
ATOM     21  C   UNL     1      -3.441   6.676  -0.845  0.00  0.00    +0.086 C 
ATOM     22  N   UNL     1      -2.628   7.896  -0.738  0.00  0.00    -0.331 N 
ATOM     23  C   UNL     1      -1.510   7.700   0.195  0.00  0.00    +0.086 C 
ATOM     24  C   UNL     1      -0.632   6.547  -0.300  0.00  0.00    -0.060 C 
ATOM     25  N   UNL     1      -1.456   5.323  -0.382  0.00  0.00    +0.382 N 
ATOM     26  H   UNL     1      -1.849   5.122   0.545  0.00  0.00    -0.082 HD
BRANCH  22  27
ATOM     27  C   UNL     1      -3.413   8.989  -0.357  0.00  0.00    +0.065 A 
ATOM     28  C   UNL     1      -2.849  10.255  -0.276  0.00  0.00    +0.026 A 
ATOM     29  C   UNL     1      -3.627  11.333   0.101  0.00  0.00    +0.002 A 
ATOM     30  C   UNL     1      -4.965  11.153   0.398  0.00  0.00    +0.003 A 
ATOM     31  C   UNL     1      -5.531   9.894   0.318  0.00  0.00    +0.040 A 
ATOM     32  C   UNL     1      -4.761   8.811  -0.063  0.00  0.00    +0.144 A 
ATOM     33  F   UNL     1      -5.315   7.582  -0.147  0.00  0.00    -0.204 F 
ENDBRANCH  22  27
ENDBRANCH  19  25
ENDBRANCH  15  19
TORSDOF 4
