REMARK  Name = ZINC44323442
REMARK  13 active torsions:
REMARK  status: ('A' for Active; 'I' for Inactive)
REMARK    1  A    between atoms: C_1  and  C_2
REMARK    2  A    between atoms: C_2  and  C_3
REMARK    3  A    between atoms: C_2  and  C_4
REMARK    4  A    between atoms: C_2  and  C_5
REMARK    5  A    between atoms: C_7  and  C_15
REMARK    6  A    between atoms: C_8  and  O_14
REMARK    7  A    between atoms: C_9  and  N_11
REMARK    8  A    between atoms: C_15  and  CA_16
REMARK    9  A    between atoms: CA_16  and  C_18
REMARK   10  A    between atoms: CA_16  and  N_21
REMARK   11  A    between atoms: C_22  and  O_24
REMARK   12  A    between atoms: O_24  and  C_25
REMARK   13  A    between atoms: C_25  and  C_26
REMARK                            x       y       z     vdW  Elec       q    Type
REMARK                         _______ _______ _______ _____ _____    ______ ____
ROOT
ATOM      1  CA  UNL     1       0.611  -4.309  -3.716  0.00  0.00    +0.193 C 
ENDROOT
BRANCH   1   2
ATOM      2  N   UNL     1       0.812  -3.797  -5.074  0.00  0.00    -0.267 N 
ATOM      3  C   UNL     1      -0.215  -3.780  -5.946  0.00  0.00    +0.401 C 
ATOM      4  O   UNL     1      -1.308  -4.189  -5.606  0.00  0.00    -0.226 OA
ATOM      5  H   UNL     1       1.684  -3.470  -5.345  0.00  0.00    +0.153 HD
BRANCH   3   6
ATOM      6  O   UNL     1      -0.031  -3.309  -7.194  0.00  0.00    -0.449 OA
BRANCH   6   7
ATOM      7  C   UNL     1      -1.164  -3.320  -8.065  0.00  0.00    +0.246 C 
BRANCH   7   8
ATOM      8  C   UNL     1      -0.764  -2.752  -9.429  0.00  0.00    +0.088 C 
ATOM      9  C   UNL     1       0.185  -3.696 -10.126  0.00  0.00    -0.029 A 
ATOM     10  C   UNL     1       1.436  -4.167  -9.789  0.00  0.00    +0.005 A 
ATOM     11  C   UNL     1       2.097  -5.043 -10.632  0.00  0.00    +0.000 A 
ATOM     12  C   UNL     1       1.504  -5.448 -11.815  0.00  0.00    +0.001 A 
ATOM     13  C   UNL     1       0.252  -4.981 -12.160  0.00  0.00    +0.009 A 
ATOM     14  C   UNL     1      -0.420  -4.097 -11.314  0.00  0.00    -0.014 A 
ATOM     15  C   UNL     1      -1.750  -3.449 -11.435  0.00  0.00    -0.014 A 
ATOM     16  C   UNL     1      -1.975  -2.643 -10.322  0.00  0.00    -0.029 A 
ATOM     17  C   UNL     1      -3.151  -1.933 -10.204  0.00  0.00    +0.005 A 
ATOM     18  C   UNL     1      -4.114  -2.018 -11.194  0.00  0.00    +0.000 A 
ATOM     19  C   UNL     1      -3.899  -2.817 -12.304  0.00  0.00    +0.001 A 
ATOM     20  C   UNL     1      -2.725  -3.531 -12.430  0.00  0.00    +0.009 A 
ENDBRANCH   7   8
ENDBRANCH   6   7
ENDBRANCH   3   6
ENDBRANCH   1   2
BRANCH   1  21
ATOM     21  C   UNL     1       0.810  -5.803  -3.708  0.00  0.00    +0.376 C 
ATOM     22  O   UNL     1       0.513  -6.452  -2.720  0.00  0.00    -0.244 OA
ATOM     23  OXT UNL     1       1.269  -6.362  -4.690  0.00  0.00    -0.244 OA
ENDBRANCH   1  21
BRANCH   1  24
ATOM     24  C   UNL     1       1.620  -3.655  -2.770  0.00  0.00    +0.073 C 
BRANCH  24  27
ATOM     25  C   UNL     1       1.777   0.068  -3.380  0.00  0.00    -0.039 A 
ATOM     26  C   UNL     1       2.038  -1.288  -3.466  0.00  0.00    +0.011 A 
ATOM     27  C   UNL     1       1.336  -2.178  -2.676  0.00  0.00    -0.001 A 
ATOM     28  C   UNL     1       0.370  -1.711  -1.796  0.00  0.00    +0.150 A 
ATOM     29  C   UNL     1       0.111  -0.351  -1.713  0.00  0.00    +0.168 A 
ATOM     30  C   UNL     1       0.818   0.536  -2.501  0.00  0.00    +0.040 A 
BRANCH  25  32
ATOM     31  C   UNL     1       2.071   2.463  -3.952  0.00  0.00    +0.015 C 
ATOM     32  C   UNL     1       2.544   1.037  -4.243  0.00  0.00    -0.013 C 
ATOM     33  C   UNL     1       2.300   0.710  -5.718  0.00  0.00    +0.015 C 
ATOM     34  C   UNL     1       4.038   0.922  -3.935  0.00  0.00    +0.015 C 
ENDBRANCH  25  32
BRANCH  29  35
ATOM     35  N   UNL     1      -0.920   0.150  -0.776  0.00  0.00    +0.060 N 
ATOM     36  O   UNL     1      -1.145   1.336  -0.703  0.00  0.00    -0.126 OA
ATOM     37  O   UNL     1      -1.536  -0.626  -0.084  0.00  0.00    -0.126 OA
ENDBRANCH  29  35
BRANCH  28  38
ATOM     38  O   UNL     1      -0.322  -2.585  -1.019  0.00  0.00    -0.504 OA
ATOM     39  H   UNL     1       0.067  -2.726  -0.145  0.00  0.00    +0.292 HD
ENDBRANCH  28  38
ENDBRANCH  24  27
ENDBRANCH   1  24
TORSDOF 10
