REMARK  Name = ZINC64014951
REMARK  8 active torsions:
REMARK  status: ('A' for Active; 'I' for Inactive)
REMARK    1  A    between atoms: C_1  and  C_2
REMARK    2  A    between atoms: C_2  and  O_3
REMARK    3  A    between atoms: O_3  and  C_4
REMARK    4  A    between atoms: C_9  and  C_10
REMARK    5  A    between atoms: C_25  and  C_27
REMARK    6  A    between atoms: C_27  and  C_28
REMARK    7  A    between atoms: C_28  and  C_29
REMARK    8  A    between atoms: N_32  and  C_34
REMARK                            x       y       z     vdW  Elec       q    Type
REMARK                         _______ _______ _______ _____ _____    ______ ____
ROOT
ATOM      1  C   UNL     1      -3.981  -1.497   0.032  0.00  0.00    +0.136 C 
ATOM      2  C   UNL     1      -4.320  -1.109   1.475  0.00  0.00    +0.131 C 
ATOM      3  C   UNL     1      -4.862  -2.365   2.147  0.00  0.00    -0.035 C 
ATOM      4  C   UNL     1      -4.106  -2.572   3.219  0.00  0.00    -0.001 A 
ATOM      5  C   UNL     1      -4.181  -3.579   4.290  0.00  0.00    +0.010 A 
ATOM      6  C   UNL     1      -3.220  -3.507   5.248  0.00  0.00    +0.001 A 
ATOM      7  C   UNL     1      -2.203  -2.547   5.247  0.00  0.00    +0.002 A 
ATOM      8  C   UNL     1      -2.061  -1.581   4.305  0.00  0.00    +0.026 A 
ATOM      9  C   UNL     1      -3.015  -1.551   3.247  0.00  0.00    +0.043 A 
ATOM     10  N   UNL     1      -3.127  -0.717   2.228  0.00  0.00    -0.375 N 
ATOM     11  C   UNL     1      -5.993  -3.173   1.561  0.00  0.00    +0.052 C 
ATOM     12  C   UNL     1      -5.626  -3.447   0.091  0.00  0.00    +0.113 C 
ATOM     13  N   UNL     1      -5.140  -2.210  -0.529  0.00  0.00    -0.292 N 
ATOM     14  C   UNL     1      -5.760  -1.720  -1.621  0.00  0.00    +0.216 C 
ATOM     15  O   UNL     1      -5.362  -0.696  -2.136  0.00  0.00    -0.276 OA
ATOM     16  H   UNL     1      -2.533   0.017   2.007  0.00  0.00    +0.160 HD
ENDROOT
BRANCH   1  22
ATOM     17  C   UNL     1      -1.616  -1.994  -0.636  0.00  0.00    +0.125 A 
ATOM     18  C   UNL     1      -0.503  -2.823  -0.644  0.00  0.00    +0.046 A 
ATOM     19  C   UNL     1      -0.551  -4.048  -0.009  0.00  0.00    +0.004 A 
ATOM     20  C   UNL     1      -1.707  -4.450   0.636  0.00  0.00    +0.001 A 
ATOM     21  C   UNL     1      -2.817  -3.626   0.645  0.00  0.00    +0.009 A 
ATOM     22  C   UNL     1      -2.772  -2.397   0.016  0.00  0.00    +0.017 A 
BRANCH  17  23
ATOM     23  O   UNL     1      -1.571  -0.788  -1.260  0.00  0.00    -0.492 OA
BRANCH  23  25
ATOM     24  C   UNL     1      -0.486   0.943  -2.552  0.00  0.00    +0.048 C 
ATOM     25  C   UNL     1      -0.347  -0.439  -1.911  0.00  0.00    +0.225 C 
ENDBRANCH  23  25
ENDBRANCH  17  23
ENDBRANCH   1  22
BRANCH  14  26
ATOM     26  C   UNL     1      -6.947  -2.444  -2.202  0.00  0.00    +0.101 C 
BRANCH  26  27
ATOM     27  C   UNL     1      -7.459  -1.683  -3.427  0.00  0.00    +0.047 C 
BRANCH  27  28
ATOM     28  C   UNL     1      -8.647  -2.407  -4.007  0.00  0.00    -0.009 A 
ATOM     29  C   UNL     1      -8.604  -3.409  -4.982  0.00  0.00    +0.138 A 
ATOM     30  N   UNL     1      -9.830  -3.793  -5.229  0.00  0.00    -0.180 NA
ATOM     31  N   UNL     1     -10.693  -3.046  -4.417  0.00  0.00    -0.274 N 
ATOM     32  C   UNL     1      -9.943  -2.207  -3.673  0.00  0.00    +0.111 A 
ATOM     33  C   UNL     1     -12.153  -3.160  -4.377  0.00  0.00    +0.172 C 
ENDBRANCH  27  28
ENDBRANCH  26  27
ENDBRANCH  14  26
TORSDOF 6
