REMARK  Name = ZINC66795943
REMARK  9 active torsions:
REMARK  status: ('A' for Active; 'I' for Inactive)
REMARK    1  A    between atoms: C_1  and  C_2
REMARK    2  A    between atoms: C_2  and  C_3
REMARK    3  A    between atoms: C_2  and  C_4
REMARK    4  A    between atoms: C_4  and  C_5
REMARK    5  A    between atoms: N_9  and  C_13
REMARK    6  A    between atoms: C_13  and  N_14
REMARK    7  A    between atoms: C_17  and  N_20
REMARK    8  A    between atoms: C_21  and  O_23
REMARK    9  A    between atoms: O_23  and  C_24
REMARK                            x       y       z     vdW  Elec       q    Type
REMARK                         _______ _______ _______ _____ _____    ______ ____
ROOT
ATOM      1  N   UNL     1      -4.185  -5.480   0.697  0.00  0.00    +0.391 N 
ATOM      2  C   UNL     1      -4.045  -5.415  -0.763  0.00  0.00    -0.075 C 
ATOM      3  C   UNL     1      -3.844  -6.825  -1.322  0.00  0.00    +0.004 C 
ATOM      4  C   UNL     1      -5.056  -7.690  -0.961  0.00  0.00    +0.073 C 
ATOM      5  C   UNL     1      -5.236  -7.689   0.559  0.00  0.00    +0.004 C 
ATOM      6  C   UNL     1      -5.385  -6.247   1.049  0.00  0.00    -0.075 C 
ATOM      7  H   UNL     1      -3.372  -5.929   1.091  0.00  0.00    -0.079 HD
ENDROOT
BRANCH   4   8
ATOM      8  N   UNL     1      -4.836  -9.061  -1.428  0.00  0.00    -0.278 N 
ATOM      9  C   UNL     1      -5.889  -9.860  -1.690  0.00  0.00    +0.406 C 
ATOM     10  O   UNL     1      -7.020  -9.444  -1.540  0.00  0.00    -0.226 OA
ATOM     11  H   UNL     1      -3.933  -9.393  -1.548  0.00  0.00    +0.152 HD
BRANCH   9  12
ATOM     12  O   UNL     1      -5.686 -11.121  -2.119  0.00  0.00    -0.412 OA
BRANCH  12  13
ATOM     13  C   UNL     1      -6.772 -11.924  -2.273  0.00  0.00    +0.133 A 
ATOM     14  C   UNL     1      -7.046 -12.909  -1.335  0.00  0.00    +0.046 A 
ATOM     15  C   UNL     1      -8.150 -13.725  -1.493  0.00  0.00    +0.004 A 
ATOM     16  C   UNL     1      -8.981 -13.560  -2.586  0.00  0.00    +0.000 A 
ATOM     17  C   UNL     1      -8.710 -12.579  -3.522  0.00  0.00    +0.004 A 
ATOM     18  C   UNL     1      -7.611 -11.757  -3.365  0.00  0.00    +0.046 A 
ENDBRANCH  12  13
ENDBRANCH   9  12
ENDBRANCH   4   8
BRANCH   1  19
ATOM     19  C   UNL     1      -4.300  -4.118   1.237  0.00  0.00    +0.042 C 
BRANCH  19  23
ATOM     20  C   UNL     1      -1.416  -2.093   0.064  0.00  0.00    +0.161 C 
ATOM     21  C   UNL     1      -2.811  -2.657  -0.116  0.00  0.00    +0.242 C 
ATOM     22  O   UNL     1      -3.554  -2.487  -1.059  0.00  0.00    -0.273 OA
ATOM     23  N   UNL     1      -3.054  -3.388   0.990  0.00  0.00    -0.241 N 
ATOM     24  C   UNL     1      -2.016  -3.365   1.835  0.00  0.00    +0.307 C 
ATOM     25  O   UNL     1      -1.999  -3.950   2.900  0.00  0.00    -0.252 OA
ATOM     26  N   UNL     1      -0.991  -2.621   1.372  0.00  0.00    -0.288 N 
ATOM     27  H   UNL     1      -0.141  -2.464   1.812  0.00  0.00    +0.151 HD
BRANCH  20  28
ATOM     28  C   UNL     1      -1.452  -0.563   0.087  0.00  0.00    +0.034 C 
BRANCH  28  30
ATOM     29  C   UNL     1       0.826  -0.370  -0.919  0.00  0.00    +0.007 C 
ATOM     30  C   UNL     1      -0.037  -0.022   0.295  0.00  0.00    -0.015 C 
ATOM     31  C   UNL     1      -0.091   1.498   0.463  0.00  0.00    +0.007 C 
ENDBRANCH  28  30
ENDBRANCH  20  28
ENDBRANCH  19  23
ENDBRANCH   1  19
TORSDOF 7
