REMARK  Name = ZINC36329848
REMARK  9 active torsions:
REMARK  status: ('A' for Active; 'I' for Inactive)
REMARK    1  A    between atoms: C_1  and  C_2
REMARK    2  A    between atoms: C_2  and  O_3
REMARK    3  A    between atoms: O_3  and  C_4
REMARK    4  A    between atoms: C_4  and  C_6
REMARK    5  A    between atoms: C_7  and  C_21
REMARK    6  A    between atoms: C_12  and  C_14
REMARK    7  A    between atoms: C_21  and  N_22
REMARK    8  A    between atoms: N_25  and  C_28
REMARK    9  A    between atoms: C_31  and  O_34
REMARK                            x       y       z     vdW  Elec       q    Type
REMARK                         _______ _______ _______ _____ _____    ______ ____
ROOT
ATOM      1  C   UNL     1      -2.772  -2.412   0.078  0.00  0.00    +0.079 C 
ATOM      2  C   UNL     1      -2.971  -3.736  -0.099  0.00  0.00    +0.038 C 
ATOM      3  N   UNL     1      -4.232  -4.255  -0.168  0.00  0.00    -0.271 N 
ATOM      4  C   UNL     1      -5.345  -3.518  -0.070  0.00  0.00    +0.304 C 
ATOM      5  O   UNL     1      -6.425  -4.071  -0.143  0.00  0.00    -0.252 OA
ATOM      6  N   UNL     1      -5.308  -2.183   0.108  0.00  0.00    -0.288 N 
ATOM      7  C   UNL     1      -3.994  -1.525   0.202  0.00  0.00    +0.144 C 
ATOM      8  H   UNL     1      -4.327  -5.212  -0.295  0.00  0.00    +0.156 HD
ATOM      9  H   UNL     1      -6.127  -1.668   0.177  0.00  0.00    +0.151 HD
ENDROOT
BRANCH   7  10
ATOM     10  C   UNL     1      -3.918  -0.814   1.529  0.00  0.00    -0.022 A 
ATOM     11  C   UNL     1      -4.289  -1.470   2.687  0.00  0.00    +0.007 A 
ATOM     12  C   UNL     1      -4.221  -0.819   3.904  0.00  0.00    +0.020 A 
ATOM     13  C   UNL     1      -3.780   0.492   3.962  0.00  0.00    +0.041 A 
ATOM     14  C   UNL     1      -3.409   1.149   2.803  0.00  0.00    +0.020 A 
ATOM     15  C   UNL     1      -3.473   0.494   1.587  0.00  0.00    +0.007 A 
ATOM     16 CL   UNL     1      -3.694   1.311   5.490  0.00  0.00    -0.084 Cl
ENDBRANCH   7  10
BRANCH   1  17
ATOM     17  C   UNL     1      -1.466  -1.872   0.150  0.00  0.00    +0.339 C 
ATOM     18  O   UNL     1      -1.004  -1.538   1.225  0.00  0.00    -0.245 OA
BRANCH  17  19
ATOM     19  O   UNL     1      -0.732  -1.728  -0.974  0.00  0.00    -0.462 OA
BRANCH  19  21
ATOM     20  C   UNL     1       1.252  -1.091  -2.198  0.00  0.00    +0.048 C 
ATOM     21  C   UNL     1       0.578  -1.177  -0.827  0.00  0.00    +0.229 C 
ENDBRANCH  19  21
ENDBRANCH  17  19
ENDBRANCH   1  17
BRANCH   2  22
ATOM     22  C   UNL     1      -1.783  -4.655  -0.222  0.00  0.00    +0.136 C 
BRANCH  22  23
ATOM     23  N   UNL     1      -1.767  -5.590   0.911  0.00  0.00    -0.294 NA
ATOM     24  C   UNL     1      -1.539  -4.879   2.176  0.00  0.00    +0.103 C 
ATOM     25  C   UNL     1      -1.710  -5.856   3.345  0.00  0.00    +0.120 C 
ATOM     26  N   UNL     1      -0.834  -7.016   3.116  0.00  0.00    -0.327 N 
ATOM     27  C   UNL     1      -0.908  -7.697   1.815  0.00  0.00    +0.120 C 
ATOM     28  C   UNL     1      -0.769  -6.648   0.707  0.00  0.00    +0.103 C 
BRANCH  26  29
ATOM     29  C   UNL     1       0.046  -7.458   4.109  0.00  0.00    +0.030 A 
ATOM     30  C   UNL     1       0.017  -6.880   5.371  0.00  0.00    +0.027 A 
ATOM     31  C   UNL     1       0.886  -7.318   6.351  0.00  0.00    +0.047 A 
ATOM     32  C   UNL     1       1.788  -8.334   6.075  0.00  0.00    +0.117 A 
ATOM     33  C   UNL     1       1.819  -8.912   4.815  0.00  0.00    +0.047 A 
ATOM     34  C   UNL     1       0.946  -8.480   3.835  0.00  0.00    +0.027 A 
BRANCH  32  35
ATOM     35  O   UNL     1       2.643  -8.765   7.041  0.00  0.00    -0.507 OA
ATOM     36  H   UNL     1       2.296  -9.488   7.581  0.00  0.00    +0.292 HD
ENDBRANCH  32  35
ENDBRANCH  26  29
ENDBRANCH  22  23
ENDBRANCH   2  22
TORSDOF 8
