REMARK  Name = ZINC59178345
REMARK  12 active torsions:
REMARK  status: ('A' for Active; 'I' for Inactive)
REMARK    1  A    between atoms: C_1  and  C_2
REMARK    2  A    between atoms: C_5  and  C_8
REMARK    3  A    between atoms: N_10  and  C_11
REMARK    4  A    between atoms: C_11  and  C_12
REMARK    5  A    between atoms: C_12  and  C_13
REMARK    6  A    between atoms: C_16  and  S_19
REMARK    7  A    between atoms: N_17  and  C_18
REMARK    8  A    between atoms: S_19  and  C_20
REMARK    9  A    between atoms: C_20  and  C_21
REMARK   10  A    between atoms: N_23  and  C_24
REMARK   11  A    between atoms: C_28  and  C_31
REMARK   12  A    between atoms: C_29  and  C_30
REMARK                            x       y       z     vdW  Elec       q    Type
REMARK                         _______ _______ _______ _____ _____    ______ ____
ROOT
ATOM      1  C   UNL     1       0.126  -8.421   2.518  0.00  0.00    +0.135 A 
ATOM      2  N   UNL     1      -0.913  -9.207   2.513  0.00  0.00    -0.133 NA
ATOM      3  N   UNL     1      -0.537 -10.436   2.515  0.00  0.00    -0.123 NA
ATOM      4  C   UNL     1       0.774 -10.501   2.522  0.00  0.00    +0.192 A 
ATOM      5  N   UNL     1       1.238  -9.216   2.519  0.00  0.00    -0.309 N 
ATOM      6  C   UNL     1       2.637  -8.781   2.520  0.00  0.00    +0.152 C 
ENDROOT
BRANCH   1   7
ATOM      7  C   UNL     1       0.105  -6.914   2.517  0.00  0.00    +0.095 C 
BRANCH   7   8
ATOM      8  C   UNL     1       0.099  -6.405   1.074  0.00  0.00    +0.112 C 
BRANCH   8  11
ATOM      9  C   UNL     1       0.071  -4.267  -0.094  0.00  0.00    +0.244 C 
ATOM     10  O   UNL     1       0.079  -4.876  -1.147  0.00  0.00    -0.270 OA
ATOM     11  N   UNL     1       0.079  -4.940   1.073  0.00  0.00    -0.311 N 
ATOM     12  H   UNL     1       0.073  -4.455   1.913  0.00  0.00    +0.149 HD
BRANCH   9  17
ATOM     13  C   UNL     1      -0.008   1.487  -0.098  0.00  0.00    +0.044 C 
ATOM     14  C   UNL     1       0.013  -0.020  -0.097  0.00  0.00    -0.050 A 
ATOM     15  C   UNL     1       0.023  -0.709  -1.297  0.00  0.00    +0.004 A 
ATOM     16  C   UNL     1       0.042  -2.089  -1.303  0.00  0.00    +0.013 A 
ATOM     17  C   UNL     1       0.051  -2.789  -0.095  0.00  0.00    +0.037 A 
ATOM     18  C   UNL     1       0.041  -2.087   1.111  0.00  0.00    +0.013 A 
ATOM     19  C   UNL     1       0.027  -0.708   1.103  0.00  0.00    +0.004 A 
ENDBRANCH   9  17
ENDBRANCH   8  11
ENDBRANCH   7   8
ENDBRANCH   1   7
BRANCH   4  20
ATOM     20  S   UNL     1       1.751 -11.967   2.527  0.00  0.00    -0.077 S 
BRANCH  20  21
ATOM     21  C   UNL     1       0.529 -13.308   2.520  0.00  0.00    +0.173 C 
BRANCH  21  22
ATOM     22  C   UNL     1       1.241 -14.636   2.524  0.00  0.00    +0.227 C 
ATOM     23  O   UNL     1       2.453 -14.675   2.531  0.00  0.00    -0.275 OA
ATOM     24  N   UNL     1       0.531 -15.782   2.520  0.00  0.00    -0.285 N 
ATOM     25  H   UNL     1      -0.436 -15.753   2.595  0.00  0.00    +0.155 HD
BRANCH  24  26
ATOM     26  C   UNL     1       1.188 -17.012   2.407  0.00  0.00    +0.037 A 
ATOM     27  C   UNL     1       2.435 -17.082   1.801  0.00  0.00    +0.024 A 
ATOM     28  C   UNL     1       3.082 -18.297   1.691  0.00  0.00    +0.017 A 
ATOM     29  C   UNL     1       2.487 -19.445   2.184  0.00  0.00    +0.021 A 
ATOM     30  C   UNL     1       1.244 -19.379   2.788  0.00  0.00    -0.032 A 
ATOM     31  C   UNL     1       0.596 -18.165   2.905  0.00  0.00    -0.025 A 
ATOM     32  C   UNL     1      -0.755 -18.093   3.569  0.00  0.00    +0.046 C 
ATOM     33  C   UNL     1       0.600 -20.632   3.323  0.00  0.00    +0.045 C 
ATOM     34 BR   UNL     1       3.374 -21.108   2.030  0.00  0.00    -0.050 Br
ENDBRANCH  24  26
ENDBRANCH  21  22
ENDBRANCH  20  21
ENDBRANCH   4  20
TORSDOF 8
