REMARK  Name = ZINC60319196
REMARK  13 active torsions:
REMARK  status: ('A' for Active; 'I' for Inactive)
REMARK    1  A    between atoms: C_1  and  C_2
REMARK    2  A    between atoms: C_5  and  O_8
REMARK    3  A    between atoms: O_8  and  C_9
REMARK    4  A    between atoms: C_9  and  C_10
REMARK    5  A    between atoms: C_12  and  C_15
REMARK    6  A    between atoms: C_15  and  C_16
REMARK    7  A    between atoms: N_18  and  C_19
REMARK    8  A    between atoms: N_18  and  C_24
REMARK    9  A    between atoms: C_19  and  C_20
REMARK   10  A    between atoms: C_20  and  N_21
REMARK   11  A    between atoms: N_21  and  C_22
REMARK   12  A    between atoms: N_21  and  C_23
REMARK   13  A    between atoms: C_24  and  C_25
REMARK                            x       y       z     vdW  Elec       q    Type
REMARK                         _______ _______ _______ _____ _____    ______ ____
ROOT
ATOM      1  C   UNL     1       3.064  -8.794  -0.484  0.00  0.00    +0.222 C 
ATOM      2  O   UNL     1       2.766  -7.798  -1.108  0.00  0.00    -0.275 OA
ATOM      3  N   UNL     1       4.197  -9.462  -0.781  0.00  0.00    -0.299 N 
ENDROOT
BRANCH   1   4
ATOM      4  C   UNL     1       2.169  -9.285   0.625  0.00  0.00    +0.151 C 
BRANCH   4   7
ATOM      5  C   UNL     1       0.090  -6.277   1.043  0.00  0.00    +0.116 A 
ATOM      6  N   UNL     1       1.126  -7.071   0.932  0.00  0.00    -0.245 NA
ATOM      7  C   UNL     1       0.980  -8.369   0.754  0.00  0.00    +0.058 A 
ATOM      8  C   UNL     1      -0.291  -8.842   0.691  0.00  0.00    +0.070 A 
ATOM      9  S   UNL     1      -1.216  -7.330   0.908  0.00  0.00    -0.077 S 
BRANCH   5  10
ATOM     10  C   UNL     1       0.072  -4.785   1.249  0.00  0.00    +0.291 C 
BRANCH  10  11
ATOM     11  O   UNL     1       0.057  -4.129  -0.021  0.00  0.00    -0.485 OA
BRANCH  11  16
ATOM     12  C   UNL     1      -0.018   1.503   0.010  0.00  0.00    +0.044 C 
ATOM     13  C   UNL     1       0.002  -0.004   0.002  0.00  0.00    -0.050 A 
ATOM     14  C   UNL     1       0.006  -0.688  -1.200  0.00  0.00    +0.007 A 
ATOM     15  C   UNL     1       0.024  -2.069  -1.210  0.00  0.00    +0.046 A 
ATOM     16  C   UNL     1       0.039  -2.770  -0.013  0.00  0.00    +0.121 A 
ATOM     17  C   UNL     1       0.036  -2.082   1.191  0.00  0.00    +0.046 A 
ATOM     18  C   UNL     1       0.023  -0.701   1.196  0.00  0.00    +0.007 A 
ENDBRANCH  11  16
ENDBRANCH  10  11
ENDBRANCH   5  10
ENDBRANCH   4   7
ENDBRANCH   1   4
BRANCH   3  19
ATOM     19  C   UNL     1       4.557 -10.665  -0.028  0.00  0.00    +0.089 C 
BRANCH  19  20
ATOM     20  C   UNL     1       3.956 -11.894  -0.711  0.00  0.00    -0.060 C 
BRANCH  20  21
ATOM     21  N   UNL     1       4.318 -13.101   0.045  0.00  0.00    +0.377 N 
ATOM     22  C   UNL     1       3.694 -13.051   1.374  0.00  0.00    -0.097 C 
ATOM     23  C   UNL     1       3.843 -14.290  -0.674  0.00  0.00    -0.097 C 
ATOM     24  H   UNL     1       5.321 -13.147   0.146  0.00  0.00    -0.083 HD
ENDBRANCH  20  21
ENDBRANCH  19  20
ENDBRANCH   3  19
BRANCH   3  25
ATOM     25  C   UNL     1       5.066  -8.984  -1.859  0.00  0.00    +0.142 C 
BRANCH  25  26
ATOM     26  C   UNL     1       6.081  -8.022  -1.297  0.00  0.00    -0.030 A 
ATOM     27  C   UNL     1       5.793  -6.671  -1.237  0.00  0.00    +0.006 A 
ATOM     28  C   UNL     1       6.723  -5.788  -0.721  0.00  0.00    +0.020 A 
ATOM     29  C   UNL     1       7.942  -6.256  -0.265  0.00  0.00    +0.041 A 
ATOM     30  C   UNL     1       8.230  -7.608  -0.326  0.00  0.00    +0.020 A 
ATOM     31  C   UNL     1       7.297  -8.491  -0.836  0.00  0.00    +0.006 A 
ATOM     32 CL   UNL     1       9.111  -5.147   0.382  0.00  0.00    -0.084 Cl
ENDBRANCH  25  26
ENDBRANCH   3  25
TORSDOF 10
