REMARK  Name = ZINC15771336
REMARK  8 active torsions:
REMARK  status: ('A' for Active; 'I' for Inactive)
REMARK    1  A    between atoms: C_1  and  C_2
REMARK    2  A    between atoms: C_2  and  N_3
REMARK    3  A    between atoms: C_4  and  C_28
REMARK    4  A    between atoms: N_5  and  C_22
REMARK    5  A    between atoms: C_6  and  C_16
REMARK    6  A    between atoms: C_8  and  C_9
REMARK    7  A    between atoms: C_8  and  O_15
REMARK    8  A    between atoms: C_33  and  N_34
REMARK                            x       y       z     vdW  Elec       q    Type
REMARK                         _______ _______ _______ _____ _____    ______ ____
ROOT
ATOM      1  N   UNL     1      -0.826   0.877   1.248  0.00  0.00    -0.325 N 
ATOM      2  C   UNL     1      -1.958   0.575   1.958  0.00  0.00    +0.114 C 
ATOM      3  N   UNL     1      -2.176   1.365   2.970  0.00  0.00    -0.274 N 
ATOM      4  C   UNL     1      -1.113   2.377   3.055  0.00  0.00    +0.167 C 
ATOM      5  C   UNL     1      -0.179   2.041   1.875  0.00  0.00    +0.190 C 
ENDROOT
BRANCH   5   6
ATOM      6  C   UNL     1       1.197   1.680   2.371  0.00  0.00    +0.007 A 
ATOM      7  C   UNL     1       2.153   2.665   2.534  0.00  0.00    +0.008 A 
ATOM      8  C   UNL     1       3.415   2.335   2.992  0.00  0.00    +0.000 A 
ATOM      9  C   UNL     1       3.723   1.018   3.280  0.00  0.00    +0.000 A 
ATOM     10  C   UNL     1       2.769   0.033   3.111  0.00  0.00    +0.000 A 
ATOM     11  C   UNL     1       1.506   0.363   2.657  0.00  0.00    +0.008 A 
ENDBRANCH   5   6
BRANCH   4  12
ATOM     12  C   UNL     1      -0.373   2.256   4.362  0.00  0.00    -0.022 A 
ATOM     13  C   UNL     1      -0.110   1.008   4.895  0.00  0.00    +0.005 A 
ATOM     14  C   UNL     1       0.573   0.898   6.092  0.00  0.00    +0.000 A 
ATOM     15  C   UNL     1       0.984   2.036   6.761  0.00  0.00    +0.000 A 
ATOM     16  C   UNL     1       0.716   3.284   6.230  0.00  0.00    +0.000 A 
ATOM     17  C   UNL     1       0.038   3.394   5.031  0.00  0.00    +0.005 A 
ENDBRANCH   4  12
BRANCH   3  18
ATOM     18  C   UNL     1      -3.237   1.268   3.828  0.00  0.00    +0.036 A 
ATOM     19  C   UNL     1      -4.071   2.368   4.040  0.00  0.00    +0.023 A 
ATOM     20  C   UNL     1      -5.142   2.261   4.902  0.00  0.00    +0.002 A 
ATOM     21  C   UNL     1      -5.386   1.071   5.564  0.00  0.00    +0.000 A 
ATOM     22  C   UNL     1      -4.560  -0.022   5.363  0.00  0.00    +0.002 A 
ATOM     23  C   UNL     1      -3.488   0.069   4.500  0.00  0.00    +0.023 A 
ENDBRANCH   3  18
BRANCH   2  24
ATOM     24  C   UNL     1      -2.853  -0.548   1.607  0.00  0.00    +0.043 A 
ATOM     25  C   UNL     1      -2.383  -1.861   1.662  0.00  0.00    +0.013 A 
ATOM     26  C   UNL     1      -3.225  -2.905   1.338  0.00  0.00    +0.001 A 
ATOM     27  C   UNL     1      -4.529  -2.652   0.949  0.00  0.00    +0.002 A 
ATOM     28  C   UNL     1      -4.998  -1.352   0.888  0.00  0.00    +0.033 A 
ATOM     29  C   UNL     1      -4.169  -0.299   1.215  0.00  0.00    +0.137 A 
BRANCH  29  30
ATOM     30  N   UNL     1      -4.673   1.091   1.148  0.00  0.00    +0.057 N 
ATOM     31  O   UNL     1      -5.851   1.301   0.922  0.00  0.00    -0.126 OA
ATOM     32  O   UNL     1      -3.910   2.025   1.319  0.00  0.00    -0.126 OA
ENDBRANCH  29  30
ENDBRANCH   2  24
BRANCH   1  34
ATOM     33  C   UNL     1      -1.035   0.701  -1.183  0.00  0.00    +0.027 C 
ATOM     34  C   UNL     1      -0.339   0.159   0.068  0.00  0.00    +0.117 C 
ENDBRANCH   1  34
BRANCH   5  35
ATOM     35  O   UNL     1      -0.116   3.136   0.960  0.00  0.00    -0.364 OA
ATOM     36  H   UNL     1       0.340   4.087   1.271  0.00  0.00    +0.213 HD
ENDBRANCH   5  35
TORSDOF 7
