REMARK  Name = ZINC61855827
REMARK  5 active torsions:
REMARK  status: ('A' for Active; 'I' for Inactive)
REMARK    1  A    between atoms: C_3  and  C_17
REMARK    2  A    between atoms: C_6  and  N_7
REMARK    3  A    between atoms: C_11  and  C_14
REMARK    4  A    between atoms: C_14  and  O_15
REMARK    5  A    between atoms: N_18  and  O_19
REMARK                            x       y       z     vdW  Elec       q    Type
REMARK                         _______ _______ _______ _____ _____    ______ ____
ROOT
ATOM      1  C   UNL     1       1.128  -0.588   0.321  0.00  0.00    +0.024 A 
ATOM      2  C   UNL     1       2.335   0.069   0.228  0.00  0.00    +0.014 A 
ATOM      3  C   UNL     1       2.363   1.456   0.076  0.00  0.00    +0.036 A 
ATOM      4  C   UNL     1       1.166   2.175   0.020  0.00  0.00    +0.053 A 
ATOM      5  C   UNL     1      -0.039   1.512   0.114  0.00  0.00    +0.043 A 
ATOM      6  C   UNL     1      -0.063   0.129   0.265  0.00  0.00    +0.031 A 
ATOM      7 CL   UNL     1       1.196   3.900  -0.167  0.00  0.00    -0.083 Cl
ENDROOT
BRANCH   6   8
ATOM      8  N   UNL     1      -1.282  -0.539   0.359  0.00  0.00    -0.330 N 
ATOM      9  C   UNL     1      -2.548   0.183   0.169  0.00  0.00    +0.105 C 
ATOM     10  C   UNL     1      -3.370  -0.537  -0.904  0.00  0.00    +0.019 C 
ATOM     11  C   UNL     1      -3.537  -2.007  -0.512  0.00  0.00    +0.009 C 
ATOM     12  C   UNL     1      -2.162  -2.674  -0.428  0.00  0.00    +0.032 C 
ATOM     13  C   UNL     1      -1.327  -1.979   0.645  0.00  0.00    +0.110 C 
BRANCH  12  14
ATOM     14  C   UNL     1      -2.333  -4.152  -0.069  0.00  0.00    +0.160 C 
BRANCH  14  15
ATOM     15  O   UNL     1      -3.014  -4.824  -1.129  0.00  0.00    -0.395 OA
ATOM     16  H   UNL     1      -3.157  -5.767  -0.970  0.00  0.00    +0.209 HD
ENDBRANCH  14  15
ENDBRANCH  12  14
ENDBRANCH   6   8
BRANCH   3  17
ATOM     17  C   UNL     1       3.658   2.164  -0.024  0.00  0.00    +0.164 C 
ATOM     18  N   UNL     1       4.515   1.827  -0.944  0.00  0.00    -0.071 NA
ATOM     19  N   UNL     1       3.958   3.186   0.861  0.00  0.00    -0.340 N 
ATOM     20  H   UNL     1       3.320   3.437   1.547  0.00  0.00    +0.144 HD
ATOM     21  H   UNL     1       4.807   3.650   0.796  0.00  0.00    +0.144 HD
BRANCH  18  22
ATOM     22  O   UNL     1       4.164   0.861  -1.918  0.00  0.00    -0.408 OA
ATOM     23  H   UNL     1       4.834   0.732  -2.603  0.00  0.00    +0.328 HD
ENDBRANCH  18  22
ENDBRANCH   3  17
TORSDOF 5
