REMARK  Name = ZINC20176193
REMARK  10 active torsions:
REMARK  status: ('A' for Active; 'I' for Inactive)
REMARK    1  A    between atoms: C_1  and  C_2
REMARK    2  A    between atoms: C_2  and  O_3
REMARK    3  A    between atoms: O_3  and  C_4
REMARK    4  A    between atoms: C_7  and  C_10
REMARK    5  A    between atoms: N_11  and  N_12
REMARK    6  A    between atoms: C_15  and  S_18
REMARK    7  A    between atoms: S_18  and  C_19
REMARK    8  A    between atoms: C_19  and  C_20
REMARK    9  A    between atoms: N_22  and  C_23
REMARK   10  A    between atoms: C_28  and  C_29
REMARK                            x       y       z     vdW  Elec       q    Type
REMARK                         _______ _______ _______ _____ _____    ______ ____
ROOT
ATOM      1  N   UNL     1      -4.837   0.934  -0.026  0.00  0.00    -0.205 N 
ATOM      2  C   UNL     1      -6.046   1.614  -0.009  0.00  0.00    +0.232 A 
ATOM      3  N   UNL     1      -7.289   1.044   0.004  0.00  0.00    -0.186 NA
ATOM      4  C   UNL     1      -8.214   2.049   0.021  0.00  0.00    +0.211 A 
ATOM      5  N   UNL     1      -7.571   3.192   0.018  0.00  0.00    -0.144 NA
ATOM      6  N   UNL     1      -6.197   2.916   0.004  0.00  0.00    -0.245 N 
ATOM      7  H   UNL     1      -4.825  -0.166  -0.031  0.00  0.00    +0.177 HD
ATOM      8  H   UNL     1      -5.315   3.572   0.003  0.00  0.00    +0.192 HD
ENDROOT
BRANCH   1  10
ATOM      9  C   UNL     1      -2.500   1.011  -0.055  0.00  0.00    +0.138 C 
ATOM     10  N   UNL     1      -3.632   1.648  -0.038  0.00  0.00    -0.188 NA
BRANCH   9  14
ATOM     11  C   UNL     1       1.153   3.175  -0.098  0.00  0.00    +0.121 A 
ATOM     12  C   UNL     1       1.171   1.786  -0.103  0.00  0.00    +0.046 A 
ATOM     13  C   UNL     1      -0.013   1.079  -0.085  0.00  0.00    +0.013 A 
ATOM     14  C   UNL     1      -1.232   1.762  -0.068  0.00  0.00    -0.005 A 
ATOM     15  C   UNL     1      -1.244   3.160  -0.056  0.00  0.00    +0.013 A 
ATOM     16  C   UNL     1      -0.056   3.858  -0.075  0.00  0.00    +0.046 A 
BRANCH  11  17
ATOM     17  O   UNL     1       2.321   3.867  -0.117  0.00  0.00    -0.492 OA
BRANCH  17  19
ATOM     18  C   UNL     1       3.638   5.894  -0.133  0.00  0.00    +0.048 C 
ATOM     19  C   UNL     1       2.231   5.293  -0.110  0.00  0.00    +0.225 C 
ENDBRANCH  17  19
ENDBRANCH  11  17
ENDBRANCH   9  14
ENDBRANCH   1  10
BRANCH   4  20
ATOM     20  S   UNL     1      -9.964   1.845   0.041  0.00  0.00    -0.075 S 
BRANCH  20  21
ATOM     21  C   UNL     1     -10.603   3.542   0.057  0.00  0.00    +0.173 C 
BRANCH  21  22
ATOM     22  C   UNL     1     -12.110   3.512   0.075  0.00  0.00    +0.227 C 
ATOM     23  O   UNL     1     -12.695   2.449   0.078  0.00  0.00    -0.275 OA
ATOM     24  N   UNL     1     -12.807   4.665   0.090  0.00  0.00    -0.285 N 
ATOM     25  H   UNL     1     -12.280   5.626   0.179  0.00  0.00    +0.155 HD
BRANCH  24  26
ATOM     26  C   UNL     1     -14.203   4.639  -0.010  0.00  0.00    +0.036 A 
ATOM     27  C   UNL     1     -14.838   3.566  -0.620  0.00  0.00    +0.024 A 
ATOM     28  C   UNL     1     -16.215   3.543  -0.717  0.00  0.00    +0.017 A 
ATOM     29  C   UNL     1     -16.963   4.589  -0.206  0.00  0.00    +0.018 A 
ATOM     30  C   UNL     1     -16.334   5.661   0.402  0.00  0.00    +0.020 A 
ATOM     31  C   UNL     1     -14.956   5.686   0.506  0.00  0.00    -0.028 A 
ATOM     32  C   UNL     1     -14.271   6.850   1.175  0.00  0.00    +0.046 C 
ATOM     33 BR   UNL     1     -18.849   4.555  -0.340  0.00  0.00    -0.050 Br
ENDBRANCH  24  26
ENDBRANCH  21  22
ENDBRANCH  20  21
ENDBRANCH   4  20
TORSDOF 8
