REMARK  Name = ZINC21484990
REMARK  9 active torsions:
REMARK  status: ('A' for Active; 'I' for Inactive)
REMARK    1  A    between atoms: C_1  and  C_2
REMARK    2  A    between atoms: C_4  and  C_13
REMARK    3  A    between atoms: C_6  and  S_9
REMARK    4  A    between atoms: C_7  and  C_8
REMARK    5  A    between atoms: S_9  and  N_12
REMARK    6  A    between atoms: C_13  and  O_15
REMARK    7  A    between atoms: O_15  and  C_16
REMARK    8  A    between atoms: C_16  and  C_17
REMARK    9  A    between atoms: C_17  and  C_19
REMARK                            x       y       z     vdW  Elec       q    Type
REMARK                         _______ _______ _______ _____ _____    ______ ____
ROOT
ATOM      1  C   UNL     1      -3.226   2.586   5.668  0.00  0.00    +0.044 C 
ATOM      2  C   UNL     1      -2.649   3.513   4.629  0.00  0.00    -0.045 A 
ATOM      3  C   UNL     1      -2.021   2.993   3.516  0.00  0.00    +0.018 A 
ATOM      4  C   UNL     1      -1.482   3.853   2.558  0.00  0.00    +0.061 A 
ATOM      5  C   UNL     1      -1.592   5.235   2.728  0.00  0.00    +0.043 A 
ATOM      6  C   UNL     1      -2.228   5.741   3.842  0.00  0.00    +0.109 A 
ATOM      7  C   UNL     1      -2.755   4.882   4.791  0.00  0.00    -0.021 A 
ATOM      8  C   UNL     1      -3.448   5.442   6.007  0.00  0.00    +0.046 C 
ENDROOT
BRANCH   6   9
ATOM      9  S   UNL     1      -2.368   7.484   4.059  0.00  0.00    +0.056 S 
ATOM     10  O   UNL     1      -1.943   7.763   5.386  0.00  0.00    -0.153 OA
ATOM     11  O   UNL     1      -1.762   8.084   2.923  0.00  0.00    -0.153 OA
BRANCH   9  12
ATOM     12  N   UNL     1      -3.979   7.858   3.990  0.00  0.00    -0.204 NA
ATOM     13  H   UNL     1      -4.110   8.942   4.122  0.00  0.00    +0.144 HD
ATOM     14  H   UNL     1      -4.514   7.324   4.790  0.00  0.00    +0.144 HD
ENDBRANCH   9  12
ENDBRANCH   6   9
BRANCH   4  15
ATOM     15  C   UNL     1      -0.803   3.304   1.366  0.00  0.00    +0.340 C 
ATOM     16  O   UNL     1      -0.339   4.055   0.531  0.00  0.00    -0.245 OA
BRANCH  15  17
ATOM     17  O   UNL     1      -0.698   1.971   1.205  0.00  0.00    -0.453 OA
BRANCH  17  18
ATOM     18  C   UNL     1      -0.018   1.503   0.010  0.00  0.00    +0.312 C 
BRANCH  18  19
ATOM     19  C   UNL     1       0.002  -0.004   0.002  0.00  0.00    +0.207 C 
ATOM     20  O   UNL     1      -0.507  -0.623   0.915  0.00  0.00    -0.288 OA
BRANCH  19  21
ATOM     21  C   UNL     1       0.612  -0.695  -1.066  0.00  0.00    +0.059 A 
ATOM     22  C   UNL     1       0.739  -2.067  -1.264  0.00  0.00    +0.020 A 
ATOM     23  C   UNL     1       1.385  -2.474  -2.401  0.00  0.00    +0.028 A 
ATOM     24  C   UNL     1       1.864  -1.537  -3.266  0.00  0.00    +0.079 A 
ATOM     25  S   UNL     1       1.416  -0.039  -2.517  0.00  0.00    -0.074 S 
ATOM     26 CL   UNL     1       2.711  -1.783  -4.761  0.00  0.00    -0.076 Cl
ENDBRANCH  19  21
ENDBRANCH  18  19
ENDBRANCH  17  18
ENDBRANCH  15  17
ENDBRANCH   4  15
TORSDOF 7
