REMARK  Name = ZINC02583452
REMARK  7 active torsions:
REMARK  status: ('A' for Active; 'I' for Inactive)
REMARK    1  A    between atoms: C_13  and  C_14
REMARK    2  A    between atoms: C_14  and  O_15
REMARK    3  A    between atoms: O_15  and  C_16
REMARK    4  A    between atoms: N_18  and  CA_19
REMARK    5  A    between atoms: CA_19  and  C_21
REMARK    6  A    between atoms: CA_19  and  C_28
REMARK    7  A    between atoms: C_21  and  C_22
REMARK                            x       y       z     vdW  Elec       q    Type
REMARK                         _______ _______ _______ _____ _____    ______ ____
ROOT
ATOM      1  C   UNL     1      -3.997   0.727  -1.817  0.00  0.00    +0.401 C 
ATOM      2  O   UNL     1      -4.977   1.223  -1.296  0.00  0.00    -0.226 OA
ATOM      3  N   UNL     1      -3.012   1.518  -2.288  0.00  0.00    -0.268 N 
ATOM      4  H   UNL     1      -2.230   1.122  -2.703  0.00  0.00    +0.153 HD
ENDROOT
BRANCH   1   5
ATOM      5  O   UNL     1      -3.895  -0.611  -1.923  0.00  0.00    -0.449 OA
BRANCH   5   6
ATOM      6  C   UNL     1      -4.994  -1.400  -1.395  0.00  0.00    +0.246 C 
BRANCH   6  19
ATOM      7  C   UNL     1      -5.266  -4.200  -5.612  0.00  0.00    +0.001 A 
ATOM      8  C   UNL     1      -4.269  -3.261  -5.420  0.00  0.00    +0.000 A 
ATOM      9  C   UNL     1      -4.010  -2.773  -4.151  0.00  0.00    +0.005 A 
ATOM     10  C   UNL     1      -4.747  -3.222  -3.075  0.00  0.00    -0.029 A 
ATOM     11  C   UNL     1      -5.753  -4.167  -3.259  0.00  0.00    -0.014 A 
ATOM     12  C   UNL     1      -6.008  -4.655  -4.542  0.00  0.00    +0.009 A 
ATOM     13  C   UNL     1      -6.385  -4.476  -1.952  0.00  0.00    -0.014 A 
ATOM     14  C   UNL     1      -7.423  -5.347  -1.616  0.00  0.00    +0.009 A 
ATOM     15  C   UNL     1      -7.834  -5.455  -0.304  0.00  0.00    +0.001 A 
ATOM     16  C   UNL     1      -7.220  -4.704   0.683  0.00  0.00    +0.000 A 
ATOM     17  C   UNL     1      -6.190  -3.839   0.357  0.00  0.00    +0.005 A 
ATOM     18  C   UNL     1      -5.774  -3.724  -0.953  0.00  0.00    -0.029 A 
ATOM     19  C   UNL     1      -4.701  -2.887  -1.605  0.00  0.00    +0.088 C 
ENDBRANCH   6  19
ENDBRANCH   5   6
ENDBRANCH   1   5
BRANCH   3  20
ATOM     20  CA  UNL     1      -3.123   2.974  -2.171  0.00  0.00    +0.189 C 
BRANCH  20  21
ATOM     21  C   UNL     1      -3.914   3.512  -3.336  0.00  0.00    +0.376 C 
ATOM     22  O   UNL     1      -4.342   2.757  -4.176  0.00  0.00    -0.244 OA
ATOM     23  OXT UNL     1      -4.144   4.830  -3.439  0.00  0.00    -0.244 OA
ENDBRANCH  20  21
BRANCH  20  24
ATOM     24  C   UNL     1      -1.724   3.594  -2.176  0.00  0.00    +0.035 C 
BRANCH  24  25
ATOM     25  C   UNL     1      -0.964   3.147  -0.925  0.00  0.00    -0.026 C 
ATOM     26  C   UNL     1      -1.641   3.728   0.319  0.00  0.00    -0.000 C 
ATOM     27  C   UNL     1      -0.841   3.325   1.561  0.00  0.00    -0.019 C 
ATOM     28  C   UNL     1       0.599   3.823   1.418  0.00  0.00    -0.083 C 
ATOM     29  C   UNL     1       0.479   3.650  -0.996  0.00  0.00    -0.079 C 
ATOM     30  N   UNL     1       1.212   3.231   0.214  0.00  0.00    +0.379 N 
ATOM     31  H   UNL     1       1.185   2.207   0.289  0.00  0.00    -0.086 HD
ATOM     32  H   UNL     1       2.188   3.543   0.143  0.00  0.00    -0.086 HD
ENDBRANCH  24  25
ENDBRANCH  20  24
ENDBRANCH   3  20
TORSDOF 7
