REMARK  Name = ZINC37138074
REMARK  4 active torsions:
REMARK  status: ('A' for Active; 'I' for Inactive)
REMARK    1  A    between atoms: C_3  and  N_12
REMARK    2  A    between atoms: C_6  and  S_7
REMARK    3  A    between atoms: S_7  and  N_10
REMARK    4  A    between atoms: N_12  and  C_13
REMARK                            x       y       z     vdW  Elec       q    Type
REMARK                         _______ _______ _______ _____ _____    ______ ____
ROOT
ATOM      1  C   UNL     1      -0.017   1.378   0.010  0.00  0.00    +0.030 A 
ATOM      2  C   UNL     1       1.169   2.087   0.002  0.00  0.00    +0.026 A 
ATOM      3  C   UNL     1       2.381   1.410  -0.013  0.00  0.00    +0.042 A 
ATOM      4  C   UNL     1       2.397   0.020  -0.021  0.00  0.00    +0.041 A 
ATOM      5  C   UNL     1       1.207  -0.682  -0.013  0.00  0.00    +0.045 A 
ATOM      6  C   UNL     1       0.002  -0.004   0.002  0.00  0.00    +0.106 A 
ATOM      7 BR   UNL     1       4.044  -0.908  -0.042  0.00  0.00    -0.048 Br
ENDROOT
BRANCH   6   8
ATOM      8  S   UNL     1      -1.513  -0.904   0.012  0.00  0.00    +0.056 S 
ATOM      9  O   UNL     1      -1.221  -2.185   0.553  0.00  0.00    -0.153 OA
ATOM     10  O   UNL     1      -2.493  -0.043   0.577  0.00  0.00    -0.153 OA
BRANCH   8  11
ATOM     11  N   UNL     1      -1.949  -1.145  -1.567  0.00  0.00    -0.204 NA
ATOM     12  H   UNL     1      -2.458  -1.933  -1.815  0.00  0.00    +0.144 HD
ATOM     13  H   UNL     1      -1.696  -0.499  -2.245  0.00  0.00    +0.144 HD
ENDBRANCH   8  11
ENDBRANCH   6   8
BRANCH   3  14
ATOM     14  N   UNL     1       3.582   2.124  -0.021  0.00  0.00    -0.342 N 
ATOM     15  H   UNL     1       4.428   1.649  -0.032  0.00  0.00    +0.146 HD
BRANCH  14  16
ATOM     16  C   UNL     1       3.564   3.589  -0.014  0.00  0.00    +0.057 C 
ATOM     17  C   UNL     1       3.424   4.107  -1.447  0.00  0.00    -0.056 C 
ATOM     18  N   UNL     1       4.581   4.936  -1.795  0.00  0.00    +0.381 N 
ATOM     19  C   UNL     1       4.664   6.102  -0.913  0.00  0.00    -0.078 C 
ATOM     20  C   UNL     1       4.844   5.650   0.538  0.00  0.00    -0.014 C 
ATOM     21  C   UNL     1       4.876   4.116   0.581  0.00  0.00    +0.004 C 
ATOM     22  C   UNL     1       6.035   3.634  -0.301  0.00  0.00    -0.014 C 
ATOM     23  C   UNL     1       5.816   4.151  -1.730  0.00  0.00    -0.078 C 
ATOM     24  H   UNL     1       4.463   5.268  -2.740  0.00  0.00    -0.082 HD
ENDBRANCH  14  16
ENDBRANCH   3  14
TORSDOF 4
