REMARK  Name = ZINC59502551
REMARK  12 active torsions:
REMARK  status: ('A' for Active; 'I' for Inactive)
REMARK    1  A    between atoms: C_1  and  C_2
REMARK    2  A    between atoms: C_2  and  C_3
REMARK    3  A    between atoms: C_2  and  C_4
REMARK    4  A    between atoms: C_2  and  C_5
REMARK    5  A    between atoms: C_8  and  C_11
REMARK    6  A    between atoms: C_11  and  S_12
REMARK    7  A    between atoms: S_12  and  C_13
REMARK    8  A    between atoms: C_18  and  N_22
REMARK    9  A    between atoms: C_23  and  C_24
REMARK   10  A    between atoms: C_28  and  O_31
REMARK   11  A    between atoms: C_29  and  O_30
REMARK   12  A    between atoms: O_31  and  C_32
REMARK                            x       y       z     vdW  Elec       q    Type
REMARK                         _______ _______ _______ _____ _____    ______ ____
ROOT
ATOM      1  C   UNL     1       3.348  -1.370  -7.451  0.00  0.00    +0.136 A 
ATOM      2  N   UNL     1       4.012  -2.503  -7.507  0.00  0.00    -0.233 NA
ATOM      3  C   UNL     1       4.638  -2.923  -8.627  0.00  0.00    +0.080 A 
ATOM      4  C   UNL     1       5.381  -4.113  -8.815  0.00  0.00    +0.031 A 
ATOM      5  C   UNL     1       5.958  -4.397 -10.011  0.00  0.00    +0.030 A 
ATOM      6  C   UNL     1       5.843  -3.527 -11.103  0.00  0.00    +0.065 A 
ATOM      7  C   UNL     1       5.116  -2.343 -10.952  0.00  0.00    +0.045 A 
ATOM      8  C   UNL     1       4.536  -2.061  -9.745  0.00  0.00    +0.042 A 
ATOM      9  S   UNL     1       3.547  -0.729  -9.107  0.00  0.00    -0.061 S 
ENDROOT
BRANCH   6  10
ATOM     10  N   UNL     1       6.433  -3.832 -12.299  0.00  0.00    -0.255 NA
ATOM     11  C   UNL     1       7.658  -4.279 -12.326  0.00  0.00    +0.123 C 
BRANCH  11  12
ATOM     12  C   UNL     1       8.292  -4.607 -13.611  0.00  0.00    +0.038 A 
ATOM     13  C   UNL     1       9.605  -5.093 -13.644  0.00  0.00    +0.013 A 
ATOM     14  C   UNL     1      10.195  -5.399 -14.851  0.00  0.00    +0.004 A 
ATOM     15  C   UNL     1       9.497  -5.229 -16.035  0.00  0.00    +0.049 A 
ATOM     16  C   UNL     1       8.197  -4.749 -16.019  0.00  0.00    +0.162 A 
ATOM     17  C   UNL     1       7.584  -4.441 -14.809  0.00  0.00    +0.167 A 
BRANCH  17  18
ATOM     18  O   UNL     1       6.309  -3.976 -14.789  0.00  0.00    -0.503 OA
ATOM     19  H   UNL     1       6.240  -3.013 -14.846  0.00  0.00    +0.292 HD
ENDBRANCH  17  18
BRANCH  16  20
ATOM     20  O   UNL     1       7.519  -4.584 -17.186  0.00  0.00    -0.491 OA
ATOM     21  C   UNL     1       8.207  -4.926 -18.390  0.00  0.00    +0.277 C 
ENDBRANCH  16  20
ENDBRANCH  11  12
ENDBRANCH   6  10
BRANCH   1  22
ATOM     22  S   UNL     1       2.476  -0.666  -6.091  0.00  0.00    -0.094 S 
BRANCH  22  23
ATOM     23  C   UNL     1       2.707  -1.868  -4.752  0.00  0.00    +0.111 C 
BRANCH  23  27
ATOM     24  C   UNL     1       0.707  -0.490  -1.238  0.00  0.00    -0.042 A 
ATOM     25  C   UNL     1       0.036  -1.284  -2.148  0.00  0.00    +0.004 A 
ATOM     26  C   UNL     1       0.683  -1.730  -3.286  0.00  0.00    +0.005 A 
ATOM     27  C   UNL     1       2.001  -1.381  -3.513  0.00  0.00    -0.037 A 
ATOM     28  C   UNL     1       2.672  -0.586  -2.603  0.00  0.00    +0.005 A 
ATOM     29  C   UNL     1       2.024  -0.137  -1.467  0.00  0.00    +0.004 A 
BRANCH  24  31
ATOM     30  C   UNL     1      -0.019   1.526   0.010  0.00  0.00    +0.015 C 
ATOM     31  C   UNL     1       0.002  -0.004   0.002  0.00  0.00    -0.013 C 
ATOM     32  C   UNL     1       0.742  -0.511   1.242  0.00  0.00    +0.015 C 
ATOM     33  C   UNL     1      -1.433  -0.534   0.013  0.00  0.00    +0.015 C 
ENDBRANCH  24  31
ENDBRANCH  23  27
ENDBRANCH  22  23
ENDBRANCH   1  22
TORSDOF 8
