REMARK  Name = ZINC04612020
REMARK  9 active torsions:
REMARK  status: ('A' for Active; 'I' for Inactive)
REMARK    1  A    between atoms: C_1  and  C_2
REMARK    2  A    between atoms: C_2  and  O_4
REMARK    3  A    between atoms: O_4  and  C_5
REMARK    4  A    between atoms: C_5  and  C_30
REMARK    5  A    between atoms: C_10  and  C_29
REMARK    6  A    between atoms: C_12  and  O_28
REMARK    7  A    between atoms: C_26  and  C_27
REMARK    8  A    between atoms: C_30  and  C_32
REMARK    9  A    between atoms: C_32  and  O_33
REMARK                            x       y       z     vdW  Elec       q    Type
REMARK                         _______ _______ _______ _____ _____    ______ ____
ROOT
ATOM      1  C   UNL     1       0.014   1.378  -0.007  0.00  0.00    +0.179 C 
ATOM      2  C   UNL     1       1.485   1.860  -0.084  0.00  0.00    +0.057 C 
ATOM      3  C   UNL     1       1.858   2.361   1.340  0.00  0.00    +0.009 C 
ATOM      4  C   UNL     1       0.725   1.794   2.207  0.00  0.00    +0.003 C 
ATOM      5  C   UNL     1      -0.504   2.010   1.305  0.00  0.00    +0.020 C 
ATOM      6  C   UNL     1      -1.730   1.357   1.882  0.00  0.00    +0.043 C 
ATOM      7  C   UNL     1      -1.787   1.505   3.414  0.00  0.00    +0.120 C 
ATOM      8  C   UNL     1      -0.910   2.645   3.899  0.00  0.00    +0.035 C 
ATOM      9  C   UNL     1       0.562   2.351   3.589  0.00  0.00    -0.000 C 
ATOM     10  C   UNL     1       1.427   3.582   3.847  0.00  0.00    +0.008 C 
ATOM     11  C   UNL     1       1.343   3.941   5.342  0.00  0.00    +0.032 C 
ATOM     12  C   UNL     1      -0.129   4.127   5.665  0.00  0.00    -0.056 C 
ATOM     13  C   UNL     1      -0.537   5.290   6.148  0.00  0.00    +0.051 C 
ATOM     14  C   UNL     1      -1.966   5.521   6.422  0.00  0.00    +0.179 C 
ATOM     15  O   UNL     1      -2.370   6.622   6.751  0.00  0.00    -0.288 OA
ATOM     16  C   UNL     1      -2.897   4.387   6.284  0.00  0.00    +0.047 C 
ATOM     17  C   UNL     1      -2.453   3.225   5.822  0.00  0.00    -0.012 C 
ATOM     18  C   UNL     1      -1.056   2.973   5.380  0.00  0.00    +0.013 C 
ATOM     19  C   UNL     1      -0.573   1.782   6.207  0.00  0.00    +0.020 C 
ATOM     20  C   UNL     1      -0.757   3.487   0.994  0.00  0.00    +0.016 C 
ENDROOT
BRANCH   7  21
ATOM     21  O   UNL     1      -3.155   1.734   3.776  0.00  0.00    -0.391 OA
ATOM     22  H   UNL     1      -3.760   1.036   3.490  0.00  0.00    +0.210 HD
ENDBRANCH   7  21
BRANCH   1  23
ATOM     23  C   UNL     1      -0.778   1.895  -1.173  0.00  0.00    +0.202 C 
ATOM     24  O   UNL     1      -0.387   2.857  -1.790  0.00  0.00    -0.291 OA
BRANCH  23  25
ATOM     25  C   UNL     1      -2.062   1.215  -1.573  0.00  0.00    +0.234 C 
BRANCH  25  26
ATOM     26  O   UNL     1      -2.566   1.813  -2.769  0.00  0.00    -0.387 OA
ATOM     27  H   UNL     1      -3.392   1.424  -3.086  0.00  0.00    +0.210 HD
ENDBRANCH  25  26
ENDBRANCH  23  25
ENDBRANCH   1  23
BRANCH   1  28
ATOM     28  O   UNL     1      -0.048  -0.065   0.073  0.00  0.00    -0.450 OA
BRANCH  28  30
ATOM     29  C   UNL     1       0.285  -2.255  -1.018  0.00  0.00    +0.136 C 
ATOM     30  C   UNL     1       0.418  -0.754  -0.981  0.00  0.00    +0.305 C 
ATOM     31  O   UNL     1       0.945  -0.171  -1.899  0.00  0.00    -0.251 OA
ENDBRANCH  28  30
ENDBRANCH   1  28
TORSDOF 6
