REMARK  Name = ZINC32913423
REMARK  4 active torsions:
REMARK  status: ('A' for Active; 'I' for Inactive)
REMARK    1  A    between atoms: C_6  and  C_7
REMARK    2  A    between atoms: N_12  and  C_13
REMARK    3  A    between atoms: C_13  and  C_14
REMARK    4  A    between atoms: N_16  and  C_17
REMARK                            x       y       z     vdW  Elec       q    Type
REMARK                         _______ _______ _______ _____ _____    ______ ____
ROOT
ATOM      1  C   UNL     1       0.117   1.311   2.423  0.00  0.00    -0.037 C 
ATOM      2  C   UNL     1      -0.911   1.012   3.543  0.00  0.00    -0.013 C 
ATOM      3  C   UNL     1      -1.990   0.209   2.771  0.00  0.00    -0.020 C 
ATOM      4  C   UNL     1      -2.001   0.885   1.383  0.00  0.00    -0.077 C 
ATOM      5  N   UNL     1      -0.700   1.560   1.217  0.00  0.00    +0.390 N 
ATOM      6  H   UNL     1      -0.859   2.641   1.089  0.00  0.00    -0.080 HD
ENDROOT
BRANCH   1  12
ATOM      7  C   UNL     1       0.369   3.791   2.643  0.00  0.00    +0.006 A 
ATOM      8  C   UNL     1       1.108   4.914   2.963  0.00  0.00    +0.049 A 
ATOM      9  C   UNL     1       2.417   4.782   3.400  0.00  0.00    +0.162 A 
ATOM     10  C   UNL     1       2.981   3.518   3.524  0.00  0.00    +0.162 A 
ATOM     11  C   UNL     1       2.233   2.395   3.204  0.00  0.00    +0.051 A 
ATOM     12  C   UNL     1       0.928   2.533   2.768  0.00  0.00    -0.057 A 
ATOM     13  O   UNL     1       4.262   3.366   3.959  0.00  0.00    -0.485 OA
ATOM     14  C   UNL     1       5.099   4.526   3.913  0.00  0.00    +0.270 C 
ATOM     15  C   UNL     1       4.314   5.710   4.493  0.00  0.00    +0.270 C 
ATOM     16  O   UNL     1       3.136   5.898   3.701  0.00  0.00    -0.485 OA
ENDBRANCH   1  12
BRANCH   5  17
ATOM     17  C   UNL     1      -0.013   1.086   0.008  0.00  0.00    +0.019 C 
BRANCH  17  18
ATOM     18  C   UNL     1      -0.742   1.585  -1.213  0.00  0.00    +0.197 C 
ATOM     19  O   UNL     1      -1.736   2.268  -1.088  0.00  0.00    -0.278 OA
ATOM     20  N   UNL     1      -0.288   1.272  -2.443  0.00  0.00    -0.306 N 
ATOM     21  H   UNL     1       0.614   0.653  -2.556  0.00  0.00    +0.149 HD
BRANCH  20  22
ATOM     22  C   UNL     1      -0.997   1.758  -3.630  0.00  0.00    +0.159 C 
ATOM     23  C   UNL     1      -0.719   0.826  -4.812  0.00  0.00    +0.032 C 
ATOM     24  C   UNL     1      -1.837   0.906  -5.835  0.00  0.00    +0.004 C 
ATOM     25  C   UNL     1      -1.933   2.249  -6.535  0.00  0.00    +0.019 C 
ATOM     26  C   UNL     1      -2.355   3.346  -5.555  0.00  0.00    +0.104 C 
ATOM     27  N   UNL     1      -1.152   3.875  -4.893  0.00  0.00    -0.314 N 
ATOM     28  C   UNL     1      -0.504   3.145  -3.985  0.00  0.00    +0.233 C 
ATOM     29  O   UNL     1       0.483   3.592  -3.442  0.00  0.00    -0.274 OA
ATOM     30  H   UNL     1      -0.782   4.880  -5.147  0.00  0.00    +0.149 HD
ENDBRANCH  20  22
ENDBRANCH  17  18
ENDBRANCH   5  17
TORSDOF 4
