REMARK  Name = ZINC36316113
REMARK  19 active torsions:
REMARK  status: ('A' for Active; 'I' for Inactive)
REMARK    1  A    between atoms: C_1  and  C_2
REMARK    2  A    between atoms: C_2  and  C_3
REMARK    3  A    between atoms: C_2  and  C_4
REMARK    4  A    between atoms: C_4  and  N_5
REMARK    5  A    between atoms: N_5  and  C_6
REMARK    6  A    between atoms: N_5  and  C_28
REMARK    7  A    between atoms: C_6  and  C_7
REMARK    8  A    between atoms: C_8  and  C_22
REMARK    9  A    between atoms: N_10  and  C_21
REMARK   10  A    between atoms: C_11  and  O_12
REMARK   11  A    between atoms: O_12  and  C_13
REMARK   12  A    between atoms: C_28  and  C_29
REMARK   13  A    between atoms: C_29  and  C_31
REMARK   14  A    between atoms: C_29  and  O_37
REMARK   15  A    between atoms: C_31  and  O_32
REMARK   16  A    between atoms: O_32  and  C_33
REMARK   17  A    between atoms: C_33  and  C_34
REMARK   18  A    between atoms: C_33  and  C_35
REMARK   19  A    between atoms: C_33  and  C_36
REMARK                            x       y       z     vdW  Elec       q    Type
REMARK                         _______ _______ _______ _____ _____    ______ ____
ROOT
ATOM      1  C   UNL     1      -2.236   0.085  -3.529  0.00  0.00    +0.025 A 
ATOM      2  C   UNL     1      -3.239  -0.476  -4.343  0.00  0.00    +0.098 A 
ATOM      3  N   UNL     1      -3.358   0.273  -5.419  0.00  0.00    -0.168 NA
ATOM      4  N   UNL     1      -2.441   1.328  -5.325  0.00  0.00    -0.235 N 
ATOM      5  C   UNL     1      -1.767   1.195  -4.154  0.00  0.00    +0.221 A 
ATOM      6  C   UNL     1      -2.248   2.391  -6.314  0.00  0.00    +0.176 C 
ENDROOT
BRANCH   2   7
ATOM      7  C   UNL     1      -4.024  -1.698  -4.041  0.00  0.00    +0.002 A 
ATOM      8  C   UNL     1      -3.390  -2.826  -3.525  0.00  0.00    +0.010 A 
ATOM      9  C   UNL     1      -4.125  -3.961  -3.246  0.00  0.00    +0.001 A 
ATOM     10  C   UNL     1      -5.489  -3.979  -3.478  0.00  0.00    +0.000 A 
ATOM     11  C   UNL     1      -6.123  -2.862  -3.991  0.00  0.00    +0.001 A 
ATOM     12  C   UNL     1      -5.398  -1.720  -4.268  0.00  0.00    +0.010 A 
ENDBRANCH   2   7
BRANCH   1  13
ATOM     13  C   UNL     1      -1.771  -0.450  -2.199  0.00  0.00    -0.035 C 
BRANCH  13  14
ATOM     14  N   UNL     1      -2.468   0.259  -1.117  0.00  0.00    +0.384 N 
ATOM     15  H   UNL     1      -2.335   1.253  -1.225  0.00  0.00    -0.081 HD
BRANCH  14  16
ATOM     16  C   UNL     1      -1.923  -0.170   0.179  0.00  0.00    -0.075 C 
BRANCH  16  18
ATOM     17  C   UNL     1      -0.413   1.816   0.309  0.00  0.00    +0.005 C 
ATOM     18  C   UNL     1      -0.468   0.287   0.297  0.00  0.00    -0.034 C 
ATOM     19  C   UNL     1       0.133  -0.255   1.595  0.00  0.00    +0.005 C 
ENDBRANCH  16  18
ENDBRANCH  14  16
BRANCH  14  20
ATOM     20  C   UNL     1      -3.902  -0.052  -1.172  0.00  0.00    -0.044 C 
BRANCH  20  21
ATOM     21  C   UNL     1      -4.645   0.780  -0.125  0.00  0.00    +0.124 C 
BRANCH  21  22
ATOM     22  O   UNL     1      -4.546   2.166  -0.460  0.00  0.00    -0.391 OA
ATOM     23  H   UNL     1      -4.921   2.390  -1.323  0.00  0.00    +0.210 HD
ENDBRANCH  21  22
BRANCH  21  24
ATOM     24  C   UNL     1      -6.118   0.367  -0.097  0.00  0.00    +0.189 C 
BRANCH  24  25
ATOM     25  O   UNL     1      -6.787   1.061   0.959  0.00  0.00    -0.372 OA
BRANCH  25  26
ATOM     26  C   UNL     1      -8.176   0.745   1.073  0.00  0.00    +0.061 C 
ATOM     27  C   UNL     1      -8.338  -0.752   1.342  0.00  0.00    +0.041 C 
ATOM     28  C   UNL     1      -8.787   1.540   2.229  0.00  0.00    +0.041 C 
ATOM     29  C   UNL     1      -8.891   1.109  -0.230  0.00  0.00    +0.041 C 
ENDBRANCH  25  26
ENDBRANCH  24  25
ENDBRANCH  21  24
ENDBRANCH  20  21
ENDBRANCH  14  20
ENDBRANCH  13  14
ENDBRANCH   1  13
BRANCH   5  30
ATOM     30  O   UNL     1      -0.795   2.023  -3.691  0.00  0.00    -0.435 OA
BRANCH  30  31
ATOM     31  C   UNL     1       0.483   1.793  -4.092  0.00  0.00    +0.166 A 
ATOM     32  C   UNL     1       0.751   0.804  -5.027  0.00  0.00    +0.052 A 
ATOM     33  C   UNL     1       2.051   0.571  -5.434  0.00  0.00    +0.042 A 
ATOM     34  C   UNL     1       3.087   1.324  -4.908  0.00  0.00    +0.126 A 
ATOM     35  C   UNL     1       2.824   2.311  -3.974  0.00  0.00    +0.080 A 
ATOM     36  C   UNL     1       1.523   2.551  -3.569  0.00  0.00    +0.168 A 
ATOM     37  F   UNL     1       1.265   3.519  -2.662  0.00  0.00    -0.202 F 
ATOM     38  F   UNL     1       4.357   1.093  -5.306  0.00  0.00    -0.205 F 
ENDBRANCH  30  31
ENDBRANCH   5  30
TORSDOF 13
