REMARK  Name = ZINC14625343
REMARK  10 active torsions:
REMARK  status: ('A' for Active; 'I' for Inactive)
REMARK    1  A    between atoms: C_1  and  C_2
REMARK    2  A    between atoms: C_2  and  C_3
REMARK    3  A    between atoms: C_3  and  C_4
REMARK    4  A    between atoms: C_4  and  N_5
REMARK    5  A    between atoms: C_6  and  N_33
REMARK    6  A    between atoms: C_7  and  N_14
REMARK    7  A    between atoms: N_14  and  C_15
REMARK    8  A    between atoms: C_15  and  C_16
REMARK    9  A    between atoms: C_22  and  C_24
REMARK   10  A    between atoms: C_24  and  C_25
REMARK                            x       y       z     vdW  Elec       q    Type
REMARK                         _______ _______ _______ _____ _____    ______ ____
ROOT
ATOM      1  N   UNL     1       4.232  -0.880  -1.407  0.00  0.00    -0.260 N 
ATOM      2  C   UNL     1       4.809   0.239  -1.891  0.00  0.00    +0.225 C 
ATOM      3  O   UNL     1       4.952   0.380  -3.087  0.00  0.00    -0.275 OA
ENDROOT
BRANCH   1   6
ATOM      4  N   UNL     1       2.260  -3.293  -3.353  0.00  0.00    -0.280 N 
ATOM      5  C   UNL     1       2.564  -2.264  -2.493  0.00  0.00    +0.127 A 
ATOM      6  C   UNL     1       3.887  -1.931  -2.282  0.00  0.00    +0.140 A 
ATOM      7  C   UNL     1       4.886  -2.655  -2.961  0.00  0.00    +0.277 A 
ATOM      8  O   UNL     1       6.062  -2.379  -2.797  0.00  0.00    -0.266 OA
ATOM      9  N   UNL     1       4.534  -3.658  -3.788  0.00  0.00    -0.273 N 
ATOM     10  H   UNL     1       5.243  -4.178  -4.264  0.00  0.00    +0.173 HD
ATOM     11  C   UNL     1       3.240  -3.968  -3.981  0.00  0.00    +0.331 A 
ATOM     12  O   UNL     1       2.949  -4.875  -4.737  0.00  0.00    -0.246 OA
BRANCH   5  13
ATOM     13  N   UNL     1       1.563  -1.575  -1.851  0.00  0.00    -0.343 N 
ATOM     14  H   UNL     1       1.777  -0.792  -1.320  0.00  0.00    +0.144 HD
ATOM     15  H   UNL     1       0.643  -1.871  -1.930  0.00  0.00    +0.144 HD
ENDBRANCH   5  13
BRANCH   4  16
ATOM     16  C   UNL     1       0.860  -3.657  -3.586  0.00  0.00    +0.128 C 
BRANCH  16  17
ATOM     17  C   UNL     1       0.312  -2.850  -4.764  0.00  0.00    +0.021 C 
BRANCH  17  19
ATOM     18  C   UNL     1      -1.697  -2.422  -6.187  0.00  0.00    +0.004 C 
ATOM     19  C   UNL     1      -1.149  -3.230  -5.008  0.00  0.00    -0.002 C 
ENDBRANCH  17  19
ENDBRANCH  16  17
ENDBRANCH   4  16
ENDBRANCH   1   6
BRANCH   1  20
ATOM     20  C   UNL     1       3.963  -1.004   0.028  0.00  0.00    +0.149 C 
BRANCH  20  21
ATOM     21  C   UNL     1       5.093  -1.751   0.688  0.00  0.00    -0.030 A 
ATOM     22  C   UNL     1       6.129  -1.054   1.283  0.00  0.00    +0.005 A 
ATOM     23  C   UNL     1       7.166  -1.739   1.888  0.00  0.00    +0.000 A 
ATOM     24  C   UNL     1       7.168  -3.122   1.898  0.00  0.00    +0.000 A 
ATOM     25  C   UNL     1       6.132  -3.819   1.304  0.00  0.00    +0.000 A 
ATOM     26  C   UNL     1       5.095  -3.133   0.698  0.00  0.00    +0.005 A 
ENDBRANCH  20  21
ENDBRANCH   1  20
BRANCH   2  27
ATOM     27  C   UNL     1       5.277   1.316  -0.945  0.00  0.00    +0.131 C 
BRANCH  27  28
ATOM     28  C   UNL     1       5.834   2.472  -1.735  0.00  0.00    -0.037 A 
ATOM     29  C   UNL     1       7.177   2.503  -2.060  0.00  0.00    +0.005 A 
ATOM     30  C   UNL     1       7.688   3.560  -2.789  0.00  0.00    +0.022 A 
ATOM     31  C   UNL     1       6.857   4.593  -3.186  0.00  0.00    +0.059 A 
ATOM     32  C   UNL     1       5.513   4.564  -2.856  0.00  0.00    +0.060 A 
ATOM     33  C   UNL     1       5.002   3.502  -2.130  0.00  0.00    +0.025 A 
ATOM     34 CL   UNL     1       4.469   5.859  -3.353  0.00  0.00    -0.082 Cl
ATOM     35 CL   UNL     1       7.500   5.923  -4.096  0.00  0.00    -0.082 Cl
ENDBRANCH  27  28
ENDBRANCH   2  27
TORSDOF 9
