REMARK  Name = ZINC08424506
REMARK  4 active torsions:
REMARK  status: ('A' for Active; 'I' for Inactive)
REMARK    1  A    between atoms: C_6  and  C_7
REMARK    2  A    between atoms: C_10  and  C_12
REMARK    3  A    between atoms: N_13  and  N_14
REMARK    4  A    between atoms: C_17  and  N_26
REMARK                            x       y       z     vdW  Elec       q    Type
REMARK                         _______ _______ _______ _____ _____    ______ ____
ROOT
ATOM      1  N   UNL     1       3.600   1.937  -0.021  0.00  0.00    -0.221 N 
ATOM      2  C   UNL     1       2.375   1.290  -0.013  0.00  0.00    +0.145 A 
ATOM      3  C   UNL     1       1.190   2.021   0.002  0.00  0.00    +0.089 A 
ATOM      4  C   UNL     1      -0.016   1.327   0.009  0.00  0.00    +0.128 A 
ATOM      5  N   UNL     1       0.002  -0.004   0.002  0.00  0.00    -0.199 NA
ATOM      6  C   UNL     1       1.149  -0.667  -0.013  0.00  0.00    +0.221 A 
ATOM      7  N   UNL     1       2.315  -0.041  -0.020  0.00  0.00    -0.198 NA
ATOM      8  N   UNL     1       1.127  -2.051  -0.020  0.00  0.00    -0.300 N 
ATOM      9  C   UNL     1       0.468  -2.566  -1.247  0.00  0.00    +0.108 C 
ATOM     10  C   UNL     1       0.990  -4.022  -1.345  0.00  0.00    +0.020 C 
ATOM     11  C   UNL     1       2.455  -3.897  -0.869  0.00  0.00    +0.020 C 
ATOM     12  C   UNL     1       2.499  -2.603  -0.036  0.00  0.00    +0.108 C 
ATOM     13  H   UNL     1       3.636   2.907  -0.016  0.00  0.00    +0.176 HD
ENDROOT
BRANCH   4  14
ATOM     14  N   UNL     1      -1.221   2.013   0.019  0.00  0.00    -0.315 N 
ATOM     15  C   UNL     1      -1.373   2.838  -1.207  0.00  0.00    +0.106 C 
ATOM     16  C   UNL     1      -2.901   3.081  -1.283  0.00  0.00    +0.020 C 
ATOM     17  C   UNL     1      -3.490   1.736  -0.798  0.00  0.00    +0.020 C 
ATOM     18  C   UNL     1      -2.364   1.075   0.019  0.00  0.00    +0.106 C 
ENDBRANCH   4  14
BRANCH   1  20
ATOM     19  C   UNL     1       5.937   1.801  -0.042  0.00  0.00    +0.176 C 
ATOM     20  N   UNL     1       4.787   1.192  -0.035  0.00  0.00    -0.186 NA
BRANCH  19  24
ATOM     21  C   UNL     1       8.565  -0.685  -0.078  0.00  0.00    +0.136 A 
ATOM     22  C   UNL     1       9.331   0.442  -0.079  0.00  0.00    +0.050 A 
ATOM     23  C   UNL     1       8.455   1.536  -0.065  0.00  0.00    +0.051 A 
ATOM     24  C   UNL     1       7.178   1.022  -0.057  0.00  0.00    +0.148 A 
ATOM     25  O   UNL     1       7.267  -0.324  -0.059  0.00  0.00    -0.454 OA
BRANCH  21  31
ATOM     26  C   UNL     1      10.448  -2.314  -0.109  0.00  0.00    +0.012 A 
ATOM     27  C   UNL     1      10.915  -3.611  -0.115  0.00  0.00    +0.016 A 
ATOM     28  C   UNL     1      10.024  -4.672  -0.112  0.00  0.00    +0.018 A 
ATOM     29  C   UNL     1       8.660  -4.437  -0.099  0.00  0.00    +0.016 A 
ATOM     30  C   UNL     1       8.179  -3.145  -0.088  0.00  0.00    +0.012 A 
ATOM     31  C   UNL     1       9.072  -2.071  -0.090  0.00  0.00    +0.017 A 
ATOM     32 BR   UNL     1      10.675  -6.447  -0.128  0.00  0.00    -0.050 Br
ENDBRANCH  21  31
ENDBRANCH  19  24
ENDBRANCH   1  20
TORSDOF 4
