REMARK  Name = ZINC09515734
REMARK  9 active torsions:
REMARK  status: ('A' for Active; 'I' for Inactive)
REMARK    1  A    between atoms: C_1  and  C_2
REMARK    2  A    between atoms: C_2  and  C_4
REMARK    3  A    between atoms: C_2  and  N_53
REMARK    4  A    between atoms: N_6  and  C_7
REMARK    5  A    between atoms: C_8  and  C_12
REMARK    6  A    between atoms: C_15  and  N_53
REMARK    7  A    between atoms: C_16  and  C_17
REMARK    8  A    between atoms: C_16  and  N_53
REMARK    9  A    between atoms: C_22  and  N_23
REMARK                            x       y       z     vdW  Elec       q    Type
REMARK                         _______ _______ _______ _____ _____    ______ ____
ROOT
ATOM      1  C   UNL     1       0.285  -2.164   0.524  0.00  0.00    -0.004 C 
ATOM      2  C   UNL     1       1.419  -1.944  -0.478  0.00  0.00    +0.016 C 
ENDROOT
BRANCH   2   3
ATOM      3  C   UNL     1       1.644  -0.465  -0.665  0.00  0.00    +0.204 C 
ATOM      4  O   UNL     1       2.723   0.022  -0.401  0.00  0.00    -0.277 OA
ATOM      5  N   UNL     1       0.646   0.315  -1.125  0.00  0.00    -0.281 N 
ATOM      6  H   UNL     1      -0.216  -0.075  -1.337  0.00  0.00    +0.155 HD
BRANCH   5   7
ATOM      7  C   UNL     1       0.853   1.675  -1.297  0.00  0.00    +0.084 A 
ATOM      8  C   UNL     1      -0.041   2.633  -1.761  0.00  0.00    +0.065 A 
ATOM      9  C   UNL     1       0.443   3.991  -1.837  0.00  0.00    +0.022 A 
ATOM     10  C   UNL     1       1.717   4.210  -1.464  0.00  0.00    +0.048 A 
ATOM     11  S   UNL     1       2.291   2.592  -0.993  0.00  0.00    -0.081 S 
BRANCH   8  12
ATOM     12  C   UNL     1      -1.410   2.282  -2.151  0.00  0.00    +0.244 C 
ATOM     13  O   UNL     1      -1.788   1.127  -2.072  0.00  0.00    -0.270 OA
ATOM     14  N   UNL     1      -2.250   3.237  -2.597  0.00  0.00    -0.325 N 
ATOM     15  H   UNL     1      -1.948   4.157  -2.660  0.00  0.00    +0.145 HD
ATOM     16  H   UNL     1      -3.155   3.004  -2.855  0.00  0.00    +0.145 HD
ENDBRANCH   8  12
ENDBRANCH   5   7
ENDBRANCH   2   3
BRANCH   2  18
ATOM     17  C   UNL     1       2.962  -2.086   1.383  0.00  0.00    -0.095 C 
ATOM     18  N   UNL     1       2.671  -2.558   0.012  0.00  0.00    +0.388 N 
ATOM     19  H   UNL     1       3.443  -2.282  -0.606  0.00  0.00    -0.081 HD
BRANCH  18  20
ATOM     20  C   UNL     1       2.549  -4.031   0.001  0.00  0.00    -0.040 C 
BRANCH  20  21
ATOM     21  C   UNL     1       3.922  -4.632   0.159  0.00  0.00    -0.043 A 
ATOM     22  C   UNL     1       4.275  -5.246   1.345  0.00  0.00    +0.003 A 
ATOM     23  C   UNL     1       5.534  -5.798   1.491  0.00  0.00    +0.000 A 
ATOM     24  C   UNL     1       6.444  -5.738   0.451  0.00  0.00    +0.002 A 
ATOM     25  C   UNL     1       6.098  -5.125  -0.737  0.00  0.00    +0.023 A 
ATOM     26  C   UNL     1       4.832  -4.574  -0.889  0.00  0.00    +0.031 A 
BRANCH  26  27
ATOM     27  N   UNL     1       4.476  -3.958  -2.091  0.00  0.00    -0.330 N 
ATOM     28  C   UNL     1       5.626  -3.921  -3.030  0.00  0.00    +0.105 C 
ATOM     29  C   UNL     1       4.950  -3.721  -4.410  0.00  0.00    +0.020 C 
ATOM     30  C   UNL     1       3.669  -4.579  -4.295  0.00  0.00    +0.020 C 
ATOM     31  C   UNL     1       3.414  -4.721  -2.783  0.00  0.00    +0.105 C 
ENDBRANCH  26  27
ENDBRANCH  20  21
ENDBRANCH  18  20
ENDBRANCH   2  18
TORSDOF 7
