REMARK  Name = ZINC39674317
REMARK  9 active torsions:
REMARK  status: ('A' for Active; 'I' for Inactive)
REMARK    1  A    between atoms: C_1  and  C_2
REMARK    2  A    between atoms: C_3  and  C_14
REMARK    3  A    between atoms: C_4  and  C_7
REMARK    4  A    between atoms: C_18  and  C_27
REMARK    5  A    between atoms: N_29  and  C_30
REMARK    6  A    between atoms: C_30  and  C_32
REMARK    7  A    between atoms: C_30  and  C_33
REMARK    8  A    between atoms: C_34  and  C_40
REMARK    9  A    between atoms: C_37  and  C_39
REMARK                            x       y       z     vdW  Elec       q    Type
REMARK                         _______ _______ _______ _____ _____    ______ ____
ROOT
ATOM      1  C   UNL     1      -2.541   0.813  -0.323  0.00  0.00    +0.252 C 
ATOM      2  O   UNL     1      -3.420   0.958  -1.152  0.00  0.00    -0.270 OA
ATOM      3  N   UNL     1      -2.844   0.833   0.990  0.00  0.00    -0.296 N 
ATOM      4  C   UNL     1      -1.909   0.768   2.139  0.00  0.00    +0.121 C 
ATOM      5  C   UNL     1      -2.493   1.757   3.173  0.00  0.00    +0.100 C 
ATOM      6  C   UNL     1      -3.987   1.854   2.823  0.00  0.00    -0.004 C 
ATOM      7  C   UNL     1      -4.186   0.931   1.612  0.00  0.00    +0.115 C 
ATOM      8  C   UNL     1      -4.351   3.288   2.451  0.00  0.00    -0.010 C 
ATOM      9  C   UNL     1      -5.852   3.371   2.163  0.00  0.00    -0.082 C 
ATOM     10  N   UNL     1      -6.604   2.947   3.350  0.00  0.00    +0.379 N 
ATOM     11  C   UNL     1      -6.319   1.538   3.647  0.00  0.00    -0.082 C 
ATOM     12  C   UNL     1      -4.837   1.377   3.997  0.00  0.00    -0.010 C 
ATOM     13  H   UNL     1      -6.335   3.516   4.139  0.00  0.00    -0.086 HD
ATOM     14  H   UNL     1      -7.592   3.060   3.180  0.00  0.00    -0.086 HD
ENDROOT
BRANCH   1  17
ATOM     15  C   UNL     1      -0.511   3.075  -1.051  0.00  0.00    +0.090 C 
ATOM     16  C   UNL     1      -0.249   1.591  -1.075  0.00  0.00    +0.147 A 
ATOM     17  C   UNL     1      -1.147   0.616  -0.755  0.00  0.00    +0.106 A 
ATOM     18  C   UNL     1      -0.454  -0.671  -0.922  0.00  0.00    +0.127 A 
ATOM     19  N   UNL     1       0.764  -0.399  -1.316  0.00  0.00    -0.077 NA
ATOM     20  O   UNL     1       0.901   1.005  -1.420  0.00  0.00    -0.359 OA
BRANCH  18  21
ATOM     21  C   UNL     1      -1.027  -2.019  -0.690  0.00  0.00    +0.023 A 
ATOM     22  C   UNL     1      -2.350  -2.155  -0.274  0.00  0.00    +0.011 A 
ATOM     23  C   UNL     1      -2.877  -3.412  -0.059  0.00  0.00    +0.001 A 
ATOM     24  C   UNL     1      -2.096  -4.537  -0.255  0.00  0.00    +0.001 A 
ATOM     25  C   UNL     1      -0.782  -4.409  -0.667  0.00  0.00    +0.020 A 
ATOM     26  C   UNL     1      -0.244  -3.156  -0.891  0.00  0.00    +0.050 A 
ATOM     27 CL   UNL     1       1.403  -2.997  -1.416  0.00  0.00    -0.083 Cl
ENDBRANCH  18  21
ENDBRANCH   1  17
BRANCH   5  28
ATOM     28  C   UNL     1      -1.832   3.105   3.041  0.00  0.00    +0.219 C 
ATOM     29  O   UNL     1      -1.361   3.448   1.977  0.00  0.00    -0.275 OA
ATOM     30  N   UNL     1      -1.764   3.930   4.104  0.00  0.00    -0.309 N 
ATOM     31  H   UNL     1      -2.073   3.627   4.973  0.00  0.00    +0.149 HD
BRANCH  30  32
ATOM     32  C   UNL     1      -1.225   5.283   3.949  0.00  0.00    +0.100 C 
ATOM     33  C   UNL     1       0.300   5.240   4.065  0.00  0.00    +0.033 C 
BRANCH  32  34
ATOM     34  C   UNL     1      -1.786   6.174   5.028  0.00  0.00    -0.001 C 
ATOM     35  C   UNL     1      -2.376   7.363   4.888  0.00  0.00    +0.063 C 
ATOM     36  N   UNL     1      -2.748   7.858   6.089  0.00  0.00    -0.159 NA
ATOM     37  N   UNL     1      -2.475   7.133   7.048  0.00  0.00    -0.180 NA
ATOM     38  C   UNL     1      -1.816   5.925   6.525  0.00  0.00    +0.154 C 
ATOM     39  C   UNL     1      -0.396   5.802   7.082  0.00  0.00    +0.039 C 
ATOM     40  C   UNL     1      -2.598   8.058   3.569  0.00  0.00    +0.067 C 
ENDBRANCH  32  34
ENDBRANCH  30  32
ENDBRANCH   5  28
TORSDOF 5
