REMARK  Name = ZINC09130146
REMARK  5 active torsions:
REMARK  status: ('A' for Active; 'I' for Inactive)
REMARK    1  A    between atoms: C_1  and  C_2
REMARK    2  A    between atoms: C_2  and  C_4
REMARK    3  A    between atoms: C_7  and  N_10
REMARK    4  A    between atoms: C_15  and  C_31
REMARK    5  A    between atoms: C_31  and  C_32
REMARK                            x       y       z     vdW  Elec       q    Type
REMARK                         _______ _______ _______ _____ _____    ______ ____
ROOT
ATOM      1  N   UNL     1      -2.444   1.068   0.093  0.00  0.00    -0.210 N 
ATOM      2  C   UNL     1      -2.495  -0.266   0.179  0.00  0.00    +0.228 C 
ATOM      3  O   UNL     1      -1.533  -1.000   0.250  0.00  0.00    -0.275 OA
ATOM      4  C   UNL     1      -3.939  -0.715   0.175  0.00  0.00    +0.074 C 
ATOM      5  C   UNL     1      -4.236  -1.448  -1.151  0.00  0.00    -0.053 C 
ATOM      6  C   UNL     1      -5.444   0.549  -1.276  0.00  0.00    +0.050 C 
ATOM      7  C   UNL     1      -4.729   0.620   0.078  0.00  0.00    +0.088 C 
ATOM      8  C   UNL     1      -3.639   1.667   0.033  0.00  0.00    +0.229 C 
ATOM      9  O   UNL     1      -3.820   2.863  -0.047  0.00  0.00    -0.275 OA
ATOM     10  C   UNL     1      -6.805   1.183  -1.215  0.00  0.00    -0.028 A 
ATOM     11  C   UNL     1      -7.930   0.941  -0.458  0.00  0.00    +0.004 A 
ATOM     12  C   UNL     1      -9.063   1.716  -0.634  0.00  0.00    +0.000 A 
ATOM     13  C   UNL     1      -9.062   2.733  -1.571  0.00  0.00    +0.002 A 
ATOM     14  C   UNL     1      -7.937   2.980  -2.330  0.00  0.00    +0.023 A 
ATOM     15  C   UNL     1      -6.792   2.205  -2.160  0.00  0.00    +0.036 A 
ATOM     16  N   UNL     1      -5.550   2.258  -2.796  0.00  0.00    -0.286 N 
ATOM     17  C   UNL     1      -4.702   1.319  -2.334  0.00  0.00    +0.211 C 
ATOM     18  O   UNL     1      -3.561   1.132  -2.700  0.00  0.00    -0.277 OA
ATOM     19  H   UNL     1      -5.324   2.897  -3.490  0.00  0.00    +0.155 HD
ATOM     20  N   UNL     1      -5.504  -0.866  -1.599  0.00  0.00    +0.394 N 
ATOM     21  H   UNL     1      -6.290  -1.309  -1.110  0.00  0.00    -0.083 HD
ATOM     22  H   UNL     1      -5.614  -0.995  -2.612  0.00  0.00    -0.083 HD
ENDROOT
BRANCH   1  26
ATOM     23  C   UNL     1       1.148   3.183   0.036  0.00  0.00    +0.017 A 
ATOM     24  C   UNL     1       0.273   3.314   1.121  0.00  0.00    +0.013 A 
ATOM     25  C   UNL     1      -0.913   2.617   1.134  0.00  0.00    +0.024 A 
ATOM     26  C   UNL     1      -1.242   1.779   0.073  0.00  0.00    +0.044 A 
ATOM     27  C   UNL     1      -0.378   1.649  -1.010  0.00  0.00    +0.024 A 
ATOM     28  C   UNL     1       0.810   2.343  -1.032  0.00  0.00    +0.013 A 
BRANCH  23  30
ATOM     29  C   UNL     1       3.414   3.684  -1.085  0.00  0.00    +0.091 C 
ATOM     30  C   UNL     1       2.415   3.925   0.017  0.00  0.00    +0.160 C 
ATOM     31  O   UNL     1       2.659   4.732   0.890  0.00  0.00    -0.292 OA
ENDBRANCH  23  30
ENDBRANCH   1  26
BRANCH   5  32
ATOM     32  C   UNL     1      -4.367  -2.953  -0.910  0.00  0.00    +0.022 C 
BRANCH  32  33
ATOM     33  C   UNL     1      -4.534  -3.660  -2.230  0.00  0.00    -0.024 A 
ATOM     34  C   UNL     1      -5.694  -4.018  -2.803  0.00  0.00    +0.087 A 
ATOM     35  N   UNL     1      -5.452  -4.637  -3.999  0.00  0.00    -0.360 N 
ATOM     36  H   UNL     1      -6.135  -4.983  -4.595  0.00  0.00    +0.165 HD
ATOM     37  C   UNL     1      -4.096  -4.703  -4.226  0.00  0.00    +0.047 A 
ATOM     38  C   UNL     1      -3.461  -4.094  -3.128  0.00  0.00    +0.003 A 
ATOM     39  C   UNL     1      -2.068  -4.014  -3.085  0.00  0.00    +0.010 A 
ATOM     40  C   UNL     1      -1.327  -4.529  -4.111  0.00  0.00    +0.001 A 
ATOM     41  C   UNL     1      -1.949  -5.131  -5.197  0.00  0.00    +0.002 A 
ATOM     42  C   UNL     1      -3.322  -5.220  -5.260  0.00  0.00    +0.026 A 
ENDBRANCH  32  33
ENDBRANCH   5  32
TORSDOF 4
