REMARK  Name = ZINC21915162
REMARK  8 active torsions:
REMARK  status: ('A' for Active; 'I' for Inactive)
REMARK    1  A    between atoms: C_1  and  C_2
REMARK    2  A    between atoms: C_2  and  C_3
REMARK    3  A    between atoms: N_9  and  C_10
REMARK    4  A    between atoms: C_10  and  C_11
REMARK    5  A    between atoms: C_11  and  C_12
REMARK    6  A    between atoms: C_12  and  N_13
REMARK    7  A    between atoms: C_14  and  C_16
REMARK    8  A    between atoms: N_27  and  C_30
REMARK                            x       y       z     vdW  Elec       q    Type
REMARK                         _______ _______ _______ _____ _____    ______ ____
ROOT
ATOM      1  C   UNL     1       5.538   7.896  -3.845  0.00  0.00    +0.053 A 
ATOM      2  C   UNL     1       5.710   8.918  -2.876  0.00  0.00    +0.013 A 
ATOM      3  C   UNL     1       6.041   8.616  -1.550  0.00  0.00    +0.011 A 
ATOM      4  C   UNL     1       6.203   9.625  -0.648  0.00  0.00    +0.001 A 
ATOM      5  C   UNL     1       6.047  10.956  -1.030  0.00  0.00    +0.002 A 
ATOM      6  C   UNL     1       5.729  11.287  -2.310  0.00  0.00    +0.028 A 
ATOM      7  C   UNL     1       5.554  10.272  -3.272  0.00  0.00    +0.073 A 
ATOM      8  N   UNL     1       5.242  10.572  -4.531  0.00  0.00    -0.242 NA
ATOM      9  C   UNL     1       5.072   9.640  -5.452  0.00  0.00    +0.132 A 
ATOM     10  C   UNL     1       5.215   8.280  -5.133  0.00  0.00    +0.013 A 
ATOM     11  C   UNL     1       4.955   7.511  -6.403  0.00  0.00    +0.146 C 
ATOM     12  N   UNL     1       4.661   8.509  -7.437  0.00  0.00    -0.289 N 
ATOM     13  C   UNL     1       4.728   9.735  -6.891  0.00  0.00    +0.266 C 
ATOM     14  O   UNL     1       4.534  10.773  -7.492  0.00  0.00    -0.268 OA
ENDROOT
BRANCH  12  15
ATOM     15  C   UNL     1       4.346   8.217  -8.837  0.00  0.00    +0.077 C 
ATOM     16  C   UNL     1       5.384   8.882  -9.743  0.00  0.00    +0.022 C 
ATOM     17  C   UNL     1       5.055   8.577 -11.206  0.00  0.00    +0.002 C 
ATOM     18  C   UNL     1       3.664   9.120 -11.540  0.00  0.00    +0.000 C 
ATOM     19  C   UNL     1       2.626   8.454 -10.634  0.00  0.00    +0.002 C 
ATOM     20  C   UNL     1       2.955   8.759  -9.171  0.00  0.00    +0.022 C 
ENDBRANCH  12  15
BRANCH   1  22
ATOM     21  N   UNL     1       4.630   5.762  -3.059  0.00  0.00    -0.311 N 
ATOM     22  C   UNL     1       5.694   6.469  -3.489  0.00  0.00    +0.245 C 
ATOM     23  O   UNL     1       6.781   5.934  -3.583  0.00  0.00    -0.270 OA
ATOM     24  H   UNL     1       3.646   6.246  -2.973  0.00  0.00    +0.149 HD
BRANCH  21  25
ATOM     25  C   UNL     1       4.785   4.349  -2.705  0.00  0.00    +0.102 C 
BRANCH  25  26
ATOM     26  C   UNL     1       3.436   3.786  -2.252  0.00  0.00    +0.000 C 
BRANCH  26  27
ATOM     27  C   UNL     1       3.597   2.310  -1.883  0.00  0.00    -0.077 C 
BRANCH  27  33
ATOM     28  C   UNL     1       2.339   0.304  -1.381  0.00  0.00    -0.069 C 
ATOM     29  C   UNL     1       0.940  -0.229  -1.067  0.00  0.00    -0.015 C 
ATOM     30  C   UNL     1       0.466   0.349   0.270  0.00  0.00    -0.003 C 
ATOM     31  C   UNL     1       0.483   1.878   0.190  0.00  0.00    -0.019 C 
ATOM     32  C   UNL     1       1.896   2.350  -0.161  0.00  0.00    -0.078 C 
ATOM     33  N   UNL     1       2.302   1.770  -1.447  0.00  0.00    +0.382 N 
ATOM     34  H   UNL     1       1.547   2.053  -2.196  0.00  0.00    -0.081 HD
BRANCH  28  36
ATOM     35  C   UNL     1       1.881   0.242  -3.836  0.00  0.00    +0.002 C 
ATOM     36  C   UNL     1       2.808  -0.256  -2.725  0.00  0.00    -0.019 C 
ENDBRANCH  28  36
ENDBRANCH  27  33
ENDBRANCH  26  27
ENDBRANCH  25  26
ENDBRANCH  21  25
ENDBRANCH   1  22
TORSDOF 7
