REMARK  Name = ZINC37130833
REMARK  8 active torsions:
REMARK  status: ('A' for Active; 'I' for Inactive)
REMARK    1  A    between atoms: C_1  and  C_2
REMARK    2  A    between atoms: C_5  and  N_12
REMARK    3  A    between atoms: C_8  and  C_10
REMARK    4  A    between atoms: C_8  and  C_11
REMARK    5  A    between atoms: N_12  and  C_13
REMARK    6  A    between atoms: C_17  and  N_19
REMARK    7  A    between atoms: N_19  and  S_20
REMARK    8  A    between atoms: S_20  and  N_23
REMARK                            x       y       z     vdW  Elec       q    Type
REMARK                         _______ _______ _______ _____ _____    ______ ____
ROOT
ATOM      1  C   UNL     1       0.718  -2.636  -3.668  0.00  0.00    +0.029 A 
ATOM      2  C   UNL     1      -0.634  -2.318  -3.718  0.00  0.00    +0.023 A 
ATOM      3  C   UNL     1      -1.333  -2.454  -4.901  0.00  0.00    +0.004 A 
ATOM      4  C   UNL     1      -0.692  -2.904  -6.039  0.00  0.00    +0.024 A 
ATOM      5  C   UNL     1       0.660  -3.224  -5.996  0.00  0.00    +0.051 A 
ATOM      6  C   UNL     1       1.367  -3.084  -4.810  0.00  0.00    +0.047 A 
ENDROOT
BRANCH   1   7
ATOM      7  N   UNL     1       1.425  -2.500  -2.470  0.00  0.00    -0.341 N 
ATOM      8  H   UNL     1       2.369  -2.718  -2.437  0.00  0.00    +0.146 HD
BRANCH   7  12
ATOM      9  C   UNL     1      -0.019   1.526   0.010  0.00  0.00    +0.007 C 
ATOM     10  C   UNL     1       0.002  -0.004   0.002  0.00  0.00    -0.012 C 
ATOM     11  C   UNL     1       0.718  -0.497  -1.257  0.00  0.00    +0.025 C 
ATOM     12  C   UNL     1       0.739  -2.027  -1.265  0.00  0.00    +0.071 C 
ATOM     13  C   UNL     1       1.479  -2.534  -0.026  0.00  0.00    +0.028 C 
ATOM     14  C   UNL     1       0.763  -2.041   1.233  0.00  0.00    -0.033 C 
ATOM     15  C   UNL     1       0.742  -0.511   1.242  0.00  0.00    +0.009 C 
ATOM     16  C   UNL     1       1.503  -2.548   2.473  0.00  0.00    +0.011 C 
ATOM     17  C   UNL     1      -0.673  -2.570   1.244  0.00  0.00    +0.011 C 
ENDBRANCH   7  12
ENDBRANCH   1   7
BRANCH   5  18
ATOM     18  N   UNL     1       1.308  -3.680  -7.146  0.00  0.00    -0.207 N 
ATOM     19  H   UNL     1       1.904  -4.444  -7.096  0.00  0.00    +0.175 HD
BRANCH  18  20
ATOM     20  S   UNL     1       1.058  -2.918  -8.595  0.00  0.00    +0.107 S 
ATOM     21  O   UNL     1       1.865  -3.590  -9.552  0.00  0.00    -0.138 OA
ATOM     22  O   UNL     1      -0.349  -2.782  -8.745  0.00  0.00    -0.138 OA
BRANCH  20  23
ATOM     23  N   UNL     1       1.668  -1.385  -8.453  0.00  0.00    -0.191 NA
ATOM     24  H   UNL     1       2.076  -1.100  -7.620  0.00  0.00    +0.146 HD
ATOM     25  H   UNL     1       1.618  -0.772  -9.203  0.00  0.00    +0.146 HD
ENDBRANCH  20  23
ENDBRANCH  18  20
ENDBRANCH   5  18
TORSDOF 5
