REMARK  Name = ZINC06868073
REMARK  6 active torsions:
REMARK  status: ('A' for Active; 'I' for Inactive)
REMARK    1  A    between atoms: C_1  and  C_2
REMARK    2  A    between atoms: C_6  and  N_9
REMARK    3  A    between atoms: C_7  and  C_8
REMARK    4  A    between atoms: C_10  and  N_25
REMARK    5  A    between atoms: C_11  and  C_14
REMARK    6  A    between atoms: C_16  and  C_19
REMARK                            x       y       z     vdW  Elec       q    Type
REMARK                         _______ _______ _______ _____ _____    ______ ____
ROOT
ATOM      1  N   UNL     1       0.244  -2.940   2.157  0.00  0.00    -0.198 N 
ATOM      2  C   UNL     1       0.282  -4.302   2.145  0.00  0.00    +0.153 A 
ATOM      3  C   UNL     1       0.421  -4.699   3.468  0.00  0.00    +0.191 A 
ATOM      4  N   UNL     1       0.462  -3.594   4.233  0.00  0.00    -0.122 NA
ATOM      5  N   UNL     1       0.367  -2.545   3.496  0.00  0.00    -0.058 NA
ENDROOT
BRANCH   1  11
ATOM      6  C   UNL     1       1.763   0.989  -0.383  0.00  0.00    +0.044 C 
ATOM      7  C   UNL     1       0.835  -0.186  -0.210  0.00  0.00    -0.046 A 
ATOM      8  C   UNL     1      -0.148  -0.433  -1.151  0.00  0.00    +0.004 A 
ATOM      9  C   UNL     1      -1.001  -1.510  -0.997  0.00  0.00    +0.002 A 
ATOM     10  C   UNL     1      -0.874  -2.342   0.098  0.00  0.00    +0.028 A 
ATOM     11  C   UNL     1       0.112  -2.097   1.044  0.00  0.00    +0.072 A 
ATOM     12  C   UNL     1       0.971  -1.018   0.883  0.00  0.00    -0.022 A 
ATOM     13  C   UNL     1       2.047  -0.752   1.904  0.00  0.00    +0.046 C 
ENDBRANCH   1  11
BRANCH   3  14
ATOM     14  C   UNL     1       0.507  -6.087   3.948  0.00  0.00    +0.282 A 
ATOM     15  N   UNL     1       0.633  -6.462   5.203  0.00  0.00    -0.186 NA
ATOM     16  C   UNL     1       0.680  -7.801   5.276  0.00  0.00    +0.202 A 
ATOM     17  N   UNL     1       0.585  -8.296   4.066  0.00  0.00    -0.056 NA
ATOM     18  O   UNL     1       0.465  -7.192   3.182  0.00  0.00    -0.331 OA
BRANCH  16  19
ATOM     19  C   UNL     1       0.819  -8.594   6.524  0.00  0.00    +0.022 A 
ATOM     20  C   UNL     1       0.907  -7.948   7.755  0.00  0.00    +0.012 A 
ATOM     21  C   UNL     1       1.036  -8.690   8.912  0.00  0.00    +0.001 A 
ATOM     22  C   UNL     1       1.077 -10.071   8.851  0.00  0.00    +0.000 A 
ATOM     23  C   UNL     1       0.990 -10.716   7.631  0.00  0.00    +0.001 A 
ATOM     24  C   UNL     1       0.856  -9.985   6.468  0.00  0.00    +0.012 A 
ENDBRANCH  16  19
ENDBRANCH   3  14
BRANCH   2  25
ATOM     25  N   UNL     1       0.198  -5.125   1.037  0.00  0.00    -0.341 N 
ATOM     26  H   UNL     1       0.186  -4.740   0.147  0.00  0.00    +0.144 HD
ATOM     27  H   UNL     1       0.152  -6.087   1.150  0.00  0.00    +0.144 HD
ENDBRANCH   2  25
TORSDOF 4
