REMARK  Name = ZINC59875100
REMARK  6 active torsions:
REMARK  status: ('A' for Active; 'I' for Inactive)
REMARK    1  A    between atoms: C_1  and  C_2
REMARK    2  A    between atoms: C_2  and  C_3
REMARK    3  A    between atoms: C_3  and  C_5
REMARK    4  A    between atoms: C_3  and  C_6
REMARK    5  A    between atoms: C_6  and  C_8
REMARK    6  A    between atoms: C_6  and  N_19
REMARK                            x       y       z     vdW  Elec       q    Type
REMARK                         _______ _______ _______ _____ _____    ______ ____
ROOT
ATOM      1  C   UNL     1      -0.176  -0.225   2.354  0.00  0.00    +0.161 C 
ENDROOT
BRANCH   1   2
ATOM      2  N   UNL     1      -0.324   1.185   2.720  0.00  0.00    -0.316 N 
ATOM      3  C   UNL     1      -1.335   1.939   2.164  0.00  0.00    +0.150 C 
ATOM      4  N   UNL     1      -2.220   1.384   1.399  0.00  0.00    -0.113 NA
ATOM      5  S   UNL     1      -3.257   2.613   0.934  0.00  0.00    +0.101 S 
ATOM      6  O   UNL     1      -4.520   2.364   1.535  0.00  0.00    -0.146 OA
ATOM      7  O   UNL     1      -3.081   2.824  -0.461  0.00  0.00    -0.146 OA
ATOM      8  C   UNL     1      -2.512   3.977   1.785  0.00  0.00    +0.123 A 
ATOM      9  C   UNL     1      -1.425   3.381   2.439  0.00  0.00    +0.043 A 
ATOM     10  C   UNL     1      -0.611   4.211   3.225  0.00  0.00    +0.013 A 
ATOM     11  C   UNL     1      -0.891   5.555   3.338  0.00  0.00    +0.001 A 
ATOM     12  C   UNL     1      -1.975   6.113   2.684  0.00  0.00    +0.002 A 
ATOM     13  C   UNL     1      -2.786   5.309   1.895  0.00  0.00    +0.030 A 
ATOM     14  H   UNL     1       0.289   1.589   3.354  0.00  0.00    +0.148 HD
ENDBRANCH   1   2
BRANCH   1  15
ATOM     15  C   UNL     1       0.328  -1.002   3.543  0.00  0.00    +0.239 C 
ATOM     16  O   UNL     1       0.548  -0.433   4.591  0.00  0.00    -0.273 OA
ATOM     17  N   UNL     1       0.534  -2.330   3.442  0.00  0.00    -0.263 N 
ATOM     18  C   UNL     1       0.891  -3.066   4.566  0.00  0.00    +0.165 A 
ATOM     19  N   UNL     1       1.067  -2.644   5.794  0.00  0.00    -0.229 NA
ATOM     20  C   UNL     1       1.414  -3.474   6.788  0.00  0.00    +0.054 A 
ATOM     21  C   UNL     1       1.567  -4.767   6.420  0.00  0.00    +0.014 A 
ATOM     22  S   UNL     1       1.198  -4.717   4.683  0.00  0.00    -0.057 S 
ATOM     23  C   UNL     1       1.960  -5.640   7.573  0.00  0.00    +0.045 C 
ATOM     24  C   UNL     1       2.453  -4.656   8.658  0.00  0.00    +0.011 C 
ATOM     25  C   UNL     1       1.693  -3.366   8.285  0.00  0.00    +0.056 C 
ATOM     26  H   UNL     1       0.432  -2.773   2.585  0.00  0.00    +0.157 HD
ENDBRANCH   1  15
BRANCH   1  27
ATOM     27  C   UNL     1       0.823  -0.351   1.202  0.00  0.00    +0.015 C 
ATOM     28  C   UNL     1       0.236   0.295  -0.054  0.00  0.00    +0.010 C 
BRANCH  27  30
ATOM     29  C   UNL     1       2.821  -0.418   2.700  0.00  0.00    +0.004 C 
ATOM     30  C   UNL     1       2.127   0.356   1.578  0.00  0.00    +0.002 C 
ENDBRANCH  27  30
ENDBRANCH   1  27
TORSDOF 4
