REMARK  Name = ZINC25381994
REMARK  7 active torsions:
REMARK  status: ('A' for Active; 'I' for Inactive)
REMARK    1  A    between atoms: C_3  and  C_17
REMARK    2  A    between atoms: C_5  and  S_7
REMARK    3  A    between atoms: S_7  and  N_10
REMARK    4  A    between atoms: N_10  and  C_11
REMARK    5  A    between atoms: C_11  and  C_12
REMARK    6  A    between atoms: N_19  and  N_20
REMARK    7  A    between atoms: N_20  and  C_21
REMARK                            x       y       z     vdW  Elec       q    Type
REMARK                         _______ _______ _______ _____ _____    ______ ____
ROOT
ATOM      1  C   UNL     1       1.172   1.744   0.486  0.00  0.00    +0.003 A 
ATOM      2  C   UNL     1      -0.013   1.046   0.376  0.00  0.00    +0.013 A 
ATOM      3  C   UNL     1      -1.218   1.739   0.252  0.00  0.00    +0.040 A 
ATOM      4  C   UNL     1      -1.217   3.135   0.251  0.00  0.00    +0.041 A 
ATOM      5  C   UNL     1      -0.025   3.820   0.362  0.00  0.00    +0.106 A 
ATOM      6  C   UNL     1       1.167   3.127   0.480  0.00  0.00    +0.028 A 
ENDROOT
BRANCH   3   7
ATOM      7  C   UNL     1      -2.491   0.997   0.127  0.00  0.00    +0.260 C 
ATOM      8  O   UNL     1      -3.540   1.603   0.019  0.00  0.00    -0.269 OA
ATOM      9  N   UNL     1      -2.490  -0.350   0.132  0.00  0.00    -0.232 N 
ATOM     10  H   UNL     1      -1.541  -0.899   0.230  0.00  0.00    +0.173 HD
BRANCH   9  11
ATOM     11  N   UNL     1      -3.696  -1.053   0.014  0.00  0.00    -0.261 N 
ATOM     12  H   UNL     1      -4.652  -0.508   0.010  0.00  0.00    +0.170 HD
BRANCH  11  13
ATOM     13  C   UNL     1      -3.685  -2.447  -0.099  0.00  0.00    +0.081 A 
ATOM     14  C   UNL     1      -2.672  -3.080  -0.809  0.00  0.00    +0.066 A 
ATOM     15  C   UNL     1      -2.662  -4.458  -0.915  0.00  0.00    +0.042 A 
ATOM     16  C   UNL     1      -3.664  -5.207  -0.324  0.00  0.00    +0.044 A 
ATOM     17  C   UNL     1      -4.677  -4.579   0.379  0.00  0.00    +0.042 A 
ATOM     18  C   UNL     1      -4.690  -3.202   0.493  0.00  0.00    +0.066 A 
ATOM     19 CL   UNL     1      -5.961  -2.415   1.376  0.00  0.00    -0.081 Cl
ATOM     20 CL   UNL     1      -3.651  -6.937  -0.466  0.00  0.00    -0.083 Cl
ATOM     21 CL   UNL     1      -1.418  -2.142  -1.557  0.00  0.00    -0.081 Cl
ENDBRANCH  11  13
ENDBRANCH   9  11
ENDBRANCH   3   7
BRANCH   5  22
ATOM     22  S   UNL     1      -0.021   5.582   0.353  0.00  0.00    +0.059 S 
ATOM     23  O   UNL     1      -1.312   5.994   0.781  0.00  0.00    -0.153 OA
ATOM     24  O   UNL     1       1.167   5.989   1.018  0.00  0.00    -0.153 OA
BRANCH  22  25
ATOM     25  N   UNL     1       0.132   6.064  -1.224  0.00  0.00    -0.183 NA
ATOM     26  H   UNL     1       1.097   6.457  -1.575  0.00  0.00    +0.148 HD
BRANCH  25  27
ATOM     27  C   UNL     1      -0.932   5.766  -2.187  0.00  0.00    +0.180 C 
BRANCH  27  28
ATOM     28  C   UNL     1      -0.739   6.605  -3.424  0.00  0.00    +0.120 A 
ATOM     29  C   UNL     1      -0.022   6.256  -4.507  0.00  0.00    +0.046 A 
ATOM     30  C   UNL     1      -0.110   7.332  -5.420  0.00  0.00    +0.041 A 
ATOM     31  C   UNL     1      -0.875   8.274  -4.841  0.00  0.00    +0.195 A 
ATOM     32  O   UNL     1      -1.258   7.826  -3.634  0.00  0.00    -0.466 OA
ENDBRANCH  27  28
ENDBRANCH  25  27
ENDBRANCH  22  25
ENDBRANCH   5  22
TORSDOF 7
