REMARK  Name = ZINC44714407
REMARK  11 active torsions:
REMARK  status: ('A' for Active; 'I' for Inactive)
REMARK    1  A    between atoms: C_1  and  C_2
REMARK    2  A    between atoms: C_3  and  C_14
REMARK    3  A    between atoms: C_6  and  C_12
REMARK    4  A    between atoms: C_14  and  C_15
REMARK    5  A    between atoms: C_15  and  N_16
REMARK    6  A    between atoms: C_17  and  C_19
REMARK    7  A    between atoms: C_30  and  C_32
REMARK    8  A    between atoms: C_34  and  O_40
REMARK    9  A    between atoms: C_36  and  O_38
REMARK   10  A    between atoms: O_38  and  C_39
REMARK   11  A    between atoms: O_40  and  C_41
REMARK                            x       y       z     vdW  Elec       q    Type
REMARK                         _______ _______ _______ _____ _____    ______ ____
ROOT
ATOM      1  C   UNL     1       2.298   1.274  -7.086  0.00  0.00    +0.100 C 
ATOM      2  C   UNL     1       1.572   2.616  -6.842  0.00  0.00    +0.121 C 
ATOM      3  N   UNL     1       2.661   3.612  -6.709  0.00  0.00    -0.296 N 
ATOM      4  C   UNL     1       3.659   3.206  -7.728  0.00  0.00    +0.115 C 
ATOM      5  C   UNL     1       3.665   1.665  -7.671  0.00  0.00    -0.004 C 
ATOM      6  C   UNL     1       3.825   1.085  -9.073  0.00  0.00    -0.010 C 
ATOM      7  C   UNL     1       5.215   1.438  -9.611  0.00  0.00    -0.082 C 
ATOM      8  N   UNL     1       6.242   0.894  -8.714  0.00  0.00    +0.379 N 
ATOM      9  C   UNL     1       6.139   1.526  -7.393  0.00  0.00    -0.082 C 
ATOM     10  C   UNL     1       4.788   1.177  -6.761  0.00  0.00    -0.010 C 
ATOM     11  C   UNL     1       2.730   4.653  -5.856  0.00  0.00    +0.247 C 
ATOM     12  O   UNL     1       1.888   4.785  -4.989  0.00  0.00    -0.270 OA
ATOM     13  H   UNL     1       6.110  -0.102  -8.620  0.00  0.00    -0.086 HD
ATOM     14  H   UNL     1       7.155   1.074  -9.102  0.00  0.00    -0.086 HD
ENDROOT
BRANCH  11  15
ATOM     15  C   UNL     1       3.830   5.635  -5.973  0.00  0.00    +0.044 A 
ATOM     16  C   UNL     1       4.528   5.763  -7.174  0.00  0.00    +0.059 A 
ATOM     17  C   UNL     1       5.557   6.684  -7.280  0.00  0.00    +0.124 A 
ATOM     18  C   UNL     1       5.894   7.478  -6.194  0.00  0.00    +0.091 A 
ATOM     19  C   UNL     1       5.202   7.354  -4.997  0.00  0.00    +0.124 A 
ATOM     20  C   UNL     1       4.168   6.439  -4.885  0.00  0.00    +0.059 A 
BRANCH  19  21
ATOM     21  O   UNL     1       5.537   8.135  -3.936  0.00  0.00    -0.495 OA
ATOM     22  C   UNL     1       6.609   9.060  -4.124  0.00  0.00    +0.277 C 
ENDBRANCH  19  21
BRANCH  17  23
ATOM     23  O   UNL     1       6.238   6.809  -8.450  0.00  0.00    -0.495 OA
ATOM     24  C   UNL     1       7.287   7.778  -8.489  0.00  0.00    +0.277 C 
ENDBRANCH  17  23
ENDBRANCH  11  15
BRANCH   1  26
ATOM     25  N   UNL     1       2.631  -0.808  -5.793  0.00  0.00    -0.315 N 
ATOM     26  C   UNL     1       2.476   0.531  -5.787  0.00  0.00    +0.218 C 
ATOM     27  O   UNL     1       2.480   1.137  -4.737  0.00  0.00    -0.275 OA
ATOM     28  H   UNL     1       2.628  -1.293  -6.633  0.00  0.00    +0.149 HD
BRANCH  25  29
ATOM     29  C   UNL     1       2.805  -1.531  -4.531  0.00  0.00    +0.109 C 
BRANCH  29  30
ATOM     30  C   UNL     1       2.958  -3.026  -4.816  0.00  0.00    +0.056 C 
BRANCH  30  33
ATOM     31  C   UNL     1       0.690  -4.217  -3.064  0.00  0.00    +0.063 C 
ATOM     32  C   UNL     1       2.163  -4.288  -2.754  0.00  0.00    +0.017 A 
ATOM     33  C   UNL     1       3.137  -3.770  -3.518  0.00  0.00    -0.018 A 
ATOM     34  C   UNL     1       4.407  -4.065  -2.849  0.00  0.00    +0.004 A 
ATOM     35  C   UNL     1       5.741  -3.793  -3.143  0.00  0.00    +0.029 A 
ATOM     36  C   UNL     1       6.735  -4.227  -2.271  0.00  0.00    +0.052 A 
ATOM     37  C   UNL     1       6.391  -4.931  -1.109  0.00  0.00    +0.021 A 
ATOM     38  C   UNL     1       5.086  -5.199  -0.819  0.00  0.00    +0.027 A 
ATOM     39  C   UNL     1       4.074  -4.773  -1.677  0.00  0.00    +0.047 A 
ATOM     40  N   UNL     1       2.704  -4.887  -1.649  0.00  0.00    -0.358 N 
ATOM     41  H   UNL     1       2.197  -5.327  -0.949  0.00  0.00    +0.166 HD
BRANCH  36  42
ATOM     42  C   UNL     1       8.111  -3.955  -2.562  0.00  0.00    +0.099 C 
ATOM     43  N   UNL     1       9.202  -3.739  -2.793  0.00  0.00    -0.191 NA
ENDBRANCH  36  42
ENDBRANCH  30  33
ENDBRANCH  29  30
ENDBRANCH  25  29
ENDBRANCH   1  26
TORSDOF 8
