REMARK  Name = ZINC55165525
REMARK  5 active torsions:
REMARK  status: ('A' for Active; 'I' for Inactive)
REMARK    1  A    between atoms: C_1  and  C_2
REMARK    2  A    between atoms: C_7  and  C_8
REMARK    3  A    between atoms: C_7  and  C_9
REMARK    4  A    between atoms: C_11  and  N_13
REMARK    5  A    between atoms: C_14  and  C_16
REMARK                            x       y       z     vdW  Elec       q    Type
REMARK                         _______ _______ _______ _____ _____    ______ ____
ROOT
ATOM      1  N   UNL     1      -0.124  -0.708  -2.377  0.00  0.00    -0.305 N 
ATOM      2  C   UNL     1      -0.275   0.393  -3.139  0.00  0.00    +0.283 C 
ATOM      3  O   UNL     1       0.310   1.418  -2.848  0.00  0.00    -0.267 OA
ATOM      4  H   UNL     1      -0.590  -1.527  -2.609  0.00  0.00    +0.149 HD
ENDROOT
BRANCH   1  14
ATOM      5  C   UNL     1      -0.267   1.301   0.201  0.00  0.00    +0.013 C 
ATOM      6  C   UNL     1      -0.061  -0.208   0.056  0.00  0.00    -0.008 C 
ATOM      7  C   UNL     1      -1.358  -1.075   0.051  0.00  0.00    +0.009 C 
ATOM      8  C   UNL     1      -0.877  -2.499   0.412  0.00  0.00    +0.005 C 
ATOM      9  C   UNL     1       0.665  -2.358   0.600  0.00  0.00    -0.003 C 
ATOM     10  C   UNL     1       0.753  -0.910   1.199  0.00  0.00    -0.025 C 
ATOM     11  C   UNL     1       2.195  -0.405   1.269  0.00  0.00    +0.012 C 
ATOM     12  C   UNL     1       0.048  -0.805   2.553  0.00  0.00    +0.012 C 
ATOM     13  C   UNL     1       1.216  -2.131  -0.841  0.00  0.00    +0.027 C 
ATOM     14  C   UNL     1       0.744  -0.669  -1.197  0.00  0.00    +0.080 C 
ENDBRANCH   1  14
BRANCH   2  15
ATOM     15  C   UNL     1      -1.150   0.353  -4.330  0.00  0.00    +0.238 A 
ATOM     16  N   UNL     1      -1.377   1.378  -5.168  0.00  0.00    -0.190 NA
ATOM     17  C   UNL     1      -2.202   1.000  -6.115  0.00  0.00    +0.209 A 
ATOM     18  N   UNL     1      -2.525  -0.296  -5.899  0.00  0.00    -0.246 N 
ATOM     19  H   UNL     1      -3.118  -0.844  -6.437  0.00  0.00    +0.192 HD
ATOM     20  N   UNL     1      -1.831  -0.693  -4.745  0.00  0.00    -0.146 NA
ATOM     21  N   UNL     1      -2.662   1.789  -7.154  0.00  0.00    -0.328 N 
ATOM     22  H   UNL     1      -2.373   2.712  -7.227  0.00  0.00    +0.145 HD
ATOM     23  H   UNL     1      -3.273   1.419  -7.810  0.00  0.00    +0.145 HD
ENDBRANCH   2  15
TORSDOF 2
