REMARK  Name = ZINC41076186
REMARK  8 active torsions:
REMARK  status: ('A' for Active; 'I' for Inactive)
REMARK    1  A    between atoms: C_1  and  C_2
REMARK    2  A    between atoms: C_2  and  C_3
REMARK    3  A    between atoms: C_4  and  N_21
REMARK    4  A    between atoms: C_5  and  C_17
REMARK    5  A    between atoms: C_7  and  C_8
REMARK    6  A    between atoms: C_13  and  N_14
REMARK    7  A    between atoms: C_17  and  O_19
REMARK    8  A    between atoms: O_19  and  C_20
REMARK                            x       y       z     vdW  Elec       q    Type
REMARK                         _______ _______ _______ _____ _____    ______ ____
ROOT
ATOM      1  C   UNL     1       0.734   0.548   1.326  0.00  0.00    -0.011 A 
ATOM      2  C   UNL     1       2.061   0.294   1.074  0.00  0.00    +0.050 A 
ATOM      3  C   UNL     1       2.659  -0.794   1.712  0.00  0.00    +0.118 A 
ATOM      4  S   UNL     1       1.309  -1.453   2.676  0.00  0.00    -0.080 S 
ATOM      5  C   UNL     1       0.052  -0.278   2.200  0.00  0.00    +0.027 A 
ENDROOT
BRANCH   5   6
ATOM      6  C   UNL     1      -1.360  -0.206   2.631  0.00  0.00    +0.019 A 
ATOM      7  C   UNL     1      -2.367  -0.734   1.821  0.00  0.00    +0.011 A 
ATOM      8  C   UNL     1      -3.683  -0.665   2.229  0.00  0.00    +0.001 A 
ATOM      9  C   UNL     1      -4.005  -0.073   3.438  0.00  0.00    +0.002 A 
ATOM     10  C   UNL     1      -3.012   0.453   4.245  0.00  0.00    +0.033 A 
ATOM     11  C   UNL     1      -1.691   0.385   3.851  0.00  0.00    +0.134 A 
BRANCH  11  12
ATOM     12  N   UNL     1      -0.629   0.942   4.718  0.00  0.00    +0.057 N 
ATOM     13  O   UNL     1      -0.924   1.536   5.730  0.00  0.00    -0.126 OA
ATOM     14  O   UNL     1       0.533   0.804   4.416  0.00  0.00    -0.126 OA
ENDBRANCH  11  12
ENDBRANCH   5   6
BRANCH   2  15
ATOM     15  N   UNL     1       2.790   1.101   0.204  0.00  0.00    -0.357 N 
ATOM     16  H   UNL     1       2.361   1.854  -0.232  0.00  0.00    +0.142 HD
ATOM     17  H   UNL     1       3.726   0.910   0.036  0.00  0.00    +0.142 HD
ENDBRANCH   2  15
BRANCH   1  19
ATOM     18  C   UNL     1       0.299   2.985   1.468  0.00  0.00    +0.009 C 
ATOM     19  C   UNL     1       0.037   1.710   0.665  0.00  0.00    +0.035 C 
ENDBRANCH   1  19
BRANCH   3  20
ATOM     20  C   UNL     1       3.990  -1.256   1.619  0.00  0.00    +0.347 C 
ATOM     21  O   UNL     1       4.786  -0.677   0.902  0.00  0.00    -0.244 OA
BRANCH  20  22
ATOM     22  O   UNL     1       4.380  -2.339   2.323  0.00  0.00    -0.464 OA
ATOM     23  C   UNL     1       5.741  -2.751   2.181  0.00  0.00    +0.280 C 
ENDBRANCH  20  22
ENDBRANCH   3  20
TORSDOF 6
