REMARK  Name = ZINC09547493
REMARK  6 active torsions:
REMARK  status: ('A' for Active; 'I' for Inactive)
REMARK    1  A    between atoms: C_1  and  C_2
REMARK    2  A    between atoms: C_10  and  C_12
REMARK    3  A    between atoms: C_15  and  S_18
REMARK    4  A    between atoms: S_18  and  C_19
REMARK    5  A    between atoms: C_23  and  C_26
REMARK    6  A    between atoms: C_29  and  O_32
REMARK                            x       y       z     vdW  Elec       q    Type
REMARK                         _______ _______ _______ _____ _____    ______ ____
ROOT
ATOM      1  C   UNL     1       2.922   3.160  -3.181  0.00  0.00    +0.069 C 
ATOM      2  C   UNL     1       2.704   4.518  -2.564  0.00  0.00    +0.087 A 
ATOM      3  C   UNL     1       2.510   4.803  -1.215  0.00  0.00    +0.049 A 
ATOM      4  C   UNL     1       2.361   6.165  -1.170  0.00  0.00    +0.226 A 
ATOM      5  O   UNL     1       2.466   6.593  -2.424  0.00  0.00    -0.339 OA
ATOM      6  N   UNL     1       2.657   5.668  -3.189  0.00  0.00    -0.081 NA
ATOM      7  N   UNL     1       2.151   6.821   0.025  0.00  0.00    -0.286 N 
ATOM      8  C   UNL     1       2.377   6.140   1.198  0.00  0.00    +0.019 C 
ATOM      9  C   UNL     1       2.534   4.800   1.241  0.00  0.00    +0.024 C 
ATOM     10  C   UNL     1       2.452   3.935   0.000  0.00  0.00    +0.091 C 
ATOM     11  C   UNL     1       2.785   4.140   2.458  0.00  0.00    +0.162 C 
ATOM     12  O   UNL     1       2.904   2.931   2.464  0.00  0.00    -0.292 OA
ATOM     13  C   UNL     1       2.911   4.896   3.751  0.00  0.00    +0.088 C 
ATOM     14  C   UNL     1       3.415   6.312   3.451  0.00  0.00    +0.032 C 
ATOM     15  C   UNL     1       2.448   6.966   2.462  0.00  0.00    +0.059 C 
ATOM     16  H   UNL     1       1.851   7.743   0.038  0.00  0.00    +0.155 HD
ENDROOT
BRANCH  10  17
ATOM     17  C   UNL     1       1.155   3.166   0.008  0.00  0.00    -0.035 A 
ATOM     18  C   UNL     1       1.173   1.783   0.000  0.00  0.00    +0.005 A 
ATOM     19  C   UNL     1      -0.013   1.076   0.008  0.00  0.00    +0.015 A 
ATOM     20  C   UNL     1      -1.225   1.755   0.017  0.00  0.00    +0.008 A 
ATOM     21  C   UNL     1      -1.239   3.145   0.030  0.00  0.00    +0.015 A 
ATOM     22  C   UNL     1      -0.049   3.845   0.023  0.00  0.00    +0.005 A 
BRANCH  20  23
ATOM     23  S   UNL     1      -2.741   0.857   0.020  0.00  0.00    -0.129 S 
ATOM     24  C   UNL     1      -4.016   2.147   0.033  0.00  0.00    +0.090 C 
ENDBRANCH  20  23
ENDBRANCH  10  17
BRANCH  14  25
ATOM     25  C   UNL     1       3.460   7.116   4.725  0.00  0.00    -0.043 A 
ATOM     26  C   UNL     1       2.301   7.328   5.449  0.00  0.00    +0.007 A 
ATOM     27  C   UNL     1       2.340   8.059   6.620  0.00  0.00    +0.045 A 
ATOM     28  C   UNL     1       3.542   8.591   7.063  0.00  0.00    +0.117 A 
ATOM     29  C   UNL     1       4.703   8.382   6.333  0.00  0.00    +0.045 A 
ATOM     30  C   UNL     1       4.659   7.644   5.165  0.00  0.00    +0.007 A 
BRANCH  28  31
ATOM     31  O   UNL     1       3.583   9.317   8.212  0.00  0.00    -0.507 OA
ATOM     32  H   UNL     1       3.438  10.264   8.084  0.00  0.00    +0.292 HD
ENDBRANCH  28  31
ENDBRANCH  14  25
TORSDOF 4
