REMARK  Name = ZINC38684542
REMARK  10 active torsions:
REMARK  status: ('A' for Active; 'I' for Inactive)
REMARK    1  A    between atoms: C_2  and  C_3
REMARK    2  A    between atoms: C_3  and  O_4
REMARK    3  A    between atoms: O_4  and  C_5
REMARK    4  A    between atoms: C_9  and  C_11
REMARK    5  A    between atoms: C_16  and  O_25
REMARK    6  A    between atoms: C_20  and  N_24
REMARK    7  A    between atoms: C_21  and  C_22
REMARK    8  A    between atoms: O_25  and  C_26
REMARK    9  A    between atoms: C_26  and  C_28
REMARK   10  A    between atoms: C_33  and  N_34
REMARK                            x       y       z     vdW  Elec       q    Type
REMARK                         _______ _______ _______ _____ _____    ______ ____
ROOT
ATOM      1  C   UNL     1       3.506  -5.803   3.135  0.00  0.00    +0.098 C 
ATOM      2  C   UNL     1       4.619  -5.545   4.116  0.00  0.00    +0.008 A 
ATOM      3  C   UNL     1       4.452  -4.583   5.096  0.00  0.00    +0.012 A 
ATOM      4  C   UNL     1       5.462  -4.333   6.005  0.00  0.00    +0.047 A 
ATOM      5  C   UNL     1       6.649  -5.049   5.937  0.00  0.00    +0.135 A 
ATOM      6  C   UNL     1       6.818  -6.014   4.957  0.00  0.00    +0.093 A 
ATOM      7  C   UNL     1       5.802  -6.263   4.044  0.00  0.00    +0.138 A 
ATOM      8  O   UNL     1       5.984  -7.210   3.091  0.00  0.00    -0.441 OA
ATOM      9  C   UNL     1       4.922  -7.739   2.460  0.00  0.00    +0.199 C 
ATOM     10  C   UNL     1       3.721  -7.121   2.445  0.00  0.00    +0.098 C 
ENDROOT
BRANCH   1  15
ATOM     11  C   UNL     1       2.332  -2.897   1.024  0.00  0.00    +0.121 A 
ATOM     12  C   UNL     1       3.442  -2.676   0.220  0.00  0.00    +0.045 A 
ATOM     13  C   UNL     1       4.565  -3.467   0.363  0.00  0.00    +0.004 A 
ATOM     14  C   UNL     1       4.585  -4.478   1.306  0.00  0.00    +0.005 A 
ATOM     15  C   UNL     1       3.481  -4.700   2.108  0.00  0.00    -0.031 A 
ATOM     16  C   UNL     1       2.357  -3.909   1.973  0.00  0.00    +0.050 A 
BRANCH  11  17
ATOM     17  O   UNL     1       1.226  -2.121   0.885  0.00  0.00    -0.488 OA
BRANCH  17  18
ATOM     18  C   UNL     1       1.271  -1.099  -0.113  0.00  0.00    +0.256 C 
BRANCH  18  20
ATOM     19  C   UNL     1      -0.035   0.963  -0.175  0.00  0.00    +0.007 C 
ATOM     20  C   UNL     1      -0.034  -0.346  -0.120  0.00  0.00    +0.006 C 
ENDBRANCH  18  20
ENDBRANCH  17  18
ENDBRANCH  11  17
ENDBRANCH   1  15
BRANCH   9  21
ATOM     21  N   UNL     1       5.063  -8.941   1.813  0.00  0.00    -0.328 N 
ATOM     22  H   UNL     1       5.920  -9.396   1.815  0.00  0.00    +0.145 HD
ATOM     23  H   UNL     1       4.306  -9.336   1.354  0.00  0.00    +0.145 HD
ENDBRANCH   9  21
BRANCH  10  24
ATOM     24  C   UNL     1       2.629  -7.737   1.754  0.00  0.00    +0.101 C 
ATOM     25  N   UNL     1       1.762  -8.227   1.206  0.00  0.00    -0.191 NA
ENDBRANCH  10  24
BRANCH   5  26
ATOM     26  O   UNL     1       7.643  -4.804   6.830  0.00  0.00    -0.422 OA
BRANCH  26  27
ATOM     27  C   UNL     1       7.420  -5.107   8.124  0.00  0.00    +0.347 C 
ATOM     28  O   UNL     1       6.393  -5.670   8.448  0.00  0.00    -0.244 OA
BRANCH  27  29
ATOM     29  C   UNL     1       8.424  -4.755   9.149  0.00  0.00    +0.089 A 
ATOM     30  C   UNL     1       9.744  -5.191   9.017  0.00  0.00    +0.017 A 
ATOM     31  C   UNL     1      10.676  -4.858   9.977  0.00  0.00    +0.001 A 
ATOM     32  C   UNL     1      10.306  -4.094  11.070  0.00  0.00    +0.002 A 
ATOM     33  C   UNL     1       9.000  -3.659  11.208  0.00  0.00    +0.033 A 
ATOM     34  C   UNL     1       8.058  -3.980  10.251  0.00  0.00    +0.140 A 
BRANCH  34  35
ATOM     35  N   UNL     1       6.663  -3.508  10.396  0.00  0.00    +0.057 N 
ATOM     36  O   UNL     1       6.317  -2.946  11.410  0.00  0.00    -0.126 OA
ATOM     37  O   UNL     1       5.869  -3.683   9.502  0.00  0.00    -0.126 OA
ENDBRANCH  34  35
ENDBRANCH  27  29
ENDBRANCH  26  27
ENDBRANCH   5  26
TORSDOF 10
