REMARK  Name = ZINC12377536
REMARK  7 active torsions:
REMARK  status: ('A' for Active; 'I' for Inactive)
REMARK    1  A    between atoms: C_1  and  C_2
REMARK    2  A    between atoms: C_2  and  C_4
REMARK    3  A    between atoms: C_6  and  C_18
REMARK    4  A    between atoms: C_12  and  C_13
REMARK    5  A    between atoms: C_12  and  O_17
REMARK    6  A    between atoms: C_20  and  N_25
REMARK    7  A    between atoms: C_23  and  O_24
REMARK                            x       y       z     vdW  Elec       q    Type
REMARK                         _______ _______ _______ _____ _____    ______ ____
ROOT
ATOM      1  C   UNL     1       0.066   1.827   2.510  0.00  0.00    +0.139 C 
ATOM      2  C   UNL     1      -0.827   1.574   3.729  0.00  0.00    +0.123 C 
ATOM      3  N   UNL     1      -1.923   2.544   3.731  0.00  0.00    -0.292 N 
ATOM      4  C   UNL     1      -1.779   3.762   3.188  0.00  0.00    +0.302 C 
ATOM      5  O   UNL     1      -2.718   4.533   3.225  0.00  0.00    -0.253 OA
ATOM      6  N   UNL     1      -0.639   4.163   2.606  0.00  0.00    -0.264 N 
ATOM      7  C   UNL     1       0.532   3.286   2.540  0.00  0.00    +0.243 C 
ATOM      8  H   UNL     1      -2.890   2.279   4.184  0.00  0.00    +0.151 HD
ATOM      9  H   UNL     1      -0.595   5.173   2.174  0.00  0.00    +0.153 HD
ENDROOT
BRANCH   2  10
ATOM     10  C   UNL     1      -1.389   0.178   3.662  0.00  0.00    +0.017 A 
ATOM     11  C   UNL     1      -2.640  -0.038   3.116  0.00  0.00    +0.041 A 
ATOM     12  C   UNL     1      -3.156  -1.319   3.053  0.00  0.00    +0.127 A 
ATOM     13  C   UNL     1      -2.423  -2.387   3.536  0.00  0.00    +0.036 A 
ATOM     14  C   UNL     1      -1.172  -2.177   4.083  0.00  0.00    +0.048 A 
ATOM     15  C   UNL     1      -0.649  -0.893   4.142  0.00  0.00    +0.122 A 
BRANCH  12  16
ATOM     16  N   UNL     1      -4.497  -1.547   2.468  0.00  0.00    +0.056 N 
ATOM     17  O   UNL     1      -5.143  -0.607   2.042  0.00  0.00    -0.126 OA
ATOM     18  O   UNL     1      -4.953  -2.675   2.412  0.00  0.00    -0.126 OA
ENDBRANCH  12  16
BRANCH  15  19
ATOM     19  O   UNL     1       0.584  -0.684   4.674  0.00  0.00    -0.506 OA
ATOM     20  H   UNL     1       1.169  -1.534   5.055  0.00  0.00    +0.292 HD
ENDBRANCH  15  19
ENDBRANCH   2  10
BRANCH   7  21
ATOM     21  C   UNL     1       1.413   3.516   3.769  0.00  0.00    +0.436 C 
ATOM     22  F   UNL     1       2.527   2.672   3.708  0.00  0.00    -0.166 F 
ATOM     23  F   UNL     1       1.838   4.849   3.796  0.00  0.00    -0.166 F 
ATOM     24  F   UNL     1       0.680   3.237   4.928  0.00  0.00    -0.166 F 
ENDBRANCH   7  21
BRANCH   1  26
ATOM     25  C   UNL     1      -0.013   1.086   0.008  0.00  0.00    +0.086 C 
ATOM     26  C   UNL     1      -0.718   1.572   1.248  0.00  0.00    +0.140 C 
ATOM     27  O   UNL     1      -1.911   1.757   1.230  0.00  0.00    -0.297 OA
ENDBRANCH   1  26
BRANCH   7  28
ATOM     28  O   UNL     1       1.277   3.574   1.355  0.00  0.00    -0.364 OA
ATOM     29  H   UNL     1       1.695   4.580   1.200  0.00  0.00    +0.212 HD
ENDBRANCH   7  28
TORSDOF 6
