REMARK  Name = ZINC23847891
REMARK  5 active torsions:
REMARK  status: ('A' for Active; 'I' for Inactive)
REMARK    1  A    between atoms: C_4  and  C_7
REMARK    2  A    between atoms: C_7  and  C_8
REMARK    3  A    between atoms: N_12  and  C_16
REMARK    4  A    between atoms: C_16  and  N_17
REMARK    5  A    between atoms: N_20  and  C_23
REMARK                            x       y       z     vdW  Elec       q    Type
REMARK                         _______ _______ _______ _____ _____    ______ ____
ROOT
ATOM      1  C   UNL     1      -2.945   0.711   1.462  0.00  0.00    +0.165 C 
ATOM      2  C   UNL     1      -4.239  -0.078   1.494  0.00  0.00    +0.245 C 
ATOM      3  O   UNL     1      -4.431  -1.188   1.045  0.00  0.00    -0.273 OA
ATOM      4  N   UNL     1      -5.131   0.710   2.125  0.00  0.00    -0.211 N 
ATOM      5  C   UNL     1      -4.587   1.876   2.493  0.00  0.00    +0.310 C 
ATOM      6  O   UNL     1      -5.194   2.751   3.077  0.00  0.00    -0.252 OA
ATOM      7  N   UNL     1      -3.291   1.970   2.143  0.00  0.00    -0.287 N 
ATOM      8  H   UNL     1      -2.529   2.754   2.270  0.00  0.00    +0.151 HD
ENDROOT
BRANCH   1   9
ATOM      9  C   UNL     1      -2.514   0.980   0.019  0.00  0.00    +0.067 C 
BRANCH   9  13
ATOM     10  C   UNL     1       1.156   3.165   0.008  0.00  0.00    +0.000 A 
ATOM     11  C   UNL     1       1.175   1.783   0.000  0.00  0.00    +0.000 A 
ATOM     12  C   UNL     1      -0.013   1.076   0.008  0.00  0.00    +0.004 A 
ATOM     13  C   UNL     1      -1.219   1.751   0.017  0.00  0.00    -0.045 A 
ATOM     14  C   UNL     1      -1.238   3.133   0.030  0.00  0.00    +0.004 A 
ATOM     15  C   UNL     1      -0.050   3.840   0.023  0.00  0.00    +0.000 A 
ENDBRANCH   9  13
ENDBRANCH   1   9
BRANCH   4  16
ATOM     16  C   UNL     1      -6.526   0.338   2.377  0.00  0.00    +0.205 C 
BRANCH  16  17
ATOM     17  N   UNL     1      -7.359   0.769   1.247  0.00  0.00    -0.283 NA
ATOM     18  C   UNL     1      -7.697   2.195   1.355  0.00  0.00    +0.105 C 
ATOM     19  C   UNL     1      -8.497   2.622   0.122  0.00  0.00    +0.120 C 
ATOM     20  N   UNL     1      -9.712   1.802   0.021  0.00  0.00    -0.327 N 
ATOM     21  C   UNL     1      -9.374   0.376  -0.087  0.00  0.00    +0.120 C 
ATOM     22  C   UNL     1      -8.574  -0.051   1.146  0.00  0.00    +0.105 C 
BRANCH  20  23
ATOM     23  C   UNL     1     -10.502   2.210  -1.050  0.00  0.00    +0.032 A 
ATOM     24  C   UNL     1     -10.869   1.312  -2.051  0.00  0.00    +0.040 A 
ATOM     25  C   UNL     1     -11.657   1.754  -3.092  0.00  0.00    +0.084 A 
ATOM     26  N   UNL     1     -12.054   3.012  -3.154  0.00  0.00    -0.367 N 
ATOM     27  C   UNL     1     -11.723   3.894  -2.228  0.00  0.00    +0.084 A 
ATOM     28  C   UNL     1     -10.942   3.530  -1.152  0.00  0.00    +0.040 A 
ATOM     29  H   UNL     1     -12.678   3.352  -3.993  0.00  0.00    +0.165 HD
ENDBRANCH  20  23
ENDBRANCH  16  17
ENDBRANCH   4  16
TORSDOF 5
