REMARK  Name = ZINC32485811
REMARK  3 active torsions:
REMARK  status: ('A' for Active; 'I' for Inactive)
REMARK    1  A    between atoms: C_1  and  C_2
REMARK    2  A    between atoms: N_10  and  N_14
REMARK    3  A    between atoms: C_15  and  C_17
REMARK                            x       y       z     vdW  Elec       q    Type
REMARK                         _______ _______ _______ _____ _____    ______ ____
ROOT
ATOM      1  C   UNL     1      -6.847   5.337   0.623  0.00  0.00    +0.007 C 
ATOM      2  C   UNL     1      -5.522   4.746   1.109  0.00  0.00    -0.014 C 
ATOM      3  C   UNL     1      -5.547   3.227   0.934  0.00  0.00    +0.006 C 
ATOM      4  C   UNL     1      -4.226   2.635   1.432  0.00  0.00    +0.035 C 
ATOM      5  C   UNL     1      -3.067   3.236   0.644  0.00  0.00    +0.114 C 
ATOM      6  C   UNL     1      -3.045   4.754   0.789  0.00  0.00    +0.035 C 
ATOM      7  C   UNL     1      -4.371   5.337   0.293  0.00  0.00    +0.006 C 
ATOM      8  C   UNL     1      -1.754   2.644   1.103  0.00  0.00    +0.263 C 
ATOM      9  O   UNL     1      -1.267   2.709   2.211  0.00  0.00    -0.271 OA
ATOM     10  N   UNL     1      -1.239   2.027   0.019  0.00  0.00    -0.137 N 
ATOM     11  C   UNL     1      -2.038   2.155  -1.048  0.00  0.00    +0.326 C 
ATOM     12  O   UNL     1      -1.785   1.689  -2.141  0.00  0.00    -0.251 OA
ATOM     13  N   UNL     1      -3.155   2.856  -0.772  0.00  0.00    -0.284 N 
ATOM     14  H   UNL     1      -4.028   3.156  -1.369  0.00  0.00    +0.151 HD
ENDROOT
BRANCH  10  15
ATOM     15  N   UNL     1      -0.016   1.344   0.009  0.00  0.00    -0.220 N 
ATOM     16  C   UNL     1       0.002  -0.004   0.002  0.00  0.00    +0.261 C 
ATOM     17  O   UNL     1      -1.042  -0.626   0.009  0.00  0.00    -0.269 OA
ATOM     18  H   UNL     1       0.929   1.907   0.008  0.00  0.00    +0.174 HD
BRANCH  16  19
ATOM     19  C   UNL     1       1.292  -0.726  -0.014  0.00  0.00    +0.039 A 
ATOM     20  C   UNL     1       2.493  -0.014  -0.028  0.00  0.00    +0.014 A 
ATOM     21  C   UNL     1       3.693  -0.692  -0.036  0.00  0.00    +0.022 A 
ATOM     22  C   UNL     1       3.709  -2.077  -0.044  0.00  0.00    +0.054 A 
ATOM     23  C   UNL     1       2.521  -2.789  -0.037  0.00  0.00    +0.032 A 
ATOM     24  C   UNL     1       1.314  -2.121  -0.022  0.00  0.00    +0.029 A 
ATOM     25  I   UNL     1       2.557  -4.884  -0.049  0.00  0.00    -0.042 I 
ATOM     26 CL   UNL     1       5.225  -2.924  -0.062  0.00  0.00    -0.082 Cl
ENDBRANCH  16  19
ENDBRANCH  10  15
TORSDOF 2
