REMARK  Name = ZINC31194043
REMARK  10 active torsions:
REMARK  status: ('A' for Active; 'I' for Inactive)
REMARK    1  A    between atoms: C_1  and  C_2
REMARK    2  A    between atoms: C_2  and  N_3
REMARK    3  A    between atoms: N_3  and  C_4
REMARK    4  A    between atoms: N_3  and  C_6
REMARK    5  A    between atoms: C_4  and  C_5
REMARK    6  A    between atoms: C_6  and  C_8
REMARK    7  A    between atoms: C_6  and  C_25
REMARK    8  A    between atoms: C_8  and  N_9
REMARK    9  A    between atoms: N_12  and  C_13
REMARK   10  A    between atoms: C_13  and  C_14
REMARK                            x       y       z     vdW  Elec       q    Type
REMARK                         _______ _______ _______ _____ _____    ______ ____
ROOT
ATOM      1  N   UNL     1       1.508   9.784   0.962  0.00  0.00    -0.301 N 
ATOM      2  C   UNL     1       0.572   9.068   0.308  0.00  0.00    +0.300 C 
ATOM      3  O   UNL     1      -0.341   9.635  -0.260  0.00  0.00    -0.253 OA
ATOM      4  N   UNL     1       0.649   7.722   0.284  0.00  0.00    -0.296 N 
ATOM      5  H   UNL     1       2.334   9.271   1.476  0.00  0.00    +0.150 HD
ATOM      6  H   UNL     1       1.475   7.209   0.798  0.00  0.00    +0.150 HD
ENDROOT
BRANCH   1   7
ATOM      7  C   UNL     1       1.425  11.246   0.988  0.00  0.00    +0.095 C 
BRANCH   7   8
ATOM      8  C   UNL     1       2.506  11.802   1.918  0.00  0.00    -0.020 C 
BRANCH   8   9
ATOM      9  C   UNL     1       2.491  13.308   1.861  0.00  0.00    -0.052 A 
ATOM     10  C   UNL     1       3.472  13.993   1.169  0.00  0.00    +0.009 A 
ATOM     11  C   UNL     1       3.430  15.348   1.137  0.00  0.00    +0.045 A 
ATOM     12  S   UNL     1       1.972  15.694   2.107  0.00  0.00    -0.105 S 
ATOM     13  C   UNL     1       1.514  14.011   2.484  0.00  0.00    +0.047 A 
ENDBRANCH   8   9
BRANCH   8  14
ATOM     14  N   UNL     1       2.242  11.361   3.294  0.00  0.00    +0.385 N 
ATOM     15  H   UNL     1       2.593  12.151   3.975  0.00  0.00    -0.081 HD
BRANCH  14  17
ATOM     16  C   UNL     1       0.525  11.131   5.025  0.00  0.00    -0.017 C 
ATOM     17  C   UNL     1       0.802  11.177   3.521  0.00  0.00    -0.081 C 
ENDBRANCH  14  17
BRANCH  14  18
ATOM     18  C   UNL     1       2.985  10.133   3.605  0.00  0.00    -0.081 C 
ATOM     19  C   UNL     1       4.456  10.476   3.853  0.00  0.00    -0.017 C 
ENDBRANCH  14  18
ENDBRANCH   8  14
ENDBRANCH   7   8
ENDBRANCH   1   7
BRANCH   4  20
ATOM     20  C   UNL     1      -0.368   6.943  -0.427  0.00  0.00    +0.153 C 
BRANCH  20  21
ATOM     21  C   UNL     1      -0.049   5.452  -0.300  0.00  0.00    +0.228 C 
ATOM     22  C   UNL     1      -1.112   4.631  -1.043  0.00  0.00    +0.275 C 
ATOM     23  O   UNL     1      -0.776   3.245  -0.916  0.00  0.00    -0.485 OA
ATOM     24  C   UNL     1       0.522   2.907  -1.145  0.00  0.00    +0.162 A 
ATOM     25  C   UNL     1       0.845   1.582  -1.401  0.00  0.00    +0.049 A 
ATOM     26  C   UNL     1       2.160   1.222  -1.627  0.00  0.00    +0.004 A 
ATOM     27  C   UNL     1       3.155   2.182  -1.609  0.00  0.00    +0.004 A 
ATOM     28  C   UNL     1       2.839   3.504  -1.361  0.00  0.00    +0.049 A 
ATOM     29  C   UNL     1       1.522   3.872  -1.129  0.00  0.00    +0.163 A 
ATOM     30  O   UNL     1       1.224   5.179  -0.893  0.00  0.00    -0.480 OA
ENDBRANCH  20  21
ENDBRANCH   4  20
TORSDOF 8
