REMARK  Name = ZINC53114941
REMARK  7 active torsions:
REMARK  status: ('A' for Active; 'I' for Inactive)
REMARK    1  A    between atoms: C_1  and  C_2
REMARK    2  A    between atoms: C_6  and  N_12
REMARK    3  A    between atoms: C_7  and  N_11
REMARK    4  A    between atoms: N_12  and  C_13
REMARK    5  A    between atoms: C_13  and  C_21
REMARK    6  A    between atoms: C_17  and  C_20
REMARK    7  A    between atoms: C_21  and  O_22
REMARK                            x       y       z     vdW  Elec       q    Type
REMARK                         _______ _______ _______ _____ _____    ______ ____
ROOT
ATOM      1  C   UNL     1      -5.377 -11.390  -5.454  0.00  0.00    +0.073 C 
ATOM      2  C   UNL     1      -4.467 -10.485  -4.665  0.00  0.00    +0.076 A 
ATOM      3  N   UNL     1      -4.804  -9.538  -3.840  0.00  0.00    -0.244 NA
ATOM      4  C   UNL     1      -3.887  -8.791  -3.189  0.00  0.00    +0.080 A 
ATOM      5  C   UNL     1      -4.071  -7.735  -2.270  0.00  0.00    +0.053 A 
ATOM      6  C   UNL     1      -2.987  -7.097  -1.715  0.00  0.00    +0.051 A 
ATOM      7  C   UNL     1      -1.679  -7.471  -2.041  0.00  0.00    +0.047 A 
ATOM      8  C   UNL     1      -1.472  -8.505  -2.941  0.00  0.00    +0.041 A 
ATOM      9  C   UNL     1      -2.555  -9.145  -3.497  0.00  0.00    +0.041 A 
ATOM     10  S   UNL     1      -2.784 -10.476  -4.647  0.00  0.00    -0.072 S 
ENDROOT
BRANCH   7  11
ATOM     11  N   UNL     1      -0.588  -6.808  -1.464  0.00  0.00    -0.357 N 
ATOM     12  H   UNL     1      -0.738  -6.084  -0.835  0.00  0.00    +0.142 HD
ATOM     13  H   UNL     1       0.317  -7.071  -1.693  0.00  0.00    +0.142 HD
ENDBRANCH   7  11
BRANCH   6  14
ATOM     14  N   UNL     1      -3.197  -6.051  -0.805  0.00  0.00    -0.335 N 
ATOM     15  H   UNL     1      -2.443  -5.652  -0.342  0.00  0.00    +0.147 HD
BRANCH  14  16
ATOM     16  C   UNL     1      -4.554  -5.559  -0.554  0.00  0.00    +0.055 C 
ATOM     17  C   UNL     1      -4.492  -4.333   0.359  0.00  0.00    +0.028 C 
ATOM     18  C   UNL     1      -3.835  -4.719   1.687  0.00  0.00    +0.002 C 
ATOM     19  C   UNL     1      -4.658  -5.817   2.363  0.00  0.00    +0.003 C 
ATOM     20  C   UNL     1      -4.720  -7.043   1.449  0.00  0.00    -0.012 C 
ATOM     21  C   UNL     1      -5.377  -6.658   0.122  0.00  0.00    +0.031 C 
ATOM     22  C   UNL     1      -3.303  -7.556   1.187  0.00  0.00    +0.007 C 
BRANCH  16  23
ATOM     23  C   UNL     1      -5.211  -5.174  -1.881  0.00  0.00    +0.181 C 
BRANCH  23  24
ATOM     24  O   UNL     1      -4.404  -4.200  -2.546  0.00  0.00    -0.393 OA
ATOM     25  H   UNL     1      -4.760  -3.909  -3.397  0.00  0.00    +0.209 HD
ENDBRANCH  23  24
ENDBRANCH  16  23
ENDBRANCH  14  16
ENDBRANCH   6  14
TORSDOF 5
