REMARK  Name = ZINC38421432
REMARK  2 active torsions:
REMARK  status: ('A' for Active; 'I' for Inactive)
REMARK    1  A    between atoms: C_4  and  C_7
REMARK    2  A    between atoms: C_17  and  N_21
REMARK                            x       y       z     vdW  Elec       q    Type
REMARK                         _______ _______ _______ _____ _____    ______ ____
ROOT
ATOM      1  C   UNL     1       3.957  -0.602  -0.228  0.00  0.00    +0.282 C 
ATOM      2  O   UNL     1       4.721  -0.320  -1.401  0.00  0.00    -0.345 OA
ATOM      3  C   UNL     1       5.933  -1.076  -1.514  0.00  0.00    +0.197 C 
ATOM      4  C   UNL     1       5.578  -2.563  -1.473  0.00  0.00    +0.173 C 
ATOM      5  C   UNL     1       4.788  -2.838  -0.187  0.00  0.00    +0.155 C 
ATOM      6  O   UNL     1       3.635  -1.997  -0.177  0.00  0.00    -0.341 OA
ATOM      7  C   UNL     1       4.394  -4.315  -0.162  0.00  0.00    +0.062 C 
ATOM      8  C   UNL     1       5.673  -5.159  -0.236  0.00  0.00    +0.120 C 
ATOM      9  C   UNL     1       6.470  -4.778  -1.485  0.00  0.00    +0.185 C 
ATOM     10  O   UNL     1       6.750  -3.374  -1.475  0.00  0.00    -0.370 OA
ENDROOT
BRANCH   8  11
ATOM     11  N   UNL     1       6.489  -4.914   0.955  0.00  0.00    -0.295 N 
ATOM     12  C   UNL     1       7.721  -4.335   0.825  0.00  0.00    +0.096 A 
ATOM     13  C   UNL     1       8.473  -4.109   1.924  0.00  0.00    +0.088 A 
ATOM     14  C   UNL     1       7.967  -4.479   3.193  0.00  0.00    +0.254 A 
ATOM     15  O   UNL     1       8.627  -4.285   4.198  0.00  0.00    -0.268 OA
ATOM     16  N   UNL     1       6.748  -5.048   3.279  0.00  0.00    -0.275 N 
ATOM     17  H   UNL     1       6.394  -5.304   4.145  0.00  0.00    +0.173 HD
ATOM     18  C   UNL     1       6.017  -5.257   2.168  0.00  0.00    +0.330 A 
ATOM     19  O   UNL     1       4.917  -5.766   2.261  0.00  0.00    -0.246 OA
ENDBRANCH   8  11
BRANCH   1  23
ATOM     20  C   UNL     1       0.350   1.684  -0.304  0.00  0.00    +0.000 A 
ATOM     21  C   UNL     1       1.575   2.325  -0.323  0.00  0.00    +0.000 A 
ATOM     22  C   UNL     1       2.742   1.585  -0.298  0.00  0.00    +0.008 A 
ATOM     23  C   UNL     1       2.685   0.204  -0.254  0.00  0.00    +0.008 A 
ATOM     24  C   UNL     1       1.460  -0.436  -0.234  0.00  0.00    +0.008 A 
ATOM     25  C   UNL     1       0.292   0.303  -0.260  0.00  0.00    +0.000 A 
ENDBRANCH   1  23
TORSDOF 2
