REMARK  Name = ZINC19370085
REMARK  17 active torsions:
REMARK  status: ('A' for Active; 'I' for Inactive)
REMARK    1  A    between atoms: C_1  and  C_2
REMARK    2  A    between atoms: C_4  and  C_11
REMARK    3  A    between atoms: C_5  and  O_10
REMARK    4  A    between atoms: C_6  and  C_8
REMARK    5  A    between atoms: C_11  and  N_12
REMARK    6  A    between atoms: N_12  and  C_13
REMARK    7  A    between atoms: N_12  and  C_33
REMARK    8  A    between atoms: C_13  and  C_14
REMARK    9  A    between atoms: C_14  and  N_15
REMARK   10  A    between atoms: N_15  and  C_16
REMARK   11  A    between atoms: N_15  and  C_22
REMARK   12  A    between atoms: C_16  and  C_17
REMARK   13  A    between atoms: C_22  and  C_23
REMARK   14  A    between atoms: C_25  and  C_32
REMARK   15  A    between atoms: C_27  and  C_30
REMARK   16  A    between atoms: C_28  and  O_29
REMARK   17  A    between atoms: C_33  and  C_34
REMARK                            x       y       z     vdW  Elec       q    Type
REMARK                         _______ _______ _______ _____ _____    ______ ____
ROOT
ATOM      1  C   UNL     1      -0.768  -0.595  -1.891  0.00  0.00    -0.062 C 
ENDROOT
BRANCH   1   2
ATOM      2  N   UNL     1      -0.172  -1.440  -2.935  0.00  0.00    +0.388 N 
ATOM      3  H   UNL     1      -0.301  -0.928  -3.900  0.00  0.00    -0.081 HD
BRANCH   2   4
ATOM      4  C   UNL     1       1.268  -1.621  -2.708  0.00  0.00    -0.039 C 
BRANCH   4   8
ATOM      5  C   UNL     1       2.999  -5.731  -4.975  0.00  0.00    +0.044 C 
ATOM      6  C   UNL     1       2.719  -4.250  -5.004  0.00  0.00    -0.049 A 
ATOM      7  C   UNL     1       2.150  -3.635  -3.901  0.00  0.00    +0.008 A 
ATOM      8  C   UNL     1       1.888  -2.279  -3.914  0.00  0.00    -0.022 A 
ATOM      9  C   UNL     1       2.189  -1.523  -5.036  0.00  0.00    +0.128 A 
ATOM     10  C   UNL     1       2.771  -2.141  -6.155  0.00  0.00    +0.056 A 
ATOM     11  C   UNL     1       3.031  -3.517  -6.127  0.00  0.00    +0.018 A 
BRANCH  10  12
ATOM     12  C   UNL     1       3.101  -1.351  -7.348  0.00  0.00    +0.262 C 
ATOM     13  O   UNL     1       2.874  -0.160  -7.368  0.00  0.00    -0.296 OA
ENDBRANCH  10  12
BRANCH   9  14
ATOM     14  O   UNL     1       1.927  -0.192  -5.052  0.00  0.00    -0.506 OA
ATOM     15  H   UNL     1       2.167   0.405  -5.944  0.00  0.00    +0.292 HD
ENDBRANCH   9  14
ENDBRANCH   4   8
ENDBRANCH   2   4
BRANCH   2  16
ATOM     16  C   UNL     1      -0.859  -2.736  -3.018  0.00  0.00    -0.003 C 
BRANCH  16  17
ATOM     17  C   UNL     1      -2.182  -2.560  -3.718  0.00  0.00    +0.089 A 
ATOM     18  C   UNL     1      -2.407  -2.745  -5.032  0.00  0.00    +0.042 A 
ATOM     19  C   UNL     1      -3.776  -2.472  -5.255  0.00  0.00    +0.041 A 
ATOM     20  C   UNL     1      -4.306  -2.137  -4.064  0.00  0.00    +0.195 A 
ATOM     21  O   UNL     1      -3.337  -2.198  -3.137  0.00  0.00    -0.470 OA
ENDBRANCH  16  17
ENDBRANCH   2  16
ENDBRANCH   1   2
BRANCH   1  22
ATOM     22  C   UNL     1      -0.393   0.867  -2.144  0.00  0.00    +0.067 C 
BRANCH  22  23
ATOM     23  N   UNL     1      -0.913   1.702  -1.053  0.00  0.00    -0.293 NA
BRANCH  23  24
ATOM     24  C   UNL     1      -0.244   1.384   0.216  0.00  0.00    +0.159 C 
BRANCH  24  25
ATOM     25  C   UNL     1      -1.011   2.004   1.356  0.00  0.00    +0.119 A 
ATOM     26  C   UNL     1      -1.958   1.394   2.091  0.00  0.00    +0.046 A 
ATOM     27  C   UNL     1      -2.408   2.337   3.044  0.00  0.00    +0.041 A 
ATOM     28  C   UNL     1      -1.708   3.467   2.834  0.00  0.00    +0.195 A 
ATOM     29  O   UNL     1      -0.860   3.257   1.815  0.00  0.00    -0.467 OA
ENDBRANCH  24  25
ENDBRANCH  23  24
BRANCH  23  30
ATOM     30  C   UNL     1      -0.782   3.129  -1.373  0.00  0.00    +0.123 C 
BRANCH  30  31
ATOM     31  C   UNL     1       0.672   3.468  -1.573  0.00  0.00    +0.009 A 
ATOM     32  C   UNL     1       1.412   3.977  -0.523  0.00  0.00    +0.012 A 
ATOM     33  C   UNL     1       2.750   4.292  -0.695  0.00  0.00    -0.049 A 
ATOM     34  C   UNL     1       3.359   4.102  -1.916  0.00  0.00    +0.018 A 
ATOM     35  C   UNL     1       2.623   3.587  -2.989  0.00  0.00    +0.056 A 
ATOM     36  C   UNL     1       1.268   3.264  -2.809  0.00  0.00    +0.131 A 
ATOM     37  C   UNL     1       3.544   4.846   0.460  0.00  0.00    +0.044 C 
BRANCH  36  38
ATOM     38  O   UNL     1       0.544   2.760  -3.839  0.00  0.00    -0.506 OA
ATOM     39  H   UNL     1       1.019   2.599  -4.818  0.00  0.00    +0.292 HD
ENDBRANCH  36  38
BRANCH  35  40
ATOM     40  C   UNL     1       3.264   3.382  -4.294  0.00  0.00    +0.262 C 
ATOM     41  O   UNL     1       2.621   2.938  -5.222  0.00  0.00    -0.296 OA
ENDBRANCH  35  40
ENDBRANCH  30  31
ENDBRANCH  23  30
ENDBRANCH  22  23
ENDBRANCH   1  22
TORSDOF 15
