REMARK  Name = ZINC39675504
REMARK  11 active torsions:
REMARK  status: ('A' for Active; 'I' for Inactive)
REMARK    1  A    between atoms: C_1  and  C_2
REMARK    2  A    between atoms: C_6  and  C_8
REMARK    3  A    between atoms: C_8  and  C_9
REMARK    4  A    between atoms: C_13  and  C_22
REMARK    5  A    between atoms: N_24  and  C_25
REMARK    6  A    between atoms: C_25  and  C_27
REMARK    7  A    between atoms: C_25  and  C_28
REMARK    8  A    between atoms: C_28  and  C_29
REMARK    9  A    between atoms: C_29  and  C_30
REMARK   10  A    between atoms: C_33  and  O_36
REMARK   11  A    between atoms: O_36  and  C_37
REMARK                            x       y       z     vdW  Elec       q    Type
REMARK                         _______ _______ _______ _____ _____    ______ ____
ROOT
ATOM      1  C   UNL     1       1.628  -3.058   2.946  0.00  0.00    +0.220 C 
ATOM      2  O   UNL     1       2.559  -2.704   2.254  0.00  0.00    -0.275 OA
ATOM      3  N   UNL     1       1.855  -3.755   4.077  0.00  0.00    -0.300 N 
ATOM      4  C   UNL     1       0.856  -4.277   5.039  0.00  0.00    +0.121 C 
ATOM      5  C   UNL     1       1.397  -5.665   5.449  0.00  0.00    +0.100 C 
ATOM      6  C   UNL     1       2.910  -5.590   5.186  0.00  0.00    -0.004 C 
ATOM      7  C   UNL     1       3.162  -4.179   4.636  0.00  0.00    +0.115 C 
ATOM      8  C   UNL     1       3.319  -6.634   4.152  0.00  0.00    -0.010 C 
ATOM      9  C   UNL     1       4.836  -6.578   3.949  0.00  0.00    -0.082 C 
ATOM     10  N   UNL     1       5.512  -6.835   5.227  0.00  0.00    +0.379 N 
ATOM     11  C   UNL     1       5.186  -5.775   6.188  0.00  0.00    -0.082 C 
ATOM     12  C   UNL     1       3.684  -5.796   6.485  0.00  0.00    -0.010 C 
ATOM     13  H   UNL     1       5.208  -7.725   5.593  0.00  0.00    -0.086 HD
ATOM     14  H   UNL     1       6.510  -6.859   5.080  0.00  0.00    -0.086 HD
ENDROOT
BRANCH   5  15
ATOM     15  C   UNL     1       1.128  -5.922   6.910  0.00  0.00    +0.218 C 
ATOM     16  O   UNL     1       1.099  -4.996   7.693  0.00  0.00    -0.275 OA
ATOM     17  N   UNL     1       0.920  -7.180   7.345  0.00  0.00    -0.312 N 
ATOM     18  H   UNL     1       0.943  -7.920   6.719  0.00  0.00    +0.149 HD
BRANCH  17  19
ATOM     19  C   UNL     1       0.658  -7.430   8.765  0.00  0.00    +0.070 C 
ATOM     20  C   UNL     1       1.986  -7.547   9.515  0.00  0.00    +0.028 C 
BRANCH  19  21
ATOM     21  C   UNL     1      -0.130  -8.733   8.917  0.00  0.00    +0.026 C 
BRANCH  21  22
ATOM     22  C   UNL     1      -1.509  -8.573   8.273  0.00  0.00    +0.037 C 
BRANCH  22  23
ATOM     23  C   UNL     1      -2.285  -9.856   8.422  0.00  0.00    -0.047 A 
ATOM     24  C   UNL     1      -2.194 -10.835   7.450  0.00  0.00    +0.007 A 
ATOM     25  C   UNL     1      -2.904 -12.012   7.585  0.00  0.00    +0.046 A 
ATOM     26  C   UNL     1      -3.709 -12.212   8.697  0.00  0.00    +0.120 A 
ATOM     27  C   UNL     1      -3.799 -11.228   9.671  0.00  0.00    +0.046 A 
ATOM     28  C   UNL     1      -3.082 -10.055   9.534  0.00  0.00    +0.007 A 
BRANCH  26  29
ATOM     29  O   UNL     1      -4.410 -13.368   8.831  0.00  0.00    -0.495 OA
ATOM     30  C   UNL     1      -5.218 -13.505  10.001  0.00  0.00    +0.277 C 
ENDBRANCH  26  29
ENDBRANCH  22  23
ENDBRANCH  21  22
ENDBRANCH  19  21
ENDBRANCH  17  19
ENDBRANCH   5  15
BRANCH   1  31
ATOM     31  C   UNL     1       0.216  -2.721   2.540  0.00  0.00    +0.131 C 
BRANCH  31  37
ATOM     32  C   UNL     1       0.414   1.653   0.117  0.00  0.00    +0.044 C 
ATOM     33  C   UNL     1       0.331   0.149   0.089  0.00  0.00    -0.050 A 
ATOM     34  C   UNL     1       0.274  -0.519  -1.120  0.00  0.00    +0.003 A 
ATOM     35  C   UNL     1       0.197  -1.899  -1.145  0.00  0.00    +0.001 A 
ATOM     36  C   UNL     1       0.179  -2.611   0.040  0.00  0.00    +0.004 A 
ATOM     37  C   UNL     1       0.237  -1.944   1.249  0.00  0.00    -0.038 A 
ATOM     38  C   UNL     1       0.318  -0.564   1.274  0.00  0.00    +0.007 A 
ENDBRANCH  31  37
ENDBRANCH   1  31
TORSDOF 8
