REMARK  Name = ZINC01623152
REMARK  14 active torsions:
REMARK  status: ('A' for Active; 'I' for Inactive)
REMARK    1  A    between atoms: C_1  and  C_2
REMARK    2  A    between atoms: C_2  and  C_3
REMARK    3  A    between atoms: C_2  and  C_4
REMARK    4  A    between atoms: C_2  and  C_5
REMARK    5  A    between atoms: N_7  and  C_8
REMARK    6  A    between atoms: C_13  and  C_14
REMARK    7  A    between atoms: C_14  and  O_40
REMARK    8  A    between atoms: C_17  and  C_30
REMARK    9  A    between atoms: C_26  and  O_28
REMARK   10  A    between atoms: O_28  and  C_29
REMARK   11  A    between atoms: C_30  and  C_31
REMARK   12  A    between atoms: C_31  and  O_32
REMARK   13  A    between atoms: O_32  and  C_33
REMARK   14  A    between atoms: C_33  and  C_34
REMARK                            x       y       z     vdW  Elec       q    Type
REMARK                         _______ _______ _______ _____ _____    ______ ____
ROOT
ATOM      1  C   UNL     1       1.657  -2.790   0.044  0.00  0.00    +0.152 C 
ATOM      2  C   UNL     1       3.190  -2.795   0.088  0.00  0.00    +0.048 C 
ATOM      3  C   UNL     1       3.696  -1.363  -0.087  0.00  0.00    +0.017 C 
ATOM      4  C   UNL     1       3.334  -0.835  -1.477  0.00  0.00    +0.017 C 
ATOM      5  C   UNL     1       3.864   0.567  -1.610  0.00  0.00    -0.020 C 
ATOM      6  C   UNL     1       3.147   1.633  -1.452  0.00  0.00    -0.012 C 
ATOM      7  C   UNL     1       1.679   1.623  -1.135  0.00  0.00    +0.139 C 
ATOM      8  N   UNL     1       1.260   0.247  -0.820  0.00  0.00    -0.253 N 
ATOM      9  C   UNL     1       1.815  -0.826  -1.654  0.00  0.00    +0.159 C 
ATOM     10  C   UNL     1       1.241  -2.156  -1.251  0.00  0.00    +0.190 C 
ATOM     11  O   UNL     1       0.439  -2.715  -1.960  0.00  0.00    -0.292 OA
ATOM     12  C   UNL     1       0.404  -0.015   0.188  0.00  0.00    +0.403 C 
ATOM     13  O   UNL     1      -0.177  -1.081   0.230  0.00  0.00    -0.226 OA
ENDROOT
BRANCH   1  19
ATOM     14  C   UNL     1      -0.209  -4.462  -0.083  0.00  0.00    +0.040 A 
ATOM     15  C   UNL     1      -0.681  -5.767  -0.017  0.00  0.00    +0.024 A 
ATOM     16  C   UNL     1       0.194  -6.803   0.245  0.00  0.00    +0.002 A 
ATOM     17  C   UNL     1       1.538  -6.543   0.442  0.00  0.00    +0.000 A 
ATOM     18  C   UNL     1       2.011  -5.246   0.371  0.00  0.00    +0.009 A 
ATOM     19  C   UNL     1       1.141  -4.204   0.115  0.00  0.00    +0.012 A 
BRANCH  14  22
ATOM     20  C   UNL     1      -1.972  -3.508  -1.365  0.00  0.00    +0.223 C 
ATOM     21  O   UNL     1      -2.050  -4.538  -2.001  0.00  0.00    -0.275 OA
ATOM     22  N   UNL     1      -1.092  -3.410  -0.348  0.00  0.00    -0.285 N 
ATOM     23  H   UNL     1      -1.072  -2.609   0.199  0.00  0.00    +0.155 HD
BRANCH  20  25
ATOM     24  C   UNL     1      -3.835  -2.749  -2.815  0.00  0.00    +0.020 C 
ATOM     25  C   UNL     1      -2.858  -2.340  -1.711  0.00  0.00    +0.039 C 
ATOM     26  C   UNL     1      -3.642  -1.909  -0.469  0.00  0.00    +0.020 C 
ATOM     27  C   UNL     1      -1.996  -1.173  -2.199  0.00  0.00    +0.020 C 
ENDBRANCH  20  25
ENDBRANCH  14  22
ENDBRANCH   1  19
BRANCH  12  28
ATOM     28  O   UNL     1       0.194   0.904   1.149  0.00  0.00    -0.454 OA
ATOM     29  C   UNL     1      -0.741   0.554   2.204  0.00  0.00    +0.282 C 
ENDBRANCH  12  28
BRANCH   1  30
ATOM     30  O   UNL     1       1.144  -2.033   1.143  0.00  0.00    -0.376 OA
ATOM     31  H   UNL     1       0.225  -2.234   1.364  0.00  0.00    +0.211 HD
ENDBRANCH   1  30
BRANCH   4  32
ATOM     32  C   UNL     1       3.969  -1.725  -2.547  0.00  0.00    +0.041 C 
BRANCH  32  33
ATOM     33  C   UNL     1       5.475  -1.826  -2.299  0.00  0.00    +0.161 C 
BRANCH  33  34
ATOM     34  O   UNL     1       6.068  -2.657  -3.299  0.00  0.00    -0.375 OA
BRANCH  34  35
ATOM     35  C   UNL     1       7.481  -2.818  -3.159  0.00  0.00    +0.195 C 
BRANCH  35  36
ATOM     36  C   UNL     1       7.997  -3.708  -4.260  0.00  0.00    -0.022 A 
ATOM     37  C   UNL     1       8.061  -5.076  -4.069  0.00  0.00    +0.006 A 
ATOM     38  C   UNL     1       8.530  -5.893  -5.081  0.00  0.00    +0.000 A 
ATOM     39  C   UNL     1       8.945  -5.341  -6.279  0.00  0.00    +0.000 A 
ATOM     40  C   UNL     1       8.885  -3.973  -6.467  0.00  0.00    +0.000 A 
ATOM     41  C   UNL     1       8.412  -3.157  -5.457  0.00  0.00    +0.006 A 
ENDBRANCH  35  36
ENDBRANCH  34  35
ENDBRANCH  33  34
ENDBRANCH  32  33
ENDBRANCH   4  32
TORSDOF 10
