REMARK  Name = ZINC35356141
REMARK  3 active torsions:
REMARK  status: ('A' for Active; 'I' for Inactive)
REMARK    1  A    between atoms: C_3  and  O_9
REMARK    2  A    between atoms: O_9  and  C_10
REMARK    3  A    between atoms: C_15  and  N_16
REMARK                            x       y       z     vdW  Elec       q    Type
REMARK                         _______ _______ _______ _____ _____    ______ ____
ROOT
ATOM      1  C   UNL     1       3.379   3.456  -0.005  0.00  0.00    +0.151 A 
ATOM      2  C   UNL     1       2.105   3.994   0.075  0.00  0.00    +0.071 A 
ATOM      3  C   UNL     1       1.934   5.371   0.091  0.00  0.00    +0.040 A 
ATOM      4  C   UNL     1       3.040   6.209   0.027  0.00  0.00    -0.024 A 
ATOM      5  C   UNL     1       4.311   5.675  -0.053  0.00  0.00    +0.032 A 
ATOM      6  C   UNL     1       4.487   4.299  -0.063  0.00  0.00    +0.068 A 
ATOM      7  C   UNL     1       2.849   7.704   0.047  0.00  0.00    +0.046 C 
ATOM      8  C   UNL     1       1.552   8.063  -0.680  0.00  0.00    +0.101 C 
ATOM      9  C   UNL     1       0.427   7.199  -0.178  0.00  0.00    +0.218 C 
ATOM     10  O   UNL     1      -0.690   7.661  -0.089  0.00  0.00    -0.275 OA
ATOM     11  N   UNL     1       0.647   5.918   0.172  0.00  0.00    -0.285 N 
ATOM     12  H   UNL     1      -0.090   5.370   0.483  0.00  0.00    +0.155 HD
ENDROOT
BRANCH   6  13
ATOM     13  N   UNL     1       5.777   3.757  -0.138  0.00  0.00    -0.355 N 
ATOM     14  H   UNL     1       5.899   2.795  -0.149  0.00  0.00    +0.142 HD
ATOM     15  H   UNL     1       6.548   4.344  -0.178  0.00  0.00    +0.142 HD
ENDBRANCH   6  13
BRANCH   1  16
ATOM     16  O   UNL     1       3.548   2.107  -0.021  0.00  0.00    -0.453 OA
BRANCH  16  19
ATOM     17  C   UNL     1       3.989   1.556   3.549  0.00  0.00    +0.023 A 
ATOM     18  C   UNL     1       3.745   2.196   2.348  0.00  0.00    +0.049 A 
ATOM     19  C   UNL     1       3.788   1.480   1.161  0.00  0.00    +0.147 A 
ATOM     20  C   UNL     1       4.076   0.121   1.182  0.00  0.00    +0.085 A 
ATOM     21  C   UNL     1       4.319  -0.514   2.385  0.00  0.00    +0.043 A 
ATOM     22  C   UNL     1       4.276   0.203   3.568  0.00  0.00    +0.043 A 
ATOM     23 CL   UNL     1       4.582  -0.597   5.078  0.00  0.00    -0.083 Cl
ATOM     24 CL   UNL     1       4.130  -0.778  -0.302  0.00  0.00    -0.080 Cl
ENDBRANCH  16  19
ENDBRANCH   1  16
TORSDOF 3
