REMARK  Name = ZINC44857132
REMARK  8 active torsions:
REMARK  status: ('A' for Active; 'I' for Inactive)
REMARK    1  A    between atoms: C_1  and  C_2
REMARK    2  A    between atoms: C_2  and  C_4
REMARK    3  A    between atoms: C_2  and  N_14
REMARK    4  A    between atoms: C_7  and  S_10
REMARK    5  A    between atoms: S_10  and  C_13
REMARK    6  A    between atoms: C_15  and  C_17
REMARK    7  A    between atoms: N_20  and  C_23
REMARK    8  A    between atoms: C_23  and  C_24
REMARK                            x       y       z     vdW  Elec       q    Type
REMARK                         _______ _______ _______ _____ _____    ______ ____
ROOT
ATOM      1  N   UNL     1       0.688  -0.476  -1.203  0.00  0.00    -0.309 N 
ATOM      2  C   UNL     1       0.006  -0.608  -2.358  0.00  0.00    +0.216 C 
ATOM      3  O   UNL     1      -1.175  -0.336  -2.400  0.00  0.00    -0.276 OA
ATOM      4  H   UNL     1       1.632  -0.695  -1.170  0.00  0.00    +0.149 HD
ENDROOT
BRANCH   2   5
ATOM      5  C   UNL     1       0.712  -1.094  -3.598  0.00  0.00    +0.071 C 
ATOM      6  C   UNL     1       1.844  -0.127  -3.955  0.00  0.00    -0.006 C 
ATOM      7  C   UNL     1       2.505  -0.583  -5.258  0.00  0.00    -0.078 C 
ATOM      8  N   UNL     1       1.510  -0.593  -6.338  0.00  0.00    +0.382 N 
ATOM      9  C   UNL     1       0.458  -1.571  -6.036  0.00  0.00    -0.078 C 
ATOM     10  C   UNL     1      -0.282  -1.153  -4.763  0.00  0.00    -0.006 C 
ATOM     11  H   UNL     1       1.100   0.325  -6.425  0.00  0.00    -0.081 HD
BRANCH   8  12
ATOM     12  C   UNL     1       2.165  -0.956  -7.602  0.00  0.00    -0.040 C 
BRANCH  12  13
ATOM     13  C   UNL     1       1.173  -0.848  -8.731  0.00  0.00    -0.027 A 
ATOM     14  C   UNL     1       0.400  -1.940  -9.079  0.00  0.00    +0.044 A 
ATOM     15  C   UNL     1      -0.511  -1.841 -10.116  0.00  0.00    +0.020 A 
ATOM     16  C   UNL     1      -0.648  -0.649 -10.803  0.00  0.00    +0.003 A 
ATOM     17  C   UNL     1       0.124   0.443 -10.455  0.00  0.00    +0.020 A 
ATOM     18  C   UNL     1       1.030   0.346  -9.415  0.00  0.00    +0.044 A 
ATOM     19 CL   UNL     1       1.994   1.720  -8.973  0.00  0.00    -0.083 Cl
ATOM     20 CL   UNL     1       0.573  -3.437  -8.217  0.00  0.00    -0.083 Cl
ENDBRANCH  12  13
ENDBRANCH   8  12
ENDBRANCH   2   5
BRANCH   1  22
ATOM     21  C   UNL     1      -0.019   1.526   0.010  0.00  0.00    +0.033 C 
ATOM     22  C   UNL     1       0.002  -0.004   0.002  0.00  0.00    +0.100 C 
BRANCH  22  23
ATOM     23  C   UNL     1       0.731  -0.503   1.223  0.00  0.00    -0.027 A 
ATOM     24  C   UNL     1       2.113  -0.514   1.247  0.00  0.00    +0.007 A 
ATOM     25  C   UNL     1       2.782  -0.972   2.366  0.00  0.00    +0.027 A 
ATOM     26  C   UNL     1       2.068  -1.419   3.463  0.00  0.00    +0.088 A 
ATOM     27  C   UNL     1       0.686  -1.407   3.439  0.00  0.00    +0.027 A 
ATOM     28  C   UNL     1       0.017  -0.945   2.321  0.00  0.00    +0.007 A 
BRANCH  26  29
ATOM     29  S   UNL     1       2.920  -2.003   4.890  0.00  0.00    -0.006 S 
ATOM     30  O   UNL     1       2.014  -2.906   5.509  0.00  0.00    -0.170 OA
ATOM     31  O   UNL     1       4.175  -2.457   4.402  0.00  0.00    -0.170 OA
ATOM     32  C   UNL     1       3.148  -0.535   5.931  0.00  0.00    +0.200 C 
ENDBRANCH  26  29
ENDBRANCH  22  23
ENDBRANCH   1  22
TORSDOF 6
