REMARK  Name = ZINC46954659
REMARK  12 active torsions:
REMARK  status: ('A' for Active; 'I' for Inactive)
REMARK    1  A    between atoms: C_1  and  C_2
REMARK    2  A    between atoms: C_4  and  N_22
REMARK    3  A    between atoms: C_6  and  C_7
REMARK    4  A    between atoms: N_9  and  C_10
REMARK    5  A    between atoms: C_10  and  C_11
REMARK    6  A    between atoms: C_11  and  C_13
REMARK    7  A    between atoms: C_11  and  N_14
REMARK    8  A    between atoms: C_18  and  C_21
REMARK    9  A    between atoms: C_23  and  C_25
REMARK   10  A    between atoms: C_25  and  C_26
REMARK   11  A    between atoms: C_25  and  C_27
REMARK   12  A    between atoms: C_25  and  C_28
REMARK                            x       y       z     vdW  Elec       q    Type
REMARK                         _______ _______ _______ _____ _____    ______ ____
ROOT
ATOM      1  C   UNL     1       0.518  -0.102   2.698  0.00  0.00    +0.251 C 
ATOM      2  O   UNL     1       0.635   1.067   3.019  0.00  0.00    -0.270 OA
ATOM      3  N   UNL     1       0.257  -1.035   3.635  0.00  0.00    -0.312 N 
ATOM      4  H   UNL     1       0.164  -1.966   3.379  0.00  0.00    +0.149 HD
ENDROOT
BRANCH   1  10
ATOM      5  C   UNL     1       1.115   1.795   0.307  0.00  0.00    +0.045 C 
ATOM      6  C   UNL     1       0.924   0.305   0.191  0.00  0.00    -0.029 A 
ATOM      7  C   UNL     1       1.008  -0.347  -1.012  0.00  0.00    +0.035 A 
ATOM      8  C   UNL     1       0.822  -1.710  -1.037  0.00  0.00    +0.073 A 
ATOM      9  S   UNL     1       0.533  -2.114   0.568  0.00  0.00    -0.069 S 
ATOM     10  C   UNL     1       0.659  -0.492   1.297  0.00  0.00    +0.078 A 
BRANCH   8  11
ATOM     11  N   UNL     1       0.863  -2.558  -2.138  0.00  0.00    -0.280 N 
ATOM     12  C   UNL     1       0.656  -3.880  -1.978  0.00  0.00    +0.223 C 
ATOM     13  O   UNL     1       0.433  -4.330  -0.874  0.00  0.00    -0.275 OA
ATOM     14  H   UNL     1       1.041  -2.197  -3.021  0.00  0.00    +0.155 HD
BRANCH  12  15
ATOM     15  C   UNL     1       0.701  -4.799  -3.171  0.00  0.00    +0.039 C 
ATOM     16  C   UNL     1       0.435  -6.236  -2.719  0.00  0.00    +0.020 C 
ATOM     17  C   UNL     1      -0.368  -4.376  -4.181  0.00  0.00    +0.020 C 
ATOM     18  C   UNL     1       2.081  -4.717  -3.826  0.00  0.00    +0.020 C 
ENDBRANCH  12  15
ENDBRANCH   8  11
ENDBRANCH   1  10
BRANCH   3  19
ATOM     19  C   UNL     1       0.115  -0.643   5.039  0.00  0.00    +0.089 C 
BRANCH  19  20
ATOM     20  C   UNL     1      -0.042  -1.895   5.904  0.00  0.00    -0.054 C 
ATOM     21  C   UNL     1      -0.099  -1.492   7.379  0.00  0.00    -0.012 C 
BRANCH  20  22
ATOM     22  N   UNL     1       1.103  -2.789   5.685  0.00  0.00    +0.383 N 
ATOM     23  C   UNL     1       0.882  -4.050   6.404  0.00  0.00    -0.078 C 
ATOM     24  C   UNL     1       2.034  -5.015   6.113  0.00  0.00    -0.018 C 
ATOM     25  C   UNL     1       3.350  -4.385   6.576  0.00  0.00    -0.001 C 
ATOM     26  C   UNL     1       3.533  -3.036   5.875  0.00  0.00    -0.031 C 
ATOM     27  C   UNL     1       2.327  -2.144   6.174  0.00  0.00    -0.075 C 
ATOM     28  C   UNL     1       4.808  -2.362   6.387  0.00  0.00    +0.005 C 
ATOM     29  H   UNL     1       1.195  -2.979   4.698  0.00  0.00    -0.081 HD
ENDBRANCH  20  22
ENDBRANCH  19  20
ENDBRANCH   3  19
TORSDOF 6
