REMARK  Name = ZINC11963244
REMARK  11 active torsions:
REMARK  status: ('A' for Active; 'I' for Inactive)
REMARK    1  A    between atoms: C_1  and  O_2
REMARK    2  A    between atoms: O_2  and  C_3
REMARK    3  A    between atoms: C_3  and  C_4
REMARK    4  A    between atoms: C_4  and  N_5
REMARK    5  A    between atoms: N_5  and  C_6
REMARK    6  A    between atoms: C_6  and  C_7
REMARK    7  A    between atoms: C_15  and  N_16
REMARK    8  A    between atoms: C_20  and  C_23
REMARK    9  A    between atoms: C_23  and  O_24
REMARK   10  A    between atoms: C_26  and  C_28
REMARK   11  A    between atoms: C_28  and  C_29
REMARK                            x       y       z     vdW  Elec       q    Type
REMARK                         _______ _______ _______ _____ _____    ______ ____
ROOT
ATOM      1  C   UNL     1       3.790   7.529  -0.917  0.00  0.00    +0.008 A 
ATOM      2  C   UNL     1       4.945   8.252  -0.924  0.00  0.00    +0.018 A 
ATOM      3  C   UNL     1       6.128   7.617  -1.351  0.00  0.00    -0.001 A 
ATOM      4  C   UNL     1       7.352   8.303  -1.383  0.00  0.00    +0.011 A 
ATOM      5  C   UNL     1       8.476   7.657  -1.802  0.00  0.00    +0.021 A 
ATOM      6  C   UNL     1       8.427   6.322  -2.200  0.00  0.00    +0.043 A 
ATOM      7  C   UNL     1       7.255   5.627  -2.181  0.00  0.00    +0.046 A 
ATOM      8  C   UNL     1       6.075   6.260  -1.755  0.00  0.00    +0.049 A 
ATOM      9  C   UNL     1       3.802   6.189  -1.328  0.00  0.00    +0.104 A 
ATOM     10 CL   UNL     1       9.880   5.533  -2.728  0.00  0.00    -0.083 Cl
ATOM     11  N   UNL     1       4.910   5.526  -1.743  0.00  0.00    -0.343 N 
ATOM     12  H   UNL     1       4.882   4.540  -2.029  0.00  0.00    +0.167 HD
ENDROOT
BRANCH   9  13
ATOM     13  N   UNL     1       2.619   5.466  -1.315  0.00  0.00    -0.316 N 
ATOM     14  C   UNL     1       2.554   4.584  -0.143  0.00  0.00    +0.106 C 
ATOM     15  C   UNL     1       1.180   3.913  -0.083  0.00  0.00    +0.019 C 
ATOM     16  C   UNL     1       0.955   3.106  -1.365  0.00  0.00    +0.009 C 
ATOM     17  C   UNL     1       1.076   4.039  -2.573  0.00  0.00    +0.032 C 
ATOM     18  C   UNL     1       2.453   4.706  -2.561  0.00  0.00    +0.112 C 
BRANCH  17  19
ATOM     19  C   UNL     1       0.911   3.230  -3.861  0.00  0.00    +0.160 C 
BRANCH  19  20
ATOM     20  O   UNL     1      -0.415   2.703  -3.927  0.00  0.00    -0.395 OA
ATOM     21  H   UNL     1      -0.591   2.178  -4.720  0.00  0.00    +0.209 HD
ENDBRANCH  19  20
ENDBRANCH  17  19
ENDBRANCH   9  13
BRANCH   1  22
ATOM     22  C   UNL     1       2.502   8.169  -0.467  0.00  0.00    +0.146 C 
BRANCH  22  23
ATOM     23  N   UNL     1       2.783   9.495   0.089  0.00  0.00    -0.295 N 
ATOM     24  C   UNL     1       2.901  10.558  -0.730  0.00  0.00    +0.216 C 
ATOM     25  O   UNL     1       2.775  10.418  -1.928  0.00  0.00    -0.276 OA
BRANCH  23  26
ATOM     26  C   UNL     1       2.936   9.665   1.536  0.00  0.00    +0.136 C 
BRANCH  26  27
ATOM     27  C   UNL     1       4.373   9.329   1.940  0.00  0.00    +0.178 C 
BRANCH  27  29
ATOM     28  C   UNL     1       6.643  10.046   1.662  0.00  0.00    +0.194 C 
ATOM     29  O   UNL     1       5.268  10.271   1.346  0.00  0.00    -0.381 OA
ENDBRANCH  27  29
ENDBRANCH  26  27
ENDBRANCH  23  26
BRANCH  24  30
ATOM     30  C   UNL     1       3.191  11.922  -0.158  0.00  0.00    +0.099 C 
BRANCH  30  31
ATOM     31  C   UNL     1       3.275  12.944  -1.293  0.00  0.00    -0.002 C 
ATOM     32  C   UNL     1       4.510  12.658  -2.172  0.00  0.00    +0.004 C 
ATOM     33  C   UNL     1       5.034  14.064  -2.559  0.00  0.00    +0.000 C 
ATOM     34  C   UNL     1       4.806  14.883  -1.264  0.00  0.00    +0.000 C 
ATOM     35  C   UNL     1       3.463  14.358  -0.716  0.00  0.00    +0.004 C 
ENDBRANCH  30  31
ENDBRANCH  24  30
ENDBRANCH  22  23
ENDBRANCH   1  22
TORSDOF 10
