REMARK  Name = ZINC02400925
REMARK  8 active torsions:
REMARK  status: ('A' for Active; 'I' for Inactive)
REMARK    1  A    between atoms: C_1  and  C_2
REMARK    2  A    between atoms: C_2  and  C_3
REMARK    3  A    between atoms: C_3  and  C_5
REMARK    4  A    between atoms: C_3  and  O_6
REMARK    5  A    between atoms: O_6  and  C_7
REMARK    6  A    between atoms: C_7  and  C_9
REMARK    7  A    between atoms: N_20  and  C_23
REMARK    8  A    between atoms: C_21  and  N_22
REMARK                            x       y       z     vdW  Elec       q    Type
REMARK                         _______ _______ _______ _____ _____    ______ ____
ROOT
ATOM      1  C   UNL     1       0.949  -2.140  -0.018  0.00  0.00    +0.126 A 
ATOM      2  C   UNL     1       1.288  -0.707  -0.014  0.00  0.00    +0.125 A 
ATOM      3  C   UNL     1       0.002  -0.004   0.002  0.00  0.00    +0.167 A 
ATOM      4  N   UNL     1      -0.016   1.312   0.009  0.00  0.00    -0.225 NA
ATOM      5  C   UNL     1       1.136   1.994   0.002  0.00  0.00    +0.092 A 
ATOM      6  C   UNL     1       1.126   3.402   0.010  0.00  0.00    +0.030 A 
ATOM      7  C   UNL     1       2.301   4.087   0.003  0.00  0.00    +0.002 A 
ATOM      8  C   UNL     1       3.523   3.416  -0.013  0.00  0.00    +0.002 A 
ATOM      9  C   UNL     1       3.573   2.057  -0.021  0.00  0.00    +0.030 A 
ATOM     10  C   UNL     1       2.378   1.312  -0.014  0.00  0.00    +0.090 A 
ATOM     11  N   UNL     1       2.416  -0.026  -0.021  0.00  0.00    -0.241 NA
ATOM     12  N   UNL     1      -0.986  -0.970   0.007  0.00  0.00    -0.280 N 
ATOM     13  C   UNL     1      -0.440  -2.218  -0.004  0.00  0.00    +0.119 A 
ENDROOT
BRANCH  12  14
ATOM     14  C   UNL     1      -2.362  -0.702   0.022  0.00  0.00    +0.051 A 
ATOM     15  C   UNL     1      -3.152  -1.062  -1.061  0.00  0.00    +0.029 A 
ATOM     16  C   UNL     1      -4.508  -0.797  -1.045  0.00  0.00    +0.042 A 
ATOM     17  C   UNL     1      -5.079  -0.173   0.051  0.00  0.00    +0.142 A 
ATOM     18  C   UNL     1      -4.293   0.188   1.133  0.00  0.00    +0.078 A 
ATOM     19  C   UNL     1      -2.937  -0.081   1.123  0.00  0.00    +0.049 A 
ATOM     20 CL   UNL     1      -5.012   0.971   2.506  0.00  0.00    -0.081 Cl
ATOM     21  F   UNL     1      -6.405   0.086   0.065  0.00  0.00    -0.204 F 
ENDBRANCH  12  14
BRANCH  13  22
ATOM     22  N   UNL     1      -1.158  -3.385  -0.003  0.00  0.00    -0.343 N 
ATOM     23  H   UNL     1      -0.697  -4.238  -0.011  0.00  0.00    +0.144 HD
ATOM     24  H   UNL     1      -2.127  -3.358   0.006  0.00  0.00    +0.144 HD
ENDBRANCH  13  22
BRANCH   1  25
ATOM     25  C   UNL     1       1.859  -3.226  -0.033  0.00  0.00    +0.345 C 
ATOM     26  O   UNL     1       2.260  -3.697   1.015  0.00  0.00    -0.245 OA
BRANCH  25  27
ATOM     27  O   UNL     1       2.280  -3.737  -1.208  0.00  0.00    -0.458 OA
BRANCH  27  28
ATOM     28  C   UNL     1       3.197  -4.831  -1.149  0.00  0.00    +0.173 C 
ATOM     29  C   UNL     1       4.630  -4.295  -1.134  0.00  0.00    +0.052 C 
BRANCH  28  31
ATOM     30  C   UNL     1       1.609  -6.364  -2.321  0.00  0.00    +0.007 C 
ATOM     31  C   UNL     1       3.000  -5.729  -2.372  0.00  0.00    +0.041 C 
ENDBRANCH  28  31
ENDBRANCH  27  28
ENDBRANCH  25  27
ENDBRANCH   1  25
TORSDOF 6
