REMARK  Name = ZINC09815972
REMARK  6 active torsions:
REMARK  status: ('A' for Active; 'I' for Inactive)
REMARK    1  A    between atoms: C_10  and  C_12
REMARK    2  A    between atoms: C_12  and  O_14
REMARK    3  A    between atoms: O_14  and  C_15
REMARK    4  A    between atoms: C_15  and  C_16
REMARK    5  A    between atoms: N_18  and  C_19
REMARK    6  A    between atoms: C_20  and  C_27
REMARK                            x       y       z     vdW  Elec       q    Type
REMARK                         _______ _______ _______ _____ _____    ______ ____
ROOT
ATOM      1  C   UNL     1      -1.063  -2.120   0.001  0.00  0.00    +0.328 C 
ENDROOT
BRANCH   1   2
ATOM      2  C   UNL     1      -2.448  -2.715   0.011  0.00  0.00    +0.255 C 
ATOM      3  O   UNL     1      -3.419  -1.990   0.024  0.00  0.00    -0.272 OA
ATOM      4  N   UNL     1      -2.606  -4.054   0.005  0.00  0.00    -0.277 N 
ATOM      5  H   UNL     1      -1.829  -4.634  -0.005  0.00  0.00    +0.155 HD
BRANCH   4   6
ATOM      6  C   UNL     1      -3.880  -4.601   0.014  0.00  0.00    +0.084 A 
ATOM      7  C   UNL     1      -4.242  -5.937   0.005  0.00  0.00    +0.068 A 
ATOM      8  C   UNL     1      -5.671  -6.252   0.022  0.00  0.00    -0.023 A 
ATOM      9  C   UNL     1      -6.490  -5.185   0.036  0.00  0.00    -0.004 A 
ATOM     10  S   UNL     1      -5.404  -3.780   0.033  0.00  0.00    -0.077 S 
ATOM     11  C   UNL     1      -7.940  -5.588   0.051  0.00  0.00    +0.043 C 
ATOM     12  C   UNL     1      -7.927  -7.071   0.481  0.00  0.00    +0.010 C 
ATOM     13  C   UNL     1      -6.526  -7.519   0.022  0.00  0.00    +0.037 C 
BRANCH   7  14
ATOM     14  C   UNL     1      -3.231  -6.998  -0.017  0.00  0.00    +0.244 C 
ATOM     15  O   UNL     1      -2.800  -7.450   1.027  0.00  0.00    -0.270 OA
ATOM     16  N   UNL     1      -2.779  -7.474  -1.195  0.00  0.00    -0.325 N 
ATOM     17  H   UNL     1      -3.123  -7.114  -2.027  0.00  0.00    +0.145 HD
ATOM     18  H   UNL     1      -2.110  -8.176  -1.210  0.00  0.00    +0.145 HD
ENDBRANCH   7  14
ENDBRANCH   4   6
ENDBRANCH   1   2
BRANCH   1  19
ATOM     19  O   UNL     1      -1.157  -0.695   0.009  0.00  0.00    -0.451 OA
BRANCH  19  20
ATOM     20  C   UNL     1       0.002  -0.004   0.002  0.00  0.00    +0.346 C 
ATOM     21  O   UNL     1       1.064  -0.598  -0.011  0.00  0.00    -0.244 OA
BRANCH  20  31
ATOM     22  C   UNL     1      -2.513   7.269   0.302  0.00  0.00    +0.001 A 
ATOM     23  C   UNL     1      -1.513   8.185   0.025  0.00  0.00    +0.004 A 
ATOM     24  C   UNL     1      -0.227   7.763  -0.256  0.00  0.00    +0.046 A 
ATOM     25  C   UNL     1       0.075   6.414  -0.266  0.00  0.00    +0.129 A 
ATOM     26  C   UNL     1      -0.945   5.482   0.032  0.00  0.00    +0.031 A 
ATOM     27  C   UNL     1      -2.232   5.916   0.306  0.00  0.00    +0.012 A 
ATOM     28  C   UNL     1      -0.537   4.083   0.027  0.00  0.00    +0.030 A 
ATOM     29  C   UNL     1       0.812   3.693   0.015  0.00  0.00    +0.005 A 
ATOM     30  C   UNL     1       1.052   2.345   0.005  0.00  0.00    +0.030 A 
ATOM     31  C   UNL     1      -0.018   1.458   0.010  0.00  0.00    +0.097 A 
ATOM     32  S   UNL     1      -1.425   2.562   0.021  0.00  0.00    -0.081 S 
ATOM     33  C   UNL     1       1.861   4.800   0.022  0.00  0.00    +0.265 C 
ATOM     34  O   UNL     1       1.314   5.971  -0.581  0.00  0.00    -0.487 OA
ENDBRANCH  20  31
ENDBRANCH  19  20
ENDBRANCH   1  19
TORSDOF 6
