REMARK  Name = ZINC28016469
REMARK  11 active torsions:
REMARK  status: ('A' for Active; 'I' for Inactive)
REMARK    1  A    between atoms: C_1  and  C_2
REMARK    2  A    between atoms: C_5  and  C_33
REMARK    3  A    between atoms: C_10  and  C_14
REMARK    4  A    between atoms: N_16  and  C_17
REMARK    5  A    between atoms: C_17  and  C_19
REMARK    6  A    between atoms: C_17  and  C_26
REMARK    7  A    between atoms: C_19  and  C_20
REMARK    8  A    between atoms: C_20  and  C_21
REMARK    9  A    between atoms: C_21  and  N_22
REMARK   10  A    between atoms: C_26  and  C_28
REMARK   11  A    between atoms: C_33  and  C_34
REMARK                            x       y       z     vdW  Elec       q    Type
REMARK                         _______ _______ _______ _____ _____    ______ ____
ROOT
ATOM      1  C   UNL     1      -3.170   6.981   2.234  0.00  0.00    +0.235 C 
ATOM      2  O   UNL     1      -3.037   6.083   3.038  0.00  0.00    -0.274 OA
ATOM      3  N   UNL     1      -2.997   6.739   0.919  0.00  0.00    -0.304 N 
ATOM      4  H   UNL     1      -3.118   7.553   0.190  0.00  0.00    +0.149 HD
ENDROOT
BRANCH   1  13
ATOM      5  C   UNL     1      -1.473   7.335   4.788  0.00  0.00    +0.044 C 
ATOM      6  C   UNL     1      -2.351   8.587   4.831  0.00  0.00    +0.082 C 
ATOM      7  C   UNL     1      -2.503   9.094   6.250  0.00  0.00    +0.037 C 
ATOM      8  C   UNL     1      -3.899   9.659   6.504  0.00  0.00    +0.016 C 
ATOM      9  C   UNL     1      -4.924   8.538   6.269  0.00  0.00    +0.080 C 
ATOM     10  C   UNL     1      -4.822   8.138   4.816  0.00  0.00    +0.221 C 
ATOM     11  O   UNL     1      -5.768   7.638   4.245  0.00  0.00    -0.275 OA
ATOM     12  N   UNL     1      -3.654   8.348   4.165  0.00  0.00    -0.274 N 
ATOM     13  C   UNL     1      -3.528   8.367   2.704  0.00  0.00    +0.173 C 
ATOM     14  C   UNL     1      -2.461   9.356   2.181  0.00  0.00    +0.103 C 
ATOM     15  S   UNL     1      -1.684   9.927   3.754  0.00  0.00    -0.133 S 
BRANCH   9  16
ATOM     16  C   UNL     1      -6.334   9.050   6.571  0.00  0.00    +0.048 C 
BRANCH  16  17
ATOM     17  C   UNL     1      -7.316   7.912   6.456  0.00  0.00    -0.047 A 
ATOM     18  C   UNL     1      -7.927   7.647   5.245  0.00  0.00    +0.003 A 
ATOM     19  C   UNL     1      -8.825   6.601   5.138  0.00  0.00    +0.000 A 
ATOM     20  C   UNL     1      -9.118   5.826   6.245  0.00  0.00    +0.000 A 
ATOM     21  C   UNL     1      -8.511   6.095   7.457  0.00  0.00    +0.000 A 
ATOM     22  C   UNL     1      -7.609   7.138   7.563  0.00  0.00    +0.003 A 
ENDBRANCH  16  17
ENDBRANCH   9  16
ENDBRANCH   1  13
BRANCH   3  23
ATOM     23  C   UNL     1      -2.650   5.391   0.462  0.00  0.00    +0.146 C 
BRANCH  23  24
ATOM     24  C   UNL     1      -1.157   5.202   0.545  0.00  0.00    +0.208 C 
ATOM     25  O   UNL     1      -0.430   6.164   0.680  0.00  0.00    -0.288 OA
BRANCH  24  26
ATOM     26  C   UNL     1      -0.583   3.858   0.463  0.00  0.00    +0.145 A 
ATOM     27  N   UNL     1       0.691   3.480   0.515  0.00  0.00    -0.244 NA
ATOM     28  C   UNL     1       1.000   2.217   0.423  0.00  0.00    +0.119 A 
ATOM     29  C   UNL     1       0.012   1.285   0.273  0.00  0.00    +0.067 A 
ATOM     30  S   UNL     1      -1.408   2.286   0.261  0.00  0.00    -0.073 S 
ENDBRANCH  24  26
ENDBRANCH  23  24
BRANCH  23  31
ATOM     31  C   UNL     1      -3.107   5.210  -0.987  0.00  0.00    +0.032 C 
BRANCH  31  32
ATOM     32  C   UNL     1      -4.634   5.278  -1.052  0.00  0.00    +0.023 C 
BRANCH  32  33
ATOM     33  C   UNL     1      -5.091   5.097  -2.501  0.00  0.00    +0.115 C 
BRANCH  33  34
ATOM     34  N   UNL     1      -6.553   5.162  -2.563  0.00  0.00    -0.358 N 
ATOM     35  C   UNL     1      -7.135   6.115  -3.235  0.00  0.00    +0.166 C 
ATOM     36  N   UNL     1      -6.382   6.982  -3.990  0.00  0.00    -0.372 N 
ATOM     37  N   UNL     1      -8.502   6.253  -3.189  0.00  0.00    -0.372 N 
ATOM     38  H   UNL     1      -6.873   7.787  -4.558  0.00  0.00    +0.159 HD
ATOM     39  H   UNL     1      -5.288   6.872  -4.027  0.00  0.00    +0.159 HD
ATOM     40  H   UNL     1      -8.993   7.058  -3.756  0.00  0.00    +0.159 HD
ATOM     41  H   UNL     1      -9.105   5.559  -2.584  0.00  0.00    +0.159 HD
ATOM     42  H   UNL     1      -7.160   4.406  -2.043  0.00  0.00    +0.162 HD
ENDBRANCH  33  34
ENDBRANCH  32  33
ENDBRANCH  31  32
ENDBRANCH  23  31
ENDBRANCH   3  23
TORSDOF 10
