REMARK  Name = ZINC53721700
REMARK  4 active torsions:
REMARK  status: ('A' for Active; 'I' for Inactive)
REMARK    1  A    between atoms: C_1  and  C_2
REMARK    2  A    between atoms: C_2  and  C_4
REMARK    3  A    between atoms: C_2  and  N_19
REMARK    4  A    between atoms: N_6  and  C_7
REMARK                            x       y       z     vdW  Elec       q    Type
REMARK                         _______ _______ _______ _____ _____    ______ ____
ROOT
ATOM      1  C   UNL     1       0.957   0.051   1.314  0.00  0.00    +0.237 C 
ATOM      2  O   UNL     1       2.156  -0.124   1.275  0.00  0.00    -0.273 OA
ATOM      3  N   UNL     1       0.278  -0.191   2.453  0.00  0.00    -0.283 N 
ATOM      4  H   UNL     1      -0.666   0.025   2.510  0.00  0.00    +0.155 HD
ENDROOT
BRANCH   3   5
ATOM      5  C   UNL     1       0.933  -0.751   3.551  0.00  0.00    +0.041 A 
ATOM      6  C   UNL     1       2.070  -1.518   3.379  0.00  0.00    +0.024 A 
ATOM      7  C   UNL     1       2.747  -2.091   4.455  0.00  0.00    +0.006 A 
ATOM      8  C   UNL     1       2.299  -1.909   5.729  0.00  0.00    -0.039 A 
ATOM      9  C   UNL     1       1.156  -1.141   5.921  0.00  0.00    -0.010 A 
ATOM     10  C   UNL     1       0.452  -0.543   4.860  0.00  0.00    +0.004 A 
ATOM     11  C   UNL     1      -0.684   0.219   5.172  0.00  0.00    +0.010 A 
ATOM     12  C   UNL     1      -1.051   0.349   6.481  0.00  0.00    +0.001 A 
ATOM     13  C   UNL     1      -0.334  -0.249   7.519  0.00  0.00    +0.004 A 
ATOM     14  C   UNL     1       0.766  -1.004   7.250  0.00  0.00    -0.039 A 
ATOM     15  C   UNL     1       1.757  -1.772   8.091  0.00  0.00    +0.040 C 
ATOM     16  C   UNL     1       2.768  -2.369   7.088  0.00  0.00    +0.040 C 
ENDBRANCH   3   5
BRANCH   1  18
ATOM     17  C   UNL     1      -0.459   1.871   0.402  0.00  0.00    +0.038 C 
ATOM     18  C   UNL     1       0.226   0.539   0.090  0.00  0.00    +0.158 C 
BRANCH  18  19
ATOM     19  N   UNL     1       1.180   0.725  -1.006  0.00  0.00    -0.289 N 
ATOM     20  C   UNL     1       0.758   0.660  -2.285  0.00  0.00    +0.298 C 
ATOM     21  O   UNL     1      -0.414   0.447  -2.528  0.00  0.00    -0.253 OA
ATOM     22  N   UNL     1       1.635   0.831  -3.293  0.00  0.00    -0.313 N 
ATOM     23  H   UNL     1       2.115   0.895  -0.812  0.00  0.00    +0.151 HD
ATOM     24  H   UNL     1       2.570   1.002  -3.099  0.00  0.00    +0.146 HD
ATOM     25  H   UNL     1       1.331   0.784  -4.213  0.00  0.00    +0.146 HD
ENDBRANCH  18  19
ENDBRANCH   1  18
TORSDOF 3
