REMARK  Name = ZINC35223843
REMARK  6 active torsions:
REMARK  status: ('A' for Active; 'I' for Inactive)
REMARK    1  A    between atoms: C_1  and  C_2
REMARK    2  A    between atoms: C_5  and  N_19
REMARK    3  A    between atoms: C_7  and  N_8
REMARK    4  A    between atoms: N_8  and  C_9
REMARK    5  A    between atoms: C_9  and  C_11
REMARK    6  A    between atoms: C_9  and  C_12
REMARK                            x       y       z     vdW  Elec       q    Type
REMARK                         _______ _______ _______ _____ _____    ______ ____
ROOT
ATOM      1  N   UNL     1      -0.240  -0.127   2.388  0.00  0.00    -0.337 N 
ATOM      2  H   UNL     1      -0.327   0.837   2.328  0.00  0.00    +0.147 HD
ENDROOT
BRANCH   1   9
ATOM      3  C   UNL     1      -0.797   1.180  -0.077  0.00  0.00    +0.045 C 
ATOM      4  C   UNL     1      -0.661  -0.318   0.019  0.00  0.00    -0.029 A 
ATOM      5  C   UNL     1      -0.802  -1.099  -1.111  0.00  0.00    +0.007 A 
ATOM      6  C   UNL     1      -0.678  -2.473  -1.024  0.00  0.00    +0.033 A 
ATOM      7  C   UNL     1      -0.412  -3.071   0.194  0.00  0.00    +0.128 A 
ATOM      8  C   UNL     1      -0.270  -2.296   1.329  0.00  0.00    +0.056 A 
ATOM      9  C   UNL     1      -0.389  -0.914   1.244  0.00  0.00    +0.033 A 
BRANCH   7  10
ATOM     10  N   UNL     1      -0.280  -4.542   0.283  0.00  0.00    +0.056 N 
ATOM     11  O   UNL     1      -0.405  -5.221  -0.710  0.00  0.00    -0.126 OA
ATOM     12  O   UNL     1      -0.048  -5.065   1.348  0.00  0.00    -0.126 OA
ENDBRANCH   7  10
ENDBRANCH   1   9
BRANCH   1  13
ATOM     13  C   UNL     1       0.047  -0.758   3.678  0.00  0.00    +0.099 C 
ATOM     14  C   UNL     1       1.556  -0.970   3.818  0.00  0.00    +0.033 C 
BRANCH  13  15
ATOM     15  C   UNL     1      -0.440   0.132   4.792  0.00  0.00    -0.009 A 
ATOM     16  C   UNL     1      -0.524   1.498   4.599  0.00  0.00    +0.007 A 
ATOM     17  C   UNL     1      -0.972   2.315   5.620  0.00  0.00    +0.000 A 
ATOM     18  C   UNL     1      -1.335   1.766   6.836  0.00  0.00    +0.001 A 
ATOM     19  C   UNL     1      -1.252   0.401   7.031  0.00  0.00    +0.020 A 
ATOM     20  C   UNL     1      -0.809  -0.418   6.007  0.00  0.00    +0.046 A 
ATOM     21 CL   UNL     1      -0.710  -2.134   6.248  0.00  0.00    -0.083 Cl
ENDBRANCH  13  15
ENDBRANCH   1  13
TORSDOF 4
