REMARK  Name = ZINC08920425
REMARK  9 active torsions:
REMARK  status: ('A' for Active; 'I' for Inactive)
REMARK    1  A    between atoms: C_1  and  C_2
REMARK    2  A    between atoms: C_2  and  C_3
REMARK    3  A    between atoms: C_3  and  C_4
REMARK    4  A    between atoms: C_3  and  C_5
REMARK    5  A    between atoms: C_3  and  C_6
REMARK    6  A    between atoms: C_15  and  O_29
REMARK    7  A    between atoms: C_17  and  C_20
REMARK    8  A    between atoms: C_24  and  C_27
REMARK    9  A    between atoms: C_25  and  O_26
REMARK                            x       y       z     vdW  Elec       q    Type
REMARK                         _______ _______ _______ _____ _____    ______ ____
ROOT
ATOM      1  C   UNL     1       0.739  -2.027  -1.265  0.00  0.00    -0.000 C 
ATOM      2  C   UNL     1       1.450  -2.524  -2.527  0.00  0.00    +0.009 C 
ATOM      3  C   UNL     1       1.695  -4.031  -2.428  0.00  0.00    +0.037 C 
ATOM      4  C   UNL     1       0.379  -4.719  -2.093  0.00  0.00    -0.023 A 
ATOM      5  C   UNL     1      -0.661  -4.025  -1.577  0.00  0.00    -0.004 A 
ATOM      6  S   UNL     1      -1.944  -5.228  -1.358  0.00  0.00    -0.078 S 
ATOM      7  C   UNL     1      -1.156  -6.574  -1.921  0.00  0.00    +0.080 A 
ATOM      8  C   UNL     1       0.121  -6.134  -2.287  0.00  0.00    +0.068 A 
ATOM      9  C   UNL     1       1.068  -7.147  -2.821  0.00  0.00    +0.220 C 
ATOM     10  N   UNL     1       0.584  -8.315  -3.149  0.00  0.00    -0.223 NA
ATOM     11  C   UNL     1      -0.828  -8.670  -3.088  0.00  0.00    +0.227 C 
ATOM     12  N   UNL     1      -1.542  -7.887  -2.063  0.00  0.00    -0.313 N 
ATOM     13  C   UNL     1      -0.701  -2.561  -1.261  0.00  0.00    +0.046 C 
ATOM     14  H   UNL     1      -2.245  -8.276  -1.519  0.00  0.00    +0.149 HD
ENDROOT
BRANCH  11  15
ATOM     15  C   UNL     1      -1.460  -8.410  -4.431  0.00  0.00    +0.037 A 
ATOM     16  C   UNL     1      -2.763  -7.957  -4.507  0.00  0.00    +0.025 A 
ATOM     17  C   UNL     1      -3.342  -7.719  -5.740  0.00  0.00    +0.014 A 
ATOM     18  C   UNL     1      -2.619  -7.933  -6.900  0.00  0.00    +0.021 A 
ATOM     19  C   UNL     1      -1.317  -8.385  -6.829  0.00  0.00    -0.008 A 
ATOM     20  C   UNL     1      -0.731  -8.620  -5.593  0.00  0.00    +0.127 A 
ATOM     21  C   UNL     1      -0.530  -8.619  -8.093  0.00  0.00    +0.047 C 
ATOM     22  I   UNL     1      -5.319  -7.032  -5.851  0.00  0.00    -0.044 I 
BRANCH  20  23
ATOM     23  O   UNL     1       0.553  -9.060  -5.521  0.00  0.00    -0.506 OA
ATOM     24  H   UNL     1       0.639 -10.023  -5.528  0.00  0.00    +0.292 HD
ENDBRANCH  20  23
ENDBRANCH  11  15
BRANCH   1  25
ATOM     25  C   UNL     1       0.718  -0.497  -1.257  0.00  0.00    -0.032 C 
ATOM     26  C   UNL     1      -0.022   0.009  -2.496  0.00  0.00    +0.011 C 
ATOM     27  C   UNL     1       2.154   0.032  -1.268  0.00  0.00    +0.011 C 
BRANCH  25  29
ATOM     28  C   UNL     1      -0.019   1.526   0.010  0.00  0.00    +0.004 C 
ATOM     29  C   UNL     1       0.002  -0.004   0.002  0.00  0.00    +0.003 C 
ENDBRANCH  25  29
ENDBRANCH   1  25
BRANCH   9  30
ATOM     30  O   UNL     1       2.385  -6.870  -2.962  0.00  0.00    -0.492 OA
ATOM     31  H   UNL     1       2.905  -7.603  -3.318  0.00  0.00    +0.294 HD
ENDBRANCH   9  30
TORSDOF 5
