REMARK  Name = ZINC39915991
REMARK  11 active torsions:
REMARK  status: ('A' for Active; 'I' for Inactive)
REMARK    1  A    between atoms: C_8  and  S_20
REMARK    2  A    between atoms: N_9  and  C_10
REMARK    3  A    between atoms: C_10  and  C_11
REMARK    4  A    between atoms: C_11  and  O_12
REMARK    5  A    between atoms: O_12  and  C_13
REMARK    6  A    between atoms: S_20  and  C_21
REMARK    7  A    between atoms: C_23  and  O_36
REMARK    8  A    between atoms: C_25  and  O_35
REMARK    9  A    between atoms: C_27  and  O_34
REMARK   10  A    between atoms: C_29  and  C_32
REMARK   11  A    between atoms: C_32  and  O_33
REMARK                            x       y       z     vdW  Elec       q    Type
REMARK                         _______ _______ _______ _____ _____    ______ ____
ROOT
ATOM      1  C   UNL     1      -0.326   1.381   0.278  0.00  0.00    +0.002 A 
ATOM      2  C   UNL     1       0.826   2.152   0.309  0.00  0.00    +0.002 A 
ATOM      3  C   UNL     1       2.069   1.554   0.281  0.00  0.00    +0.028 A 
ATOM      4  C   UNL     1       2.169   0.173   0.220  0.00  0.00    +0.070 A 
ATOM      5  C   UNL     1       1.006  -0.614   0.188  0.00  0.00    +0.090 A 
ATOM      6  C   UNL     1      -0.246   0.007   0.217  0.00  0.00    +0.030 A 
ATOM      7  N   UNL     1       1.402  -1.912   0.131  0.00  0.00    -0.222 NA
ATOM      8  C   UNL     1       2.711  -1.973   0.126  0.00  0.00    +0.172 A 
ATOM      9  N   UNL     1       3.234  -0.712   0.180  0.00  0.00    -0.315 N 
ENDROOT
BRANCH   9  10
ATOM     10  C   UNL     1       4.656  -0.361   0.192  0.00  0.00    +0.165 C 
BRANCH  10  11
ATOM     11  C   UNL     1       5.155  -0.301   1.637  0.00  0.00    +0.250 C 
BRANCH  11  12
ATOM     12  O   UNL     1       6.542   0.042   1.649  0.00  0.00    -0.490 OA
BRANCH  12  13
ATOM     13  C   UNL     1       7.144   0.137   2.864  0.00  0.00    +0.121 A 
ATOM     14  C   UNL     1       6.415  -0.100   4.020  0.00  0.00    +0.047 A 
ATOM     15  C   UNL     1       7.029  -0.002   5.254  0.00  0.00    +0.023 A 
ATOM     16  C   UNL     1       8.369   0.332   5.337  0.00  0.00    +0.041 A 
ATOM     17  C   UNL     1       9.097   0.569   4.184  0.00  0.00    +0.023 A 
ATOM     18  C   UNL     1       8.489   0.466   2.948  0.00  0.00    +0.047 A 
ATOM     19 CL   UNL     1       9.137   0.455   6.888  0.00  0.00    -0.084 Cl
ENDBRANCH  12  13
ENDBRANCH  11  12
ENDBRANCH  10  11
ENDBRANCH   9  10
BRANCH   8  20
ATOM     20  S   UNL     1       3.655  -3.459   0.059  0.00  0.00    -0.054 S 
BRANCH  20  21
ATOM     21  C   UNL     1       2.405  -4.772   0.004  0.00  0.00    +0.214 C 
ATOM     22  C   UNL     1       3.094  -6.126  -0.181  0.00  0.00    +0.185 C 
ATOM     23  C   UNL     1       2.037  -7.235  -0.166  0.00  0.00    +0.177 C 
ATOM     24  C   UNL     1       1.250  -7.157   1.146  0.00  0.00    +0.176 C 
ATOM     25  C   UNL     1       0.632  -5.763   1.280  0.00  0.00    +0.176 C 
ATOM     26  O   UNL     1       1.666  -4.778   1.228  0.00  0.00    -0.355 OA
BRANCH  24  27
ATOM     27  O   UNL     1       0.214  -8.142   1.140  0.00  0.00    -0.386 OA
ATOM     28  H   UNL     1       0.535  -9.050   1.053  0.00  0.00    +0.210 HD
ENDBRANCH  24  27
BRANCH  23  29
ATOM     29  O   UNL     1       1.146  -7.061  -1.270  0.00  0.00    -0.386 OA
ATOM     30  H   UNL     1       1.580  -7.092  -2.134  0.00  0.00    +0.210 HD
ENDBRANCH  23  29
BRANCH  22  31
ATOM     31  O   UNL     1       4.024  -6.338   0.882  0.00  0.00    -0.386 OA
ATOM     32  H   UNL     1       4.721  -5.669   0.935  0.00  0.00    +0.210 HD
ENDBRANCH  22  31
BRANCH  25  33
ATOM     33  C   UNL     1      -0.354  -5.530   0.133  0.00  0.00    +0.190 C 
BRANCH  33  34
ATOM     34  O   UNL     1      -1.043  -4.295   0.342  0.00  0.00    -0.392 OA
ATOM     35  H   UNL     1      -1.685  -4.082  -0.349  0.00  0.00    +0.210 HD
ENDBRANCH  33  34
ENDBRANCH  25  33
ENDBRANCH  20  21
ENDBRANCH   8  20
TORSDOF 11
