REMARK  Name = ZINC28478328
REMARK  9 active torsions:
REMARK  status: ('A' for Active; 'I' for Inactive)
REMARK    1  A    between atoms: C_1  and  C_2
REMARK    2  A    between atoms: C_4  and  C_8
REMARK    3  A    between atoms: C_5  and  C_7
REMARK    4  A    between atoms: C_10  and  C_18
REMARK    5  A    between atoms: C_12  and  C_17
REMARK    6  A    between atoms: C_18  and  O_20
REMARK    7  A    between atoms: O_20  and  C_21
REMARK    8  A    between atoms: C_21  and  C_23
REMARK    9  A    between atoms: C_21  and  C_24
REMARK                            x       y       z     vdW  Elec       q    Type
REMARK                         _______ _______ _______ _____ _____    ______ ____
ROOT
ATOM      1  C   UNL     1      -0.153   1.312   0.344  0.00  0.00    +0.076 A 
ATOM      2  C   UNL     1      -0.164  -0.066   0.583  0.00  0.00    +0.044 A 
ATOM      3  C   UNL     1       1.020  -0.784   0.458  0.00  0.00    +0.075 A 
ATOM      4  C   UNL     1       2.186  -0.077   0.091  0.00  0.00    +0.077 A 
ATOM      5  C   UNL     1       3.577  -0.465  -0.133  0.00  0.00    +0.091 A 
ATOM      6  N   UNL     1       4.231   0.610  -0.456  0.00  0.00    -0.080 NA
ATOM      7  O   UNL     1       3.354   1.718  -0.463  0.00  0.00    -0.334 OA
ATOM      8  C   UNL     1       2.113   1.308  -0.132  0.00  0.00    +0.260 A 
ATOM      9  N   UNL     1       0.959   1.944   0.001  0.00  0.00    -0.210 NA
ATOM     10  C   UNL     1       4.147  -1.855  -0.013  0.00  0.00    +0.070 C 
ENDROOT
BRANCH   1  14
ATOM     11  C   UNL     1      -5.119   1.791   1.279  0.00  0.00    +0.051 C 
ATOM     12  C   UNL     1      -3.716   2.208   0.919  0.00  0.00    -0.012 A 
ATOM     13  C   UNL     1      -2.605   1.445   0.817  0.00  0.00    +0.021 A 
ATOM     14  C   UNL     1      -1.413   2.080   0.470  0.00  0.00    +0.011 A 
ATOM     15  C   UNL     1      -1.438   3.427   0.243  0.00  0.00    -0.004 A 
ATOM     16  S   UNL     1      -3.102   3.832   0.513  0.00  0.00    -0.098 S 
ATOM     17  C   UNL     1      -0.301   4.335  -0.146  0.00  0.00    +0.052 C 
ENDBRANCH   1  14
BRANCH   3  18
ATOM     18  C   UNL     1       1.058  -2.242   0.702  0.00  0.00    +0.341 C 
ATOM     19  O   UNL     1       2.067  -2.873   0.458  0.00  0.00    -0.245 OA
BRANCH  18  20
ATOM     20  O   UNL     1      -0.027  -2.871   1.195  0.00  0.00    -0.449 OA
BRANCH  20  21
ATOM     21  C   UNL     1       0.082  -4.303   1.409  0.00  0.00    +0.259 C 
ATOM     22  C   UNL     1       0.593  -4.569   2.826  0.00  0.00    +0.062 C 
BRANCH  21  23
ATOM     23  C   UNL     1      -1.273  -4.941   1.235  0.00  0.00    +0.256 C 
ATOM     24  O   UNL     1      -2.266  -4.248   1.175  0.00  0.00    -0.272 OA
ATOM     25  N   UNL     1      -1.380  -6.281   1.146  0.00  0.00    -0.298 N 
ATOM     26  C   UNL     1      -0.276  -7.241   1.298  0.00  0.00    +0.108 C 
ATOM     27  C   UNL     1      -0.865  -8.652   1.092  0.00  0.00    +0.020 C 
ATOM     28  C   UNL     1      -2.150  -8.374   0.269  0.00  0.00    +0.020 C 
ATOM     29  C   UNL     1      -2.621  -7.028   0.873  0.00  0.00    +0.108 C 
ENDBRANCH  21  23
ENDBRANCH  20  21
ENDBRANCH  18  20
ENDBRANCH   3  18
TORSDOF 5
