REMARK  Name = ZINC19026774
REMARK  10 active torsions:
REMARK  status: ('A' for Active; 'I' for Inactive)
REMARK    1  A    between atoms: C_1  and  C_2
REMARK    2  A    between atoms: C_2  and  C_3
REMARK    3  A    between atoms: C_3  and  C_32
REMARK    4  A    between atoms: N_6  and  N_10
REMARK    5  A    between atoms: C_11  and  C_13
REMARK    6  A    between atoms: C_13  and  S_14
REMARK    7  A    between atoms: S_14  and  C_15
REMARK    8  A    between atoms: C_19  and  C_23
REMARK    9  A    between atoms: C_20  and  C_22
REMARK   10  A    between atoms: N_26  and  C_27
REMARK                            x       y       z     vdW  Elec       q    Type
REMARK                         _______ _______ _______ _____ _____    ______ ____
ROOT
ATOM      1  S   UNL     1      -2.719   0.755  -0.371  0.00  0.00    -0.078 S 
ENDROOT
BRANCH   1   2
ATOM      2  C   UNL     1      -4.078   1.853  -0.141  0.00  0.00    +0.173 A 
ATOM      3  N   UNL     1      -3.868   3.154  -0.134  0.00  0.00    -0.216 NA
ATOM      4  C   UNL     1      -4.873   4.006   0.032  0.00  0.00    +0.117 A 
ATOM      5  C   UNL     1      -6.198   3.570   0.220  0.00  0.00    +0.075 A 
ATOM      6  C   UNL     1      -7.174   4.632   0.392  0.00  0.00    -0.026 A 
ATOM      7  C   UNL     1      -6.764   5.909   0.362  0.00  0.00    -0.008 A 
ATOM      8  S   UNL     1      -5.007   5.774   0.095  0.00  0.00    -0.073 S 
ATOM      9  C   UNL     1      -7.592   7.159   0.517  0.00  0.00    +0.052 C 
ATOM     10  C   UNL     1      -8.630   4.303   0.601  0.00  0.00    +0.045 C 
ATOM     11  C   UNL     1      -6.394   2.153   0.214  0.00  0.00    +0.263 A 
ATOM     12  O   UNL     1      -7.508   1.683   0.369  0.00  0.00    -0.267 OA
ATOM     13  N   UNL     1      -5.332   1.345   0.035  0.00  0.00    -0.284 N 
BRANCH  13  14
ATOM     14  C   UNL     1      -5.527  -0.107   0.028  0.00  0.00    +0.093 C 
ATOM     15  C   UNL     1      -6.482  -0.507  -1.115  0.00  0.00    +0.025 C 
ATOM     16  C   UNL     1      -7.324  -1.663  -0.518  0.00  0.00    +0.002 C 
ATOM     17  C   UNL     1      -7.536  -1.211   0.948  0.00  0.00    +0.002 C 
ATOM     18  C   UNL     1      -6.196  -0.555   1.339  0.00  0.00    +0.025 C 
ENDBRANCH  13  14
ENDBRANCH   1   2
BRANCH   1  19
ATOM     19  C   UNL     1      -1.373   1.953  -0.543  0.00  0.00    +0.174 C 
BRANCH  19  21
ATOM     20  N   UNL     1       1.072   1.912  -0.916  0.00  0.00    -0.223 N 
ATOM     21  C   UNL     1      -0.073   1.220  -0.756  0.00  0.00    +0.240 C 
ATOM     22  O   UNL     1      -0.059   0.008  -0.788  0.00  0.00    -0.273 OA
ATOM     23  H   UNL     1       1.061   2.881  -0.890  0.00  0.00    +0.174 HD
BRANCH  20  27
ATOM     24  C   UNL     1       4.344   0.293  -0.842  0.00  0.00    +0.111 C 
ATOM     25  C   UNL     1       3.238   1.093  -0.182  0.00  0.00    +0.263 C 
ATOM     26  O   UNL     1       3.220   1.519   0.953  0.00  0.00    -0.271 OA
ATOM     27  N   UNL     1       2.280   1.231  -1.119  0.00  0.00    -0.137 N 
ATOM     28  C   UNL     1       2.626   0.642  -2.270  0.00  0.00    +0.326 C 
ATOM     29  O   UNL     1       1.925   0.635  -3.263  0.00  0.00    -0.251 OA
ATOM     30  N   UNL     1       3.836   0.058  -2.204  0.00  0.00    -0.284 N 
ATOM     31  C   UNL     1       4.564  -1.033  -0.112  0.00  0.00    +0.041 C 
ATOM     32  H   UNL     1       4.285  -0.425  -2.916  0.00  0.00    +0.151 HD
BRANCH  24  34
ATOM     33  C   UNL     1       6.668   0.377  -1.755  0.00  0.00    +0.006 C 
ATOM     34  C   UNL     1       5.641   1.104  -0.885  0.00  0.00    +0.032 C 
ENDBRANCH  24  34
ENDBRANCH  20  27
ENDBRANCH  19  21
ENDBRANCH   1  19
TORSDOF 6
