REMARK  Name = ZINC64730318
REMARK  7 active torsions:
REMARK  status: ('A' for Active; 'I' for Inactive)
REMARK    1  A    between atoms: C_1  and  C_2
REMARK    2  A    between atoms: C_2  and  C_24
REMARK    3  A    between atoms: N_5  and  C_9
REMARK    4  A    between atoms: C_9  and  C_10
REMARK    5  A    between atoms: N_12  and  C_13
REMARK    6  A    between atoms: C_13  and  C_14
REMARK    7  A    between atoms: C_14  and  C_15
REMARK                            x       y       z     vdW  Elec       q    Type
REMARK                         _______ _______ _______ _____ _____    ______ ____
ROOT
ATOM      1  C   UNL     1      -0.024   1.521  -0.112  0.00  0.00    +0.047 C 
ATOM      2  C   UNL     1       0.002  -0.004   0.002  0.00  0.00    +0.136 C 
ATOM      3  C   UNL     1       0.750  -0.614  -1.167  0.00  0.00    +0.251 C 
ATOM      4  O   UNL     1       0.464  -0.532  -2.342  0.00  0.00    -0.272 OA
ATOM      5  N   UNL     1       1.799  -1.266  -0.628  0.00  0.00    -0.215 N 
ATOM      6  C   UNL     1       1.818  -1.154   0.705  0.00  0.00    +0.310 C 
ATOM      7  O   UNL     1       2.668  -1.657   1.413  0.00  0.00    -0.252 OA
ATOM      8  N   UNL     1       0.791  -0.422   1.174  0.00  0.00    -0.281 N 
ATOM      9  H   UNL     1       0.606  -0.211   2.102  0.00  0.00    +0.152 HD
ENDROOT
BRANCH   2  10
ATOM     10  C   UNL     1      -1.399  -0.552   0.083  0.00  0.00    -0.008 A 
ATOM     11  C   UNL     1      -1.792  -1.269   1.172  0.00  0.00    +0.007 A 
ATOM     12  C   UNL     1      -3.083  -1.784   1.264  0.00  0.00    +0.001 A 
ATOM     13  C   UNL     1      -3.990  -1.585   0.269  0.00  0.00    +0.008 A 
ATOM     14  C   UNL     1      -3.622  -0.850  -0.870  0.00  0.00    -0.018 A 
ATOM     15  C   UNL     1      -2.310  -0.321  -0.962  0.00  0.00    -0.012 A 
ATOM     16  C   UNL     1      -1.943   0.420  -2.099  0.00  0.00    +0.009 A 
ATOM     17  C   UNL     1      -2.852   0.624  -3.091  0.00  0.00    +0.001 A 
ATOM     18  C   UNL     1      -4.144   0.109  -2.998  0.00  0.00    +0.001 A 
ATOM     19  C   UNL     1      -4.530  -0.624  -1.919  0.00  0.00    +0.008 A 
ENDBRANCH   2  10
BRANCH   5  20
ATOM     20  C   UNL     1       2.796  -2.006  -1.406  0.00  0.00    +0.213 C 
BRANCH  20  21
ATOM     21  C   UNL     1       3.925  -1.083  -1.784  0.00  0.00    +0.231 C 
ATOM     22  O   UNL     1       3.901   0.079  -1.437  0.00  0.00    -0.274 OA
ATOM     23  N   UNL     1       4.963  -1.549  -2.507  0.00  0.00    -0.314 N 
ATOM     24  H   UNL     1       4.983  -2.478  -2.784  0.00  0.00    +0.149 HD
BRANCH  23  25
ATOM     25  C   UNL     1       6.061  -0.651  -2.874  0.00  0.00    +0.108 C 
BRANCH  25  26
ATOM     26  C   UNL     1       7.102  -1.425  -3.686  0.00  0.00    +0.052 C 
BRANCH  26  27
ATOM     27  C   UNL     1       8.232  -0.502  -4.064  0.00  0.00    -0.040 C 
ATOM     28  C   UNL     1       9.403  -0.339  -3.407  0.00  0.00    -0.001 A 
ATOM     29  C   UNL     1       9.953  -0.948  -2.190  0.00  0.00    +0.010 A 
ATOM     30  C   UNL     1      11.182  -0.573  -1.767  0.00  0.00    +0.001 A 
ATOM     31  C   UNL     1      11.942   0.380  -2.461  0.00  0.00    +0.002 A 
ATOM     32  C   UNL     1      11.503   0.983  -3.586  0.00  0.00    +0.026 A 
ATOM     33  C   UNL     1      10.225   0.665  -4.121  0.00  0.00    +0.043 A 
ATOM     34  N   UNL     1       9.586   1.105  -5.178  0.00  0.00    -0.380 N 
ATOM     35  C   UNL     1       8.289   0.425  -5.258  0.00  0.00    +0.144 C 
ATOM     36  H   UNL     1       9.918   1.766  -5.805  0.00  0.00    +0.160 HD
ENDBRANCH  26  27
ENDBRANCH  25  26
ENDBRANCH  23  25
ENDBRANCH  20  21
ENDBRANCH   5  20
TORSDOF 6
