REMARK  Name = ZINC05959484
REMARK  7 active torsions:
REMARK  status: ('A' for Active; 'I' for Inactive)
REMARK    1  A    between atoms: C_1  and  C_2
REMARK    2  A    between atoms: C_4  and  C_26
REMARK    3  A    between atoms: C_5  and  O_9
REMARK    4  A    between atoms: O_9  and  C_10
REMARK    5  A    between atoms: C_10  and  C_11
REMARK    6  A    between atoms: N_13  and  C_14
REMARK    7  A    between atoms: C_15  and  C_23
REMARK                            x       y       z     vdW  Elec       q    Type
REMARK                         _______ _______ _______ _____ _____    ______ ____
ROOT
ATOM      1  C   UNL     1       1.256  -4.176  -1.107  0.00  0.00    +0.255 C 
ATOM      2  O   UNL     1       1.274  -4.646   0.011  0.00  0.00    -0.272 OA
ATOM      3  N   UNL     1       1.259  -4.992  -2.180  0.00  0.00    -0.277 N 
ATOM      4  H   UNL     1       1.244  -4.617  -3.074  0.00  0.00    +0.155 HD
ENDROOT
BRANCH   3   5
ATOM      5  C   UNL     1       1.282  -6.367  -2.006  0.00  0.00    +0.084 A 
ATOM      6  C   UNL     1       1.282  -7.360  -2.975  0.00  0.00    +0.068 A 
ATOM      7  C   UNL     1       1.312  -8.740  -2.524  0.00  0.00    -0.023 A 
ATOM      8  C   UNL     1       1.327  -8.907  -1.183  0.00  0.00    -0.004 A 
ATOM      9  S   UNL     1       1.309  -7.264  -0.523  0.00  0.00    -0.077 S 
ATOM     10  C   UNL     1       1.353 -10.203  -0.434  0.00  0.00    +0.043 C 
ATOM     11  C   UNL     1       0.982 -11.332  -1.408  0.00  0.00    +0.005 C 
ATOM     12  C   UNL     1       1.804 -11.168  -2.689  0.00  0.00    +0.005 C 
ATOM     13  C   UNL     1       1.321  -9.940  -3.464  0.00  0.00    +0.037 C 
BRANCH   6  14
ATOM     14  C   UNL     1       1.256  -7.027  -4.403  0.00  0.00    +0.244 C 
ATOM     15  O   UNL     1       2.300  -6.875  -5.011  0.00  0.00    -0.270 OA
ATOM     16  N   UNL     1       0.078  -6.891  -5.043  0.00  0.00    -0.325 N 
ATOM     17  H   UNL     1      -0.754  -7.012  -4.558  0.00  0.00    +0.145 HD
ATOM     18  H   UNL     1       0.061  -6.671  -5.987  0.00  0.00    +0.145 HD
ENDBRANCH   6  14
ENDBRANCH   3   5
BRANCH   1  19
ATOM     19  C   UNL     1       1.232  -2.682  -1.297  0.00  0.00    +0.325 C 
BRANCH  19  20
ATOM     20  O   UNL     1       1.234  -2.039  -0.020  0.00  0.00    -0.481 OA
BRANCH  20  25
ATOM     21  C   UNL     1       1.146   3.593   0.010  0.00  0.00    +0.044 C 
ATOM     22  C   UNL     1       1.170   2.087   0.002  0.00  0.00    -0.049 A 
ATOM     23  C   UNL     1      -0.017   1.377   0.010  0.00  0.00    +0.010 A 
ATOM     24  C   UNL     1       0.002  -0.004   0.002  0.00  0.00    -0.007 A 
ATOM     25  C   UNL     1       1.213  -0.680  -0.013  0.00  0.00    +0.142 A 
ATOM     26  C   UNL     1       2.404   0.034  -0.021  0.00  0.00    +0.083 A 
ATOM     27  C   UNL     1       2.379   1.416  -0.013  0.00  0.00    +0.027 A 
ATOM     28 CL   UNL     1       3.922  -0.809  -0.039  0.00  0.00    -0.080 Cl
ATOM     29  C   UNL     1      -1.292  -0.776   0.010  0.00  0.00    +0.047 C 
ENDBRANCH  20  25
ENDBRANCH  19  20
ENDBRANCH   1  19
TORSDOF 5
