REMARK  Name = ZINC16109666
REMARK  8 active torsions:
REMARK  status: ('A' for Active; 'I' for Inactive)
REMARK    1  A    between atoms: C_1  and  C_2
REMARK    2  A    between atoms: C_3  and  C_28
REMARK    3  A    between atoms: C_9  and  C_12
REMARK    4  A    between atoms: N_14  and  C_15
REMARK    5  A    between atoms: C_15  and  C_17
REMARK    6  A    between atoms: C_15  and  C_18
REMARK    7  A    between atoms: C_21  and  S_24
REMARK    8  A    between atoms: S_24  and  C_27
REMARK                            x       y       z     vdW  Elec       q    Type
REMARK                         _______ _______ _______ _____ _____    ______ ____
ROOT
ATOM      1  C   UNL     1       0.069  -1.528   4.877  0.00  0.00    +0.245 C 
ATOM      2  O   UNL     1       0.058  -0.396   5.321  0.00  0.00    -0.270 OA
ATOM      3  N   UNL     1       0.091  -2.581   5.718  0.00  0.00    -0.305 N 
ATOM      4  H   UNL     1       0.100  -3.484   5.364  0.00  0.00    +0.150 HD
ENDROOT
BRANCH   1  13
ATOM      5  C   UNL     1      -0.018   1.503   0.010  0.00  0.00    +0.046 C 
ATOM      6  C   UNL     1       0.002  -0.004   0.002  0.00  0.00    -0.022 A 
ATOM      7  C   UNL     1       0.009  -0.797  -1.081  0.00  0.00    +0.017 A 
ATOM      8  N   UNL     1       0.028  -2.111  -0.697  0.00  0.00    -0.358 N 
ATOM      9  H   UNL     1       0.037  -2.868  -1.304  0.00  0.00    +0.166 HD
ATOM     10  C   UNL     1       0.035  -2.200   0.674  0.00  0.00    +0.047 A 
ATOM     11  C   UNL     1       0.025  -0.883   1.175  0.00  0.00    +0.004 A 
ATOM     12  C   UNL     1       0.035  -0.661   2.549  0.00  0.00    +0.023 A 
ATOM     13  C   UNL     1       0.058  -1.749   3.417  0.00  0.00    +0.037 A 
ATOM     14  C   UNL     1       0.071  -3.054   2.906  0.00  0.00    +0.015 A 
ATOM     15  C   UNL     1       0.054  -3.275   1.561  0.00  0.00    +0.027 A 
ATOM     16  C   UNL     1      -0.004  -0.313  -2.507  0.00  0.00    +0.063 C 
ENDBRANCH   1  13
BRANCH   3  17
ATOM     17  C   UNL     1       0.102  -2.362   7.166  0.00  0.00    +0.100 C 
ATOM     18  C   UNL     1      -1.333  -2.181   7.665  0.00  0.00    +0.033 C 
BRANCH  17  19
ATOM     19  C   UNL     1       0.725  -3.552   7.849  0.00  0.00    -0.027 A 
ATOM     20  C   UNL     1       0.450  -4.830   7.400  0.00  0.00    +0.007 A 
ATOM     21  C   UNL     1       1.022  -5.921   8.027  0.00  0.00    +0.027 A 
ATOM     22  C   UNL     1       1.869  -5.734   9.103  0.00  0.00    +0.088 A 
ATOM     23  C   UNL     1       2.145  -4.456   9.552  0.00  0.00    +0.027 A 
ATOM     24  C   UNL     1       1.577  -3.365   8.922  0.00  0.00    +0.007 A 
BRANCH  22  25
ATOM     25  S   UNL     1       2.597  -7.125   9.903  0.00  0.00    -0.006 S 
ATOM     26  O   UNL     1       2.856  -6.686  11.229  0.00  0.00    -0.170 OA
ATOM     27  O   UNL     1       1.697  -8.197   9.657  0.00  0.00    -0.170 OA
ATOM     28  C   UNL     1       4.158  -7.406   9.022  0.00  0.00    +0.200 C 
ENDBRANCH  22  25
ENDBRANCH  17  19
ENDBRANCH   3  17
TORSDOF 4
