REMARK  Name = ZINC40001937
REMARK  6 active torsions:
REMARK  status: ('A' for Active; 'I' for Inactive)
REMARK    1  A    between atoms: C_1  and  C_2
REMARK    2  A    between atoms: C_5  and  S_10
REMARK    3  A    between atoms: S_10  and  C_11
REMARK    4  A    between atoms: C_15  and  C_24
REMARK    5  A    between atoms: N_16  and  C_17
REMARK    6  A    between atoms: C_17  and  C_18
REMARK                            x       y       z     vdW  Elec       q    Type
REMARK                         _______ _______ _______ _____ _____    ______ ____
ROOT
ATOM      1  C   UNL     1       4.721  -1.706  -0.891  0.00  0.00    +0.237 C 
ATOM      2  N   UNL     1       4.480  -1.564   0.555  0.00  0.00    -0.237 N 
ATOM      3  N   UNL     1       5.115  -0.380   0.949  0.00  0.00    -0.169 NA
ATOM      4  C   UNL     1       5.701   0.204  -0.063  0.00  0.00    +0.147 C 
ATOM      5  N   UNL     1       5.525  -0.525  -1.245  0.00  0.00    -0.283 N 
ATOM      6  H   UNL     1       3.980  -2.171   1.123  0.00  0.00    +0.171 HD
ENDROOT
BRANCH   4   7
ATOM      7  C   UNL     1       6.417   1.408   0.024  0.00  0.00    +0.022 C 
ATOM      8  C   UNL     1       6.720   2.127   1.181  0.00  0.00    +0.006 A 
ATOM      9  C   UNL     1       6.433   1.904   2.545  0.00  0.00    +0.010 A 
ATOM     10  C   UNL     1       6.864   2.792   3.477  0.00  0.00    +0.001 A 
ATOM     11  C   UNL     1       7.590   3.931   3.123  0.00  0.00    +0.002 A 
ATOM     12  C   UNL     1       7.902   4.207   1.832  0.00  0.00    +0.026 A 
ATOM     13  C   UNL     1       7.485   3.326   0.801  0.00  0.00    +0.043 A 
ATOM     14  N   UNL     1       7.658   3.368  -0.505  0.00  0.00    -0.380 N 
ATOM     15  C   UNL     1       7.027   2.194  -1.115  0.00  0.00    +0.152 C 
ATOM     16  H   UNL     1       8.132   4.064  -0.987  0.00  0.00    +0.160 HD
ENDBRANCH   4   7
BRANCH   1  17
ATOM     17  S   UNL     1       3.150  -1.700  -1.798  0.00  0.00    -0.103 S 
BRANCH  17  21
ATOM     18  C   UNL     1       0.340   2.137  -0.802  0.00  0.00    +0.052 C 
ATOM     19  C   UNL     1       0.132   0.633  -0.994  0.00  0.00    +0.175 C 
ATOM     20  C   UNL     1       1.060   0.088  -2.113  0.00  0.00    +0.070 C 
ATOM     21  C   UNL     1       2.372  -0.133  -1.319  0.00  0.00    +0.162 C 
ATOM     22  C   UNL     1       1.919  -0.182   0.129  0.00  0.00    +0.321 C 
ATOM     23  O   UNL     1       2.647  -0.280   1.089  0.00  0.00    -0.250 OA
ATOM     24  O   UNL     1       0.571  -0.097   0.171  0.00  0.00    -0.461 OA
ENDBRANCH  17  21
ENDBRANCH   1  17
BRANCH   5  25
ATOM     25  C   UNL     1       6.038  -0.182  -2.574  0.00  0.00    +0.140 C 
BRANCH  25  26
ATOM     26  C   UNL     1       7.465  -0.715  -2.723  0.00  0.00    +0.136 C 
ATOM     27  C   UNL     1       8.046  -0.281  -4.086  0.00  0.00    +0.035 C 
ATOM     28  C   UNL     1       8.836  -1.544  -4.524  0.00  0.00    +0.031 C 
ATOM     29  C   UNL     1       7.944  -2.667  -3.939  0.00  0.00    +0.160 C 
ATOM     30  O   UNL     1       7.454  -2.147  -2.691  0.00  0.00    -0.375 OA
ENDBRANCH  25  26
ENDBRANCH   5  25
TORSDOF 5
