REMARK  Name = ZINC16022255
REMARK  8 active torsions:
REMARK  status: ('A' for Active; 'I' for Inactive)
REMARK    1  A    between atoms: C_1  and  C_2
REMARK    2  A    between atoms: C_2  and  C_3
REMARK    3  A    between atoms: C_2  and  C_4
REMARK    4  A    between atoms: C_2  and  N_5
REMARK    5  A    between atoms: C_10  and  C_28
REMARK    6  A    between atoms: C_28  and  C_29
REMARK    7  A    between atoms: C_29  and  S_30
REMARK    8  A    between atoms: S_30  and  C_31
REMARK                            x       y       z     vdW  Elec       q    Type
REMARK                         _______ _______ _______ _____ _____    ______ ____
ROOT
ATOM      1  N   UNL     1       0.688  -0.476  -1.203  0.00  0.00    -0.236 N 
ATOM      2  C   UNL     1       0.091  -1.247  -2.120  0.00  0.00    +0.228 C 
ATOM      3  O   UNL     1      -1.054  -1.640  -2.067  0.00  0.00    -0.275 OA
ATOM      4  C   UNL     1       1.067  -1.549  -3.234  0.00  0.00    +0.107 C 
ATOM      5  C   UNL     1       1.414  -3.053  -3.215  0.00  0.00    +0.068 C 
ATOM      6  N   UNL     1       2.546  -3.171  -2.258  0.00  0.00    -0.295 NA
ATOM      7  C   UNL     1       3.363  -1.970  -2.513  0.00  0.00    +0.136 C 
ATOM      8  C   UNL     1       2.363  -0.818  -2.784  0.00  0.00    +0.122 C 
ATOM      9  C   UNL     1       1.960  -0.168  -1.480  0.00  0.00    +0.229 C 
ATOM     10  O   UNL     1       2.679   0.522  -0.790  0.00  0.00    -0.275 OA
ATOM     11  C   UNL     1       4.263  -1.659  -1.352  0.00  0.00    +0.006 A 
ATOM     12  C   UNL     1       4.033  -1.378  -0.023  0.00  0.00    +0.046 A 
ATOM     13  C   UNL     1       5.098  -1.127   0.826  0.00  0.00    +0.124 A 
ATOM     14  C   UNL     1       6.393  -1.161   0.335  0.00  0.00    +0.040 A 
ATOM     15  C   UNL     1       6.626  -1.442  -0.995  0.00  0.00    +0.026 A 
ATOM     16  C   UNL     1       5.560  -1.694  -1.855  0.00  0.00    +0.039 A 
ATOM     17  N   UNL     1       5.540  -1.996  -3.220  0.00  0.00    -0.283 N 
ATOM     18  C   UNL     1       4.287  -2.173  -3.683  0.00  0.00    +0.243 C 
ATOM     19  O   UNL     1       3.967  -2.443  -4.821  0.00  0.00    -0.273 OA
ATOM     20  F   UNL     1       4.875  -0.851   2.130  0.00  0.00    -0.205 F 
ATOM     21  H   UNL     1       2.214  -3.187  -1.305  0.00  0.00    +0.123 HD
ATOM     22  H   UNL     1       6.336  -2.070  -3.770  0.00  0.00    +0.155 HD
ENDROOT
BRANCH   1  24
ATOM     23  C   UNL     1      -0.019   1.526   0.010  0.00  0.00    +0.031 C 
ATOM     24  C   UNL     1       0.002  -0.004   0.002  0.00  0.00    +0.036 C 
ATOM     25  C   UNL     1       0.742  -0.511   1.242  0.00  0.00    +0.031 C 
ATOM     26  C   UNL     1      -1.433  -0.534   0.013  0.00  0.00    +0.031 C 
ENDBRANCH   1  24
BRANCH   5  27
ATOM     27  C   UNL     1       0.216  -3.870  -2.728  0.00  0.00    +0.030 C 
BRANCH  27  28
ATOM     28  C   UNL     1       0.538  -5.362  -2.835  0.00  0.00    +0.070 C 
BRANCH  28  29
ATOM     29  S   UNL     1      -0.883  -6.330  -2.258  0.00  0.00    -0.164 S 
ATOM     30  C   UNL     1      -0.346  -8.053  -2.446  0.00  0.00    +0.084 C 
ENDBRANCH  28  29
ENDBRANCH  27  28
ENDBRANCH   5  27
TORSDOF 4
