REMARK  Name = ZINC63143706
REMARK  11 active torsions:
REMARK  status: ('A' for Active; 'I' for Inactive)
REMARK    1  A    between atoms: C_1  and  C_2
REMARK    2  A    between atoms: C_4  and  C_35
REMARK    3  A    between atoms: C_5  and  C_33
REMARK    4  A    between atoms: C_6  and  N_15
REMARK    5  A    between atoms: N_8  and  C_9
REMARK    6  A    between atoms: C_16  and  C_18
REMARK    7  A    between atoms: C_18  and  O_19
REMARK    8  A    between atoms: O_19  and  C_20
REMARK    9  A    between atoms: C_20  and  C_22
REMARK   10  A    between atoms: C_22  and  C_23
REMARK   11  A    between atoms: C_23  and  C_24
REMARK                            x       y       z     vdW  Elec       q    Type
REMARK                         _______ _______ _______ _____ _____    ______ ____
ROOT
ATOM      1  N   UNL     1      -0.708  -1.216   3.270  0.00  0.00    -0.290 N 
ATOM      2  C   UNL     1      -0.345  -2.096   4.224  0.00  0.00    +0.252 C 
ATOM      3  O   UNL     1       0.327  -3.062   3.934  0.00  0.00    -0.272 OA
ATOM      4  H   UNL     1      -1.195  -0.412   3.510  0.00  0.00    +0.151 HD
ENDROOT
BRANCH   1   9
ATOM      5  C   UNL     1      -0.037   1.715   0.640  0.00  0.00    +0.033 C 
ATOM      6  C   UNL     1       0.033   0.225   0.301  0.00  0.00    +0.099 C 
ATOM      7  C   UNL     1      -1.357  -0.324   0.116  0.00  0.00    -0.036 C 
ATOM      8  C   UNL     1      -1.582  -1.284   1.001  0.00  0.00    +0.068 C 
ATOM      9  C   UNL     1      -0.366  -1.473   1.869  0.00  0.00    +0.203 C 
ATOM     10  N   UNL     1       0.651  -0.511   1.412  0.00  0.00    -0.300 N 
ATOM     11  C   UNL     1      -2.343   0.147  -0.922  0.00  0.00    +0.042 C 
BRANCH  10  12
ATOM     12  C   UNL     1       1.937  -0.334   1.928  0.00  0.00    +0.032 A 
ATOM     13  C   UNL     1       2.816   0.552   1.316  0.00  0.00    +0.023 A 
ATOM     14  C   UNL     1       4.087   0.726   1.829  0.00  0.00    +0.002 A 
ATOM     15  C   UNL     1       4.484   0.019   2.950  0.00  0.00    +0.000 A 
ATOM     16  C   UNL     1       3.612  -0.862   3.561  0.00  0.00    +0.002 A 
ATOM     17  C   UNL     1       2.338  -1.037   3.057  0.00  0.00    +0.023 A 
ENDBRANCH  10  12
BRANCH   8  18
ATOM     18  C   UNL     1      -2.800  -2.028   1.117  0.00  0.00    +0.098 C 
ATOM     19  N   UNL     1      -3.766  -2.619   1.209  0.00  0.00    -0.191 NA
ENDBRANCH   8  18
ENDBRANCH   1   9
BRANCH   2  20
ATOM     20  C   UNL     1      -0.776  -1.878   5.652  0.00  0.00    +0.327 C 
BRANCH  20  21
ATOM     21  O   UNL     1      -0.272  -2.937   6.468  0.00  0.00    -0.455 OA
BRANCH  21  22
ATOM     22  C   UNL     1      -0.569  -2.893   7.776  0.00  0.00    +0.308 C 
ATOM     23  O   UNL     1      -1.234  -1.984   8.214  0.00  0.00    -0.251 OA
BRANCH  22  24
ATOM     24  C   UNL     1      -0.071  -3.975   8.699  0.00  0.00    +0.125 C 
BRANCH  24  25
ATOM     25  C   UNL     1      -0.546  -3.688  10.125  0.00  0.00    +0.044 C 
BRANCH  25  26
ATOM     26  C   UNL     1      -0.049  -4.770  11.048  0.00  0.00    -0.041 C 
ATOM     27  C   UNL     1       1.071  -4.741  11.806  0.00  0.00    -0.001 A 
ATOM     28  C   UNL     1       2.121  -3.732  11.992  0.00  0.00    +0.010 A 
ATOM     29  C   UNL     1       3.142  -3.996  12.838  0.00  0.00    +0.001 A 
ATOM     30  C   UNL     1       3.223  -5.206  13.541  0.00  0.00    +0.002 A 
ATOM     31  C   UNL     1       2.297  -6.181  13.424  0.00  0.00    +0.026 A 
ATOM     32  C   UNL     1       1.179  -6.011  12.561  0.00  0.00    +0.043 A 
ATOM     33  N   UNL     1       0.166  -6.794  12.280  0.00  0.00    -0.380 N 
ATOM     34  C   UNL     1      -0.704  -6.106  11.318  0.00  0.00    +0.144 C 
ATOM     35  H   UNL     1       0.015  -7.678  12.648  0.00  0.00    +0.160 HD
ENDBRANCH  25  26
ENDBRANCH  24  25
ENDBRANCH  22  24
ENDBRANCH  21  22
ENDBRANCH  20  21
ENDBRANCH   2  20
TORSDOF 9
