REMARK  Name = ZINC25602884
REMARK  6 active torsions:
REMARK  status: ('A' for Active; 'I' for Inactive)
REMARK    1  A    between atoms: C_1  and  C_2
REMARK    2  A    between atoms: C_3  and  C_13
REMARK    3  A    between atoms: C_5  and  C_7
REMARK    4  A    between atoms: N_15  and  N_16
REMARK    5  A    between atoms: C_17  and  C_19
REMARK    6  A    between atoms: C_23  and  C_29
REMARK                            x       y       z     vdW  Elec       q    Type
REMARK                         _______ _______ _______ _____ _____    ______ ____
ROOT
ATOM      1  C   UNL     1       0.002  -0.004   0.002  0.00  0.00    +0.269 C 
ATOM      2  O   UNL     1       1.064  -0.598  -0.011  0.00  0.00    -0.268 OA
ATOM      3  N   UNL     1      -1.156  -0.694   0.009  0.00  0.00    -0.230 N 
ATOM      4  H   UNL     1      -2.116  -0.157   0.021  0.00  0.00    +0.173 HD
ENDROOT
BRANCH   1   7
ATOM      5  C   UNL     1       2.469   1.888  -0.011  0.00  0.00    +0.067 C 
ATOM      6  C   UNL     1       1.039   2.364   0.005  0.00  0.00    +0.058 A 
ATOM      7  C   UNL     1      -0.018   1.462   0.010  0.00  0.00    +0.098 A 
ATOM      8  S   UNL     1      -1.408   2.585   0.021  0.00  0.00    -0.062 S 
ATOM      9  C   UNL     1      -0.502   4.066   0.029  0.00  0.00    +0.109 A 
ATOM     10  N   UNL     1       0.752   3.637   0.014  0.00  0.00    -0.243 NA
BRANCH   9  11
ATOM     11  C   UNL     1      -1.004   5.457   0.041  0.00  0.00    +0.007 A 
ATOM     12  C   UNL     1      -0.106   6.526   0.044  0.00  0.00    +0.010 A 
ATOM     13  C   UNL     1      -0.581   7.821   0.050  0.00  0.00    +0.001 A 
ATOM     14  C   UNL     1      -1.944   8.062   0.065  0.00  0.00    +0.000 A 
ATOM     15  C   UNL     1      -2.839   7.006   0.067  0.00  0.00    +0.001 A 
ATOM     16  C   UNL     1      -2.377   5.706   0.055  0.00  0.00    +0.010 A 
ENDBRANCH   9  11
ENDBRANCH   1   7
BRANCH   3  17
ATOM     17  N   UNL     1      -1.137  -2.095   0.002  0.00  0.00    -0.233 N 
ATOM     18  C   UNL     1      -2.295  -2.784   0.009  0.00  0.00    +0.250 C 
ATOM     19  O   UNL     1      -3.353  -2.192   0.022  0.00  0.00    -0.272 OA
ATOM     20  H   UNL     1      -0.177  -2.632  -0.010  0.00  0.00    +0.173 HD
BRANCH  18  21
ATOM     21  C   UNL     1      -2.274  -4.291   0.001  0.00  0.00    +0.174 C 
ATOM     22  C   UNL     1      -1.554  -4.777   1.281  0.00  0.00    +0.103 C 
ATOM     23  S   UNL     1      -2.680  -6.154   1.789  0.00  0.00    -0.133 S 
ATOM     24  C   UNL     1      -4.205  -5.423   1.062  0.00  0.00    +0.082 C 
ATOM     25  N   UNL     1      -3.651  -4.772  -0.154  0.00  0.00    -0.275 N 
ATOM     26  C   UNL     1      -4.598  -4.843  -1.128  0.00  0.00    +0.217 C 
ATOM     27  O   UNL     1      -4.589  -4.189  -2.150  0.00  0.00    -0.276 OA
ATOM     28  C   UNL     1      -5.663  -5.850  -0.759  0.00  0.00    +0.099 C 
ATOM     29  C   UNL     1      -5.118  -6.535   0.519  0.00  0.00    +0.046 C 
ATOM     30  C   UNL     1      -4.927  -4.465   2.012  0.00  0.00    +0.044 C 
ENDBRANCH  18  21
ENDBRANCH   3  17
TORSDOF 4
