REMARK  Name = ZINC39699400
REMARK  12 active torsions:
REMARK  status: ('A' for Active; 'I' for Inactive)
REMARK    1  A    between atoms: C_1  and  C_2
REMARK    2  A    between atoms: C_8  and  C_14
REMARK    3  A    between atoms: C_14  and  N_15
REMARK    4  A    between atoms: N_15  and  C_16
REMARK    5  A    between atoms: C_16  and  C_17
REMARK    6  A    between atoms: C_22  and  C_24
REMARK    7  A    between atoms: C_26  and  O_34
REMARK    8  A    between atoms: C_27  and  O_32
REMARK    9  A    between atoms: C_28  and  O_30
REMARK   10  A    between atoms: O_30  and  C_31
REMARK   11  A    between atoms: O_32  and  C_33
REMARK   12  A    between atoms: O_34  and  C_35
REMARK                            x       y       z     vdW  Elec       q    Type
REMARK                         _______ _______ _______ _____ _____    ______ ____
ROOT
ATOM      1  N   UNL     1       0.728  -0.977   5.322  0.00  0.00    -0.289 N 
ATOM      2  C   UNL     1       1.243   0.158   5.834  0.00  0.00    +0.247 C 
ATOM      3  O   UNL     1       2.281   0.610   5.389  0.00  0.00    -0.270 OA
ENDROOT
BRANCH   2   4
ATOM      4  C   UNL     1       0.547   0.854   6.935  0.00  0.00    +0.044 A 
ATOM      5  C   UNL     1       0.066   0.128   8.027  0.00  0.00    +0.062 A 
ATOM      6  C   UNL     1      -0.585   0.782   9.056  0.00  0.00    +0.166 A 
ATOM      7  C   UNL     1      -0.761   2.162   9.005  0.00  0.00    +0.204 A 
ATOM      8  C   UNL     1      -0.282   2.887   7.917  0.00  0.00    +0.166 A 
ATOM      9  C   UNL     1       0.375   2.239   6.888  0.00  0.00    +0.062 A 
BRANCH   8  10
ATOM     10  O   UNL     1      -0.456   4.235   7.870  0.00  0.00    -0.491 OA
ATOM     11  C   UNL     1       0.060   4.916   6.725  0.00  0.00    +0.277 C 
ENDBRANCH   8  10
BRANCH   7  12
ATOM     12  O   UNL     1      -1.402   2.802  10.018  0.00  0.00    -0.488 OA
ATOM     13  C   UNL     1      -0.596   3.272  11.101  0.00  0.00    +0.277 C 
ENDBRANCH   7  12
BRANCH   6  14
ATOM     14  O   UNL     1      -1.054   0.076  10.120  0.00  0.00    -0.491 OA
ATOM     15  C   UNL     1      -0.839  -1.337  10.107  0.00  0.00    +0.277 C 
ENDBRANCH   6  14
ENDBRANCH   2   4
BRANCH   1  16
ATOM     16  C   UNL     1       1.452  -1.703   4.276  0.00  0.00    +0.125 C 
BRANCH  16  24
ATOM     17  C   UNL     1       3.708   2.145   0.060  0.00  0.00    +0.045 C 
ATOM     18  C   UNL     1       3.495   0.653   0.036  0.00  0.00    -0.029 A 
ATOM     19  C   UNL     1       4.107  -0.100  -0.915  0.00  0.00    +0.005 A 
ATOM     20  C   UNL     1       3.952  -1.484  -0.993  0.00  0.00    +0.001 A 
ATOM     21  C   UNL     1       3.172  -2.160  -0.110  0.00  0.00    +0.009 A 
ATOM     22  C   UNL     1       2.483  -1.409   0.941  0.00  0.00    -0.007 A 
ATOM     23  C   UNL     1       1.690  -2.045   1.849  0.00  0.00    -0.003 C 
ATOM     24  C   UNL     1       1.015  -1.189   2.903  0.00  0.00    +0.116 C 
ATOM     25  C   UNL     1       1.278   0.300   2.861  0.00  0.00    +0.226 C 
ATOM     26  O   UNL     1       0.762   1.034   3.683  0.00  0.00    -0.275 OA
ATOM     27  N   UNL     1       2.070   0.800   1.927  0.00  0.00    -0.284 N 
ATOM     28  C   UNL     1       2.669   0.051   1.002  0.00  0.00    +0.043 A 
ATOM     29  H   UNL     1       2.225   1.758   1.918  0.00  0.00    +0.155 HD
ENDBRANCH  16  24
ENDBRANCH   1  16
BRANCH   1  30
ATOM     30  C   UNL     1      -0.555  -1.486   5.812  0.00  0.00    +0.182 C 
BRANCH  30  31
ATOM     31  C   UNL     1      -0.473  -2.981   5.978  0.00  0.00    +0.122 A 
ATOM     32  C   UNL     1       0.024  -3.628   7.047  0.00  0.00    +0.046 A 
ATOM     33  C   UNL     1      -0.094  -5.012   6.781  0.00  0.00    +0.041 A 
ATOM     34  C   UNL     1      -0.656  -5.127   5.564  0.00  0.00    +0.195 A 
ATOM     35  O   UNL     1      -0.889  -3.894   5.085  0.00  0.00    -0.466 OA
ENDBRANCH  30  31
ENDBRANCH   1  30
TORSDOF 8
