REMARK  Name = ZINC36025617
REMARK  10 active torsions:
REMARK  status: ('A' for Active; 'I' for Inactive)
REMARK    1  A    between atoms: C_1  and  C_2
REMARK    2  A    between atoms: N_7  and  C_9
REMARK    3  A    between atoms: C_9  and  C_10
REMARK    4  A    between atoms: C_16  and  C_18
REMARK    5  A    between atoms: C_18  and  C_20
REMARK    6  A    between atoms: C_18  and  N_23
REMARK    7  A    between atoms: C_20  and  C_21
REMARK    8  A    between atoms: C_20  and  C_22
REMARK    9  A    between atoms: N_23  and  S_24
REMARK   10  A    between atoms: S_24  and  C_27
REMARK                            x       y       z     vdW  Elec       q    Type
REMARK                         _______ _______ _______ _____ _____    ______ ____
ROOT
ATOM      1  C   UNL     1       0.887  -4.118   1.848  0.00  0.00    +0.034 A 
ATOM      2  C   UNL     1       1.814  -4.932   1.286  0.00  0.00    +0.070 A 
ATOM      3  S   UNL     1       1.197  -6.532   1.784  0.00  0.00    -0.060 S 
ATOM      4  C   UNL     1      -0.152  -6.005   2.641  0.00  0.00    +0.165 A 
ATOM      5  N   UNL     1      -0.086  -4.696   2.528  0.00  0.00    -0.231 NA
ATOM      6  N   UNL     1      -1.103  -6.767   3.309  0.00  0.00    -0.263 N 
ATOM      7  C   UNL     1      -1.002  -8.111   3.321  0.00  0.00    +0.238 C 
ATOM      8  O   UNL     1      -0.139  -8.660   2.670  0.00  0.00    -0.274 OA
ATOM      9  H   UNL     1      -1.839  -6.332   3.767  0.00  0.00    +0.157 HD
ENDROOT
BRANCH   1  10
ATOM     10  C   UNL     1       0.968  -2.619   1.709  0.00  0.00    -0.022 C 
BRANCH  10  16
ATOM     11  C   UNL     1      -0.845   1.266  -0.654  0.00  0.00    +0.005 C 
ATOM     12  C   UNL     1      -0.825  -0.263  -0.597  0.00  0.00    -0.031 C 
ATOM     13  C   UNL     1      -0.319  -0.818  -1.931  0.00  0.00    -0.001 C 
ATOM     14  C   UNL     1      -0.229  -2.344  -1.837  0.00  0.00    -0.018 C 
ATOM     15  C   UNL     1       0.683  -2.724  -0.668  0.00  0.00    -0.078 C 
ATOM     16  N   UNL     1       0.132  -2.187   0.581  0.00  0.00    +0.384 N 
ATOM     17  C   UNL     1       0.108  -0.720   0.527  0.00  0.00    -0.075 C 
ATOM     18  H   UNL     1      -0.807  -2.532   0.710  0.00  0.00    -0.081 HD
ENDBRANCH  10  16
ENDBRANCH   1  10
BRANCH   7  19
ATOM     19  C   UNL     1      -1.963  -8.931   4.143  0.00  0.00    +0.165 C 
BRANCH  19  20
ATOM     20  C   UNL     1      -3.343  -8.915   3.481  0.00  0.00    +0.010 C 
ATOM     21  C   UNL     1      -3.246  -9.530   2.084  0.00  0.00    +0.009 C 
ATOM     22  C   UNL     1      -4.324  -9.726   4.329  0.00  0.00    +0.009 C 
ENDBRANCH  19  20
BRANCH  19  23
ATOM     23  N   UNL     1      -1.479 -10.311   4.227  0.00  0.00    -0.177 NA
ATOM     24  H   UNL     1      -1.651 -10.931   3.501  0.00  0.00    +0.149 HD
BRANCH  23  25
ATOM     25  S   UNL     1      -0.636 -10.813   5.561  0.00  0.00    +0.065 S 
ATOM     26  O   UNL     1      -0.380 -12.199   5.383  0.00  0.00    -0.153 OA
ATOM     27  O   UNL     1       0.404  -9.866   5.764  0.00  0.00    -0.153 OA
BRANCH  25  28
ATOM     28  C   UNL     1      -1.720 -10.674   6.944  0.00  0.00    +0.142 A 
ATOM     29  C   UNL     1      -2.512 -11.620   7.505  0.00  0.00    +0.036 A 
ATOM     30  C   UNL     1      -3.287 -11.282   8.599  0.00  0.00    +0.010 A 
ATOM     31  C   UNL     1      -3.232 -10.015   9.077  0.00  0.00    +0.047 A 
ATOM     32  S   UNL     1      -2.053  -9.255   7.974  0.00  0.00    -0.077 S 
ENDBRANCH  25  28
ENDBRANCH  23  25
ENDBRANCH  19  23
ENDBRANCH   7  19
TORSDOF 7
