REMARK  Name = ZINC14019869
REMARK  5 active torsions:
REMARK  status: ('A' for Active; 'I' for Inactive)
REMARK    1  A    between atoms: N_10  and  C_11
REMARK    2  A    between atoms: C_11  and  C_12
REMARK    3  A    between atoms: C_17  and  C_19
REMARK    4  A    between atoms: N_24  and  S_26
REMARK    5  A    between atoms: S_26  and  C_29
REMARK                            x       y       z     vdW  Elec       q    Type
REMARK                         _______ _______ _______ _____ _____    ______ ____
ROOT
ATOM      1  C   UNL     1       2.025   4.048   7.691  0.00  0.00    +0.004 A 
ATOM      2  C   UNL     1       2.279   3.844   6.342  0.00  0.00    +0.040 A 
ATOM      3  C   UNL     1       1.462   3.056   5.571  0.00  0.00    +0.150 A 
ATOM      4  C   UNL     1       0.327   2.423   6.133  0.00  0.00    +0.115 A 
ATOM      5  C   UNL     1       0.102   2.655   7.508  0.00  0.00    +0.044 A 
ATOM      6  C   UNL     1       0.924   3.446   8.272  0.00  0.00    +0.017 A 
ATOM      7  S   UNL     1      -1.373   1.711   7.814  0.00  0.00    -0.052 S 
ATOM      8  C   UNL     1      -1.589   1.089   6.152  0.00  0.00    +0.169 A 
ATOM      9  N   UNL     1      -0.568   1.617   5.520  0.00  0.00    -0.221 NA
ATOM     10  N   UNL     1      -2.580   0.256   5.658  0.00  0.00    -0.243 N 
ATOM     11  C   UNL     1      -2.638  -0.015   4.339  0.00  0.00    +0.226 C 
ATOM     12  O   UNL     1      -3.533  -0.705   3.900  0.00  0.00    -0.275 OA
ATOM     13  F   UNL     1       1.744   2.882   4.261  0.00  0.00    -0.203 F 
ENDROOT
BRANCH  11  14
ATOM     14  C   UNL     1      -1.589   0.540   3.410  0.00  0.00    +0.091 C 
ATOM     15  C   UNL     1      -0.269  -0.203   3.627  0.00  0.00    +0.015 C 
ATOM     16  C   UNL     1       0.805   0.382   2.707  0.00  0.00    +0.018 C 
ATOM     17  C   UNL     1       0.378   0.190   1.244  0.00  0.00    +0.109 C 
ATOM     18  N   UNL     1      -0.956   0.779   1.065  0.00  0.00    -0.176 NA
ATOM     19  C   UNL     1      -2.042   0.353   1.958  0.00  0.00    +0.122 C 
BRANCH  18  20
ATOM     20  S   UNL     1      -1.231   1.898  -0.124  0.00  0.00    +0.061 S 
ATOM     21  O   UNL     1      -2.621   1.846  -0.417  0.00  0.00    -0.153 OA
ATOM     22  O   UNL     1      -0.236   1.689  -1.116  0.00  0.00    -0.153 OA
BRANCH  20  23
ATOM     23  C   UNL     1      -0.923   3.486   0.573  0.00  0.00    +0.106 A 
ATOM     24  C   UNL     1      -1.950   4.187   1.177  0.00  0.00    +0.031 A 
ATOM     25  C   UNL     1      -1.708   5.431   1.729  0.00  0.00    +0.040 A 
ATOM     26  C   UNL     1      -0.438   5.980   1.666  0.00  0.00    +0.124 A 
ATOM     27  C   UNL     1       0.588   5.280   1.055  0.00  0.00    +0.040 A 
ATOM     28  C   UNL     1       0.345   4.034   0.509  0.00  0.00    +0.031 A 
ATOM     29  F   UNL     1      -0.202   7.199   2.199  0.00  0.00    -0.205 F 
ENDBRANCH  20  23
ENDBRANCH  18  20
ENDBRANCH  11  14
BRANCH  10  30
ATOM     30  C   UNL     1      -3.566  -0.331   6.570  0.00  0.00    +0.189 C 
BRANCH  30  31
ATOM     31  C   UNL     1      -3.046  -1.645   7.094  0.00  0.00    +0.123 A 
ATOM     32  C   UNL     1      -2.303  -1.811   8.203  0.00  0.00    +0.046 A 
ATOM     33  C   UNL     1      -2.042  -3.196   8.317  0.00  0.00    +0.041 A 
ATOM     34  C   UNL     1      -2.634  -3.792   7.267  0.00  0.00    +0.195 A 
ATOM     35  O   UNL     1      -3.240  -2.848   6.529  0.00  0.00    -0.466 OA
ENDBRANCH  30  31
ENDBRANCH  10  30
TORSDOF 5
