REMARK  Name = ZINC20183329
REMARK  11 active torsions:
REMARK  status: ('A' for Active; 'I' for Inactive)
REMARK    1  A    between atoms: C_1  and  C_2
REMARK    2  A    between atoms: C_2  and  O_3
REMARK    3  A    between atoms: O_3  and  C_4
REMARK    4  A    between atoms: C_7  and  N_10
REMARK    5  A    between atoms: N_10  and  C_11
REMARK    6  A    between atoms: C_11  and  N_13
REMARK    7  A    between atoms: N_13  and  N_14
REMARK    8  A    between atoms: C_15  and  C_16
REMARK    9  A    between atoms: N_18  and  C_34
REMARK   10  A    between atoms: C_22  and  S_25
REMARK   11  A    between atoms: S_25  and  N_28
REMARK                            x       y       z     vdW  Elec       q    Type
REMARK                         _______ _______ _______ _____ _____    ______ ____
ROOT
ATOM      1  C   UNL     1       2.508  -6.814   0.448  0.00  0.00    +0.020 A 
ATOM      2  C   UNL     1       2.716  -8.126   0.157  0.00  0.00    +0.096 A 
ATOM      3  N   UNL     1       4.046  -8.412   0.247  0.00  0.00    -0.349 N 
ATOM      4  C   UNL     1       4.754  -7.284   0.603  0.00  0.00    +0.050 A 
ATOM      5  C   UNL     1       3.831  -6.233   0.738  0.00  0.00    +0.010 A 
ATOM      6  C   UNL     1       4.272  -4.959   1.089  0.00  0.00    +0.039 A 
ATOM      7  C   UNL     1       5.615  -4.735   1.298  0.00  0.00    +0.106 A 
ATOM      8  C   UNL     1       6.527  -5.771   1.161  0.00  0.00    +0.030 A 
ATOM      9  C   UNL     1       6.105  -7.039   0.823  0.00  0.00    +0.028 A 
ATOM     10  C   UNL     1       4.637  -9.730   0.002  0.00  0.00    +0.149 C 
ENDROOT
BRANCH   7  11
ATOM     11  S   UNL     1       6.177  -3.125   1.741  0.00  0.00    +0.061 S 
ATOM     12  O   UNL     1       7.503  -3.006   1.244  0.00  0.00    -0.153 OA
ATOM     13  O   UNL     1       5.143  -2.220   1.378  0.00  0.00    -0.153 OA
BRANCH  11  14
ATOM     14  N   UNL     1       6.285  -3.082   3.393  0.00  0.00    -0.177 NA
ATOM     15  C   UNL     1       5.109  -2.762   4.212  0.00  0.00    +0.109 C 
ATOM     16  C   UNL     1       4.917  -3.880   5.249  0.00  0.00    +0.017 C 
ATOM     17  C   UNL     1       6.210  -4.054   6.048  0.00  0.00    +0.003 C 
ATOM     18  C   UNL     1       7.344  -4.462   5.104  0.00  0.00    +0.017 C 
ATOM     19  C   UNL     1       7.562  -3.356   4.067  0.00  0.00    +0.109 C 
ENDBRANCH  11  14
ENDBRANCH   7  11
BRANCH   1  21
ATOM     20  N   UNL     1       0.111  -6.781   0.584  0.00  0.00    -0.188 NA
ATOM     21  C   UNL     1       1.216  -6.109   0.462  0.00  0.00    +0.140 C 
BRANCH  20  22
ATOM     22  N   UNL     1       0.152  -8.144   0.908  0.00  0.00    -0.218 N 
ATOM     23  H   UNL     1       1.109  -8.618   1.170  0.00  0.00    +0.176 HD
BRANCH  22  24
ATOM     24  C   UNL     1      -0.981  -8.873   0.897  0.00  0.00    +0.154 C 
ATOM     25  S   UNL     1      -0.954 -10.504   1.418  0.00  0.00    -0.017 S 
BRANCH  24  26
ATOM     26  N   UNL     1      -2.136  -8.319   0.477  0.00  0.00    -0.296 N 
ATOM     27  H   UNL     1      -2.136  -7.304   0.052  0.00  0.00    +0.154 HD
BRANCH  26  31
ATOM     28  C   UNL     1      -5.707 -10.448   0.791  0.00  0.00    +0.121 A 
ATOM     29  C   UNL     1      -4.816 -10.427   1.855  0.00  0.00    +0.047 A 
ATOM     30  C   UNL     1      -3.633  -9.722   1.751  0.00  0.00    +0.027 A 
ATOM     31  C   UNL     1      -3.335  -9.034   0.583  0.00  0.00    +0.033 A 
ATOM     32  C   UNL     1      -4.227  -9.056  -0.481  0.00  0.00    +0.027 A 
ATOM     33  C   UNL     1      -5.409  -9.761  -0.377  0.00  0.00    +0.047 A 
BRANCH  28  34
ATOM     34  O   UNL     1      -6.871 -11.143   0.893  0.00  0.00    -0.492 OA
BRANCH  34  36
ATOM     35  C   UNL     1      -8.991 -11.951   0.060  0.00  0.00    +0.048 C 
ATOM     36  C   UNL     1      -7.741 -11.121  -0.240  0.00  0.00    +0.225 C 
ENDBRANCH  34  36
ENDBRANCH  28  34
ENDBRANCH  26  31
ENDBRANCH  24  26
ENDBRANCH  22  24
ENDBRANCH  20  22
ENDBRANCH   1  21
TORSDOF 9
