REMARK  Name = ZINC40458345
REMARK  8 active torsions:
REMARK  status: ('A' for Active; 'I' for Inactive)
REMARK    1  A    between atoms: C_1  and  C_2
REMARK    2  A    between atoms: C_7  and  N_12
REMARK    3  A    between atoms: C_9  and  C_11
REMARK    4  A    between atoms: C_13  and  C_15
REMARK    5  A    between atoms: C_15  and  C_17
REMARK    6  A    between atoms: C_15  and  N_25
REMARK    7  A    between atoms: C_17  and  C_18
REMARK    8  A    between atoms: C_21  and  O_24
REMARK                            x       y       z     vdW  Elec       q    Type
REMARK                         _______ _______ _______ _____ _____    ______ ____
ROOT
ATOM      1  C   UNL     1       2.785  -4.239   3.627  0.00  0.00    +0.017 C 
ENDROOT
BRANCH   1   3
ATOM      2  N   UNL     1       1.471  -2.526   2.420  0.00  0.00    -0.314 N 
ATOM      3  C   UNL     1       2.056  -3.740   2.406  0.00  0.00    +0.199 C 
ATOM      4  O   UNL     1       1.996  -4.431   1.411  0.00  0.00    -0.278 OA
ATOM      5  H   UNL     1       1.520  -1.974   3.216  0.00  0.00    +0.149 HD
BRANCH   2  11
ATOM      6  C   UNL     1      -0.019   1.526   0.010  0.00  0.00    +0.008 C 
ATOM      7  C   UNL     1       0.002  -0.004   0.002  0.00  0.00    -0.009 C 
ATOM      8  C   UNL     1      -1.433  -0.534   0.013  0.00  0.00    +0.003 C 
ATOM      9  C   UNL     1      -1.413  -2.063   0.004  0.00  0.00    +0.002 C 
ATOM     10  C   UNL     1      -0.673  -2.570   1.244  0.00  0.00    +0.022 C 
ATOM     11  C   UNL     1       0.763  -2.041   1.233  0.00  0.00    +0.076 C 
ATOM     12  C   UNL     1       0.742  -0.511   1.242  0.00  0.00    +0.009 C 
ATOM     13  C   UNL     1       0.026  -0.018   2.500  0.00  0.00    +0.009 C 
ENDBRANCH   2  11
ENDBRANCH   1   3
BRANCH   1  14
ATOM     14  N   UNL     1       2.910  -5.702   3.559  0.00  0.00    +0.386 N 
ATOM     15  H   UNL     1       1.991  -6.116   3.523  0.00  0.00    -0.089 HD
ATOM     16  H   UNL     1       3.427  -5.957   2.731  0.00  0.00    -0.089 HD
ATOM     17  H   UNL     1       3.398  -6.036   4.377  0.00  0.00    -0.089 HD
ENDBRANCH   1  14
BRANCH   1  18
ATOM     18  C   UNL     1       4.179  -3.611   3.682  0.00  0.00    +0.028 C 
BRANCH  18  19
ATOM     19  C   UNL     1       4.862  -4.013   4.964  0.00  0.00    -0.048 A 
ATOM     20  C   UNL     1       4.713  -3.235   6.097  0.00  0.00    +0.007 A 
ATOM     21  C   UNL     1       5.338  -3.601   7.274  0.00  0.00    +0.045 A 
ATOM     22  C   UNL     1       6.115  -4.750   7.317  0.00  0.00    +0.117 A 
ATOM     23  C   UNL     1       6.262  -5.528   6.178  0.00  0.00    +0.045 A 
ATOM     24  C   UNL     1       5.630  -5.161   5.005  0.00  0.00    +0.007 A 
BRANCH  22  25
ATOM     25  O   UNL     1       6.731  -5.112   8.473  0.00  0.00    -0.507 OA
ATOM     26  H   UNL     1       6.199  -5.688   9.039  0.00  0.00    +0.292 HD
ENDBRANCH  22  25
ENDBRANCH  18  19
ENDBRANCH   1  18
TORSDOF 6
