REMARK  Name = ZINC09479067
REMARK  7 active torsions:
REMARK  status: ('A' for Active; 'I' for Inactive)
REMARK    1  A    between atoms: C_1  and  C_2
REMARK    2  A    between atoms: C_2  and  C_4
REMARK    3  A    between atoms: C_2  and  N_41
REMARK    4  A    between atoms: C_7  and  O_11
REMARK    5  A    between atoms: O_11  and  C_12
REMARK    6  A    between atoms: C_13  and  C_14
REMARK    7  A    between atoms: C_13  and  N_41
REMARK                            x       y       z     vdW  Elec       q    Type
REMARK                         _______ _______ _______ _____ _____    ______ ____
ROOT
ATOM      1  C   UNL     1      -8.182   0.188   0.756  0.00  0.00    -0.006 C 
ENDROOT
BRANCH   1   2
ATOM      2  C   UNL     1      -8.858   0.235  -0.590  0.00  0.00    +0.093 A 
ATOM      3  N   UNL     1     -10.207   0.398  -0.629  0.00  0.00    -0.312 N 
ATOM      4  H   UNL     1     -10.704   0.480   0.200  0.00  0.00    +0.170 HD
ATOM      5  C   UNL     1     -10.862   0.448  -1.812  0.00  0.00    +0.259 A 
ATOM      6  O   UNL     1     -12.069   0.594  -1.861  0.00  0.00    -0.267 OA
ATOM      7  C   UNL     1     -10.058   0.318  -3.036  0.00  0.00    +0.065 A 
ATOM      8  C   UNL     1     -10.635   0.357  -4.304  0.00  0.00    +0.017 A 
ATOM      9  C   UNL     1      -9.842   0.232  -5.411  0.00  0.00    +0.021 A 
ATOM     10  C   UNL     1      -8.468   0.068  -5.286  0.00  0.00    +0.043 A 
ATOM     11  C   UNL     1      -7.873   0.027  -4.043  0.00  0.00    +0.048 A 
ATOM     12  C   UNL     1      -8.662   0.152  -2.898  0.00  0.00    +0.079 A 
ATOM     13  N   UNL     1      -8.122   0.123  -1.654  0.00  0.00    -0.236 NA
ATOM     14 CL   UNL     1      -7.489  -0.087  -6.711  0.00  0.00    -0.083 Cl
ENDBRANCH   1   2
BRANCH   1  15
ATOM     15  N   UNL     1      -6.731   0.006   0.561  0.00  0.00    +0.388 N 
ATOM     16  H   UNL     1      -6.565  -0.872   0.057  0.00  0.00    -0.084 HD
ATOM     17  H   UNL     1      -6.362   0.791   0.013  0.00  0.00    -0.084 HD
BRANCH  15  19
ATOM     18  C   UNL     1      -6.085  -1.473   2.411  0.00  0.00    -0.009 C 
ATOM     19  C   UNL     1      -6.042  -0.044   1.865  0.00  0.00    -0.043 C 
BRANCH  19  20
ATOM     20  C   UNL     1      -4.608   0.382   1.683  0.00  0.00    -0.060 A 
ATOM     21  C   UNL     1      -3.902  -0.030   0.567  0.00  0.00    +0.005 A 
ATOM     22  C   UNL     1      -2.590   0.364   0.395  0.00  0.00    +0.047 A 
ATOM     23  C   UNL     1      -1.975   1.163   1.348  0.00  0.00    +0.134 A 
ATOM     24  C   UNL     1      -2.685   1.574   2.467  0.00  0.00    +0.060 A 
ATOM     25  C   UNL     1      -4.001   1.182   2.632  0.00  0.00    +0.021 A 
ATOM     26 BR   UNL     1      -1.854   2.670   3.766  0.00  0.00    -0.047 Br
BRANCH  23  27
ATOM     27  O   UNL     1      -0.682   1.547   1.184  0.00  0.00    -0.494 OA
ATOM     28  C   UNL     1      -0.013   1.086   0.008  0.00  0.00    +0.277 C 
ENDBRANCH  23  27
ENDBRANCH  19  20
ENDBRANCH  15  19
ENDBRANCH   1  15
TORSDOF 5
