REMARK  Name = ZINC12509772
REMARK  4 active torsions:
REMARK  status: ('A' for Active; 'I' for Inactive)
REMARK    1  A    between atoms: C_1  and  C_2
REMARK    2  A    between atoms: C_9  and  N_14
REMARK    3  A    between atoms: C_18  and  S_21
REMARK    4  A    between atoms: S_21  and  N_24
REMARK                            x       y       z     vdW  Elec       q    Type
REMARK                         _______ _______ _______ _____ _____    ______ ____
ROOT
ATOM      1  N   UNL     1       2.285   3.929   0.001  0.00  0.00    -0.299 N 
ATOM      2  C   UNL     1       1.113   3.201   0.177  0.00  0.00    +0.123 A 
ATOM      3  C   UNL     1       1.155   1.810   0.153  0.00  0.00    +0.046 A 
ATOM      4  C   UNL     1      -0.018   1.099   0.330  0.00  0.00    +0.033 A 
ATOM      5  C   UNL     1      -1.199   1.805   0.519  0.00  0.00    +0.124 A 
ATOM      6  C   UNL     1      -1.167   3.185   0.537  0.00  0.00    +0.141 A 
ATOM      7  N   UNL     1      -0.033   3.838   0.366  0.00  0.00    -0.238 NA
ATOM      8  H   UNL     1       3.137   3.470  -0.054  0.00  0.00    +0.154 HD
ENDROOT
BRANCH   1  16
ATOM      9  C   UNL     1       2.305   9.785  -2.771  0.00  0.00    +0.062 C 
ATOM     10  C   UNL     1       1.422   9.976  -1.537  0.00  0.00    +0.256 C 
ATOM     11  C   UNL     1       0.113   9.257  -1.740  0.00  0.00    +0.258 C 
ATOM     12  O   UNL     1      -0.832   9.839  -2.228  0.00  0.00    -0.271 OA
ATOM     13  N   UNL     1      -0.003   7.960  -1.378  0.00  0.00    -0.279 N 
ATOM     14  C   UNL     1       1.094   7.320  -0.784  0.00  0.00    +0.077 A 
ATOM     15  C   UNL     1       1.142   5.939  -0.694  0.00  0.00    +0.050 A 
ATOM     16  C   UNL     1       2.234   5.324  -0.096  0.00  0.00    +0.034 A 
ATOM     17  C   UNL     1       3.279   6.093   0.400  0.00  0.00    +0.027 A 
ATOM     18  C   UNL     1       3.234   7.472   0.304  0.00  0.00    +0.049 A 
ATOM     19  C   UNL     1       2.145   8.089  -0.286  0.00  0.00    +0.143 A 
ATOM     20  O   UNL     1       2.088   9.445  -0.388  0.00  0.00    -0.478 OA
ATOM     21  H   UNL     1      -0.833   7.480  -1.526  0.00  0.00    +0.155 HD
ENDBRANCH   1  16
BRANCH   5  22
ATOM     22  S   UNL     1      -2.723   0.948   0.741  0.00  0.00    +0.062 S 
ATOM     23  O   UNL     1      -3.754   1.845   0.352  0.00  0.00    -0.153 OA
ATOM     24  O   UNL     1      -2.560  -0.331   0.142  0.00  0.00    -0.153 OA
BRANCH  22  25
ATOM     25  N   UNL     1      -2.907   0.690   2.366  0.00  0.00    -0.177 NA
ATOM     26  C   UNL     1      -2.436  -0.491   3.105  0.00  0.00    +0.109 C 
ATOM     27  C   UNL     1      -2.852  -0.304   4.579  0.00  0.00    +0.018 C 
ATOM     28  C   UNL     1      -4.033   0.696   4.481  0.00  0.00    +0.018 C 
ATOM     29  C   UNL     1      -3.577   1.602   3.310  0.00  0.00    +0.109 C 
ENDBRANCH  22  25
ENDBRANCH   5  22
TORSDOF 3
