REMARK  Name = ZINC13063768
REMARK  13 active torsions:
REMARK  status: ('A' for Active; 'I' for Inactive)
REMARK    1  A    between atoms: C_1  and  C_2
REMARK    2  A    between atoms: C_2  and  C_3
REMARK    3  A    between atoms: C_3  and  C_5
REMARK    4  A    between atoms: C_3  and  N_65
REMARK    5  A    between atoms: N_9  and  C_10
REMARK    6  A    between atoms: C_10  and  C_11
REMARK    7  A    between atoms: C_10  and  C_12
REMARK    8  A    between atoms: C_10  and  C_13
REMARK    9  A    between atoms: C_14  and  C_15
REMARK   10  A    between atoms: C_14  and  N_65
REMARK   11  A    between atoms: C_22  and  C_23
REMARK   12  A    between atoms: C_22  and  N_65
REMARK   13  A    between atoms: C_28  and  C_35
REMARK                            x       y       z     vdW  Elec       q    Type
REMARK                         _______ _______ _______ _____ _____    ______ ____
ROOT
ATOM      1  N   UNL     1       1.260  -2.882  -1.748  0.00  0.00    +0.392 N 
ATOM      2  H   UNL     1       0.473  -2.409  -2.207  0.00  0.00    -0.080 HD
ENDROOT
BRANCH   1   3
ATOM      3  C   UNL     1       2.505  -2.557  -2.475  0.00  0.00    +0.003 C 
BRANCH   3   4
ATOM      4  C   UNL     1       2.376  -1.171  -3.052  0.00  0.00    +0.139 A 
ATOM      5  N   UNL     1       1.791  -0.141  -2.492  0.00  0.00    -0.115 NA
ATOM      6  N   UNL     1       1.890   0.860  -3.297  0.00  0.00    -0.023 NA
ATOM      7  N   UNL     1       2.524   0.495  -4.356  0.00  0.00    -0.043 NA
ATOM      8  N   UNL     1       2.846  -0.749  -4.241  0.00  0.00    -0.226 N 
BRANCH   8   9
ATOM      9  C   UNL     1       3.580  -1.552  -5.222  0.00  0.00    +0.059 C 
ATOM     10  C   UNL     1       2.656  -2.631  -5.792  0.00  0.00    +0.036 C 
ATOM     11  C   UNL     1       4.071  -0.650  -6.355  0.00  0.00    +0.036 C 
ATOM     12  C   UNL     1       4.779  -2.216  -4.542  0.00  0.00    +0.036 C 
ENDBRANCH   8   9
ENDBRANCH   3   4
BRANCH   3  14
ATOM     13  C   UNL     1       3.868  -4.025  -0.982  0.00  0.00    +0.002 C 
ATOM     14  C   UNL     1       3.704  -2.605  -1.526  0.00  0.00    -0.011 C 
ENDBRANCH   3  14
ENDBRANCH   1   3
BRANCH   1  15
ATOM     15  C   UNL     1       1.353  -2.413  -0.350  0.00  0.00    -0.042 C 
BRANCH  15  16
ATOM     16  C   UNL     1       1.098  -0.927  -0.322  0.00  0.00    -0.064 A 
ATOM     17  C   UNL     1      -0.182  -0.443  -0.515  0.00  0.00    +0.004 A 
ATOM     18  C   UNL     1      -0.417   0.919  -0.490  0.00  0.00    +0.038 A 
ATOM     19  C   UNL     1       0.630   1.798  -0.271  0.00  0.00    +0.123 A 
ATOM     20  C   UNL     1       1.912   1.311  -0.077  0.00  0.00    +0.038 A 
ATOM     21  C   UNL     1       2.145  -0.051  -0.103  0.00  0.00    +0.004 A 
ATOM     22  F   UNL     1       0.402   3.129  -0.246  0.00  0.00    -0.205 F 
ENDBRANCH  15  16
ENDBRANCH   1  15
BRANCH   1  23
ATOM     23  C   UNL     1       1.025  -4.341  -1.776  0.00  0.00    -0.036 C 
BRANCH  23  24
ATOM     24  C   UNL     1       0.551  -4.728  -3.154  0.00  0.00    +0.001 A 
ATOM     25  C   UNL     1       1.436  -5.206  -4.063  0.00  0.00    +0.017 A 
ATOM     26  C   UNL     1       0.944  -5.573  -5.392  0.00  0.00    -0.001 A 
ATOM     27  C   UNL     1       1.809  -6.072  -6.372  0.00  0.00    +0.010 A 
ATOM     28  C   UNL     1       1.318  -6.405  -7.602  0.00  0.00    +0.004 A 
ATOM     29  C   UNL     1      -0.032  -6.254  -7.889  0.00  0.00    -0.048 A 
ATOM     30  C   UNL     1      -0.903  -5.765  -6.939  0.00  0.00    +0.029 A 
ATOM     31  C   UNL     1      -0.426  -5.418  -5.679  0.00  0.00    +0.049 A 
ATOM     32  N   UNL     1      -1.274  -4.927  -4.710  0.00  0.00    -0.322 N 
ATOM     33  H   UNL     1      -2.217  -4.821  -4.909  0.00  0.00    +0.169 HD
ATOM     34  C   UNL     1      -0.814  -4.598  -3.490  0.00  0.00    +0.251 A 
ATOM     35  O   UNL     1      -1.593  -4.171  -2.656  0.00  0.00    -0.268 OA
ATOM     36  C   UNL     1      -0.551  -6.629  -9.253  0.00  0.00    +0.044 C 
ENDBRANCH  23  24
ENDBRANCH   1  23
TORSDOF 8
