REMARK  Name = ZINC67581964
REMARK  6 active torsions:
REMARK  status: ('A' for Active; 'I' for Inactive)
REMARK    1  A    between atoms: C_4  and  N_7
REMARK    2  A    between atoms: N_7  and  C_8
REMARK    3  A    between atoms: N_16  and  C_17
REMARK    4  A    between atoms: C_17  and  C_18
REMARK    5  A    between atoms: C_18  and  C_20
REMARK    6  A    between atoms: C_18  and  N_25
REMARK                            x       y       z     vdW  Elec       q    Type
REMARK                         _______ _______ _______ _____ _____    ______ ____
ROOT
ATOM      1  C   UNL     1       3.410  -2.575   0.758  0.00  0.00    +0.089 C 
ATOM      2  C   UNL     1       4.768  -3.152   1.240  0.00  0.00    +0.043 C 
ATOM      3  C   UNL     1       4.934  -4.417   0.371  0.00  0.00    +0.111 C 
ATOM      4  N   UNL     1       4.099  -4.237  -0.826  0.00  0.00    -0.284 N 
ATOM      5  C   UNL     1       3.445  -2.917  -0.753  0.00  0.00    +0.131 C 
ATOM      6  C   UNL     1       3.956  -5.130  -1.825  0.00  0.00    +0.302 C 
ATOM      7  O   UNL     1       3.236  -4.874  -2.770  0.00  0.00    -0.253 OA
ATOM      8  N   UNL     1       4.610  -6.307  -1.775  0.00  0.00    -0.300 N 
ATOM      9  H   UNL     1       5.184  -6.512  -1.020  0.00  0.00    +0.150 HD
ENDROOT
BRANCH   1  10
ATOM     10  N   UNL     1       3.352  -1.127   0.967  0.00  0.00    -0.339 N 
ATOM     11  H   UNL     1       4.171  -0.616   1.055  0.00  0.00    +0.146 HD
BRANCH  10  15
ATOM     12  C   UNL     1      -0.335   0.797   1.186  0.00  0.00    +0.000 A 
ATOM     13  C   UNL     1       0.833   1.527   1.312  0.00  0.00    +0.002 A 
ATOM     14  C   UNL     1       2.057   0.892   1.240  0.00  0.00    +0.023 A 
ATOM     15  C   UNL     1       2.115  -0.481   1.041  0.00  0.00    +0.027 A 
ATOM     16  C   UNL     1       0.940  -1.212   0.915  0.00  0.00    +0.023 A 
ATOM     17  C   UNL     1      -0.281  -0.571   0.988  0.00  0.00    +0.002 A 
ENDBRANCH  10  15
ENDBRANCH   1  10
BRANCH   8  18
ATOM     18  C   UNL     1       4.453  -7.278  -2.861  0.00  0.00    +0.098 C 
BRANCH  18  19
ATOM     19  C   UNL     1       5.395  -8.461  -2.627  0.00  0.00    +0.016 C 
BRANCH  19  20
ATOM     20  N   UNL     1       6.768  -7.968  -2.458  0.00  0.00    +0.387 N 
ATOM     21  C   UNL     1       7.183  -7.254  -3.672  0.00  0.00    -0.078 C 
ATOM     22  C   UNL     1       8.582  -6.669  -3.471  0.00  0.00    -0.019 C 
ATOM     23  C   UNL     1       9.568  -7.804  -3.184  0.00  0.00    -0.004 C 
ATOM     24  C   UNL     1       9.086  -8.588  -1.960  0.00  0.00    -0.019 C 
ATOM     25  C   UNL     1       7.668  -9.102  -2.216  0.00  0.00    -0.078 C 
ATOM     26  H   UNL     1       6.804  -7.338  -1.671  0.00  0.00    -0.081 HD
ENDBRANCH  19  20
BRANCH  19  27
ATOM     27  C   UNL     1       4.971  -9.202  -1.385  0.00  0.00    +0.093 A 
ATOM     28  C   UNL     1       4.257 -10.341  -1.353  0.00  0.00    +0.043 A 
ATOM     29  C   UNL     1       4.089 -10.682   0.009  0.00  0.00    +0.041 A 
ATOM     30  C   UNL     1       4.710  -9.731   0.728  0.00  0.00    +0.195 A 
ATOM     31  O   UNL     1       5.248  -8.840  -0.121  0.00  0.00    -0.469 OA
ENDBRANCH  19  27
ENDBRANCH  18  19
ENDBRANCH   8  18
TORSDOF 6
