REMARK  Name = ZINC40600026
REMARK  8 active torsions:
REMARK  status: ('A' for Active; 'I' for Inactive)
REMARK    1  A    between atoms: C_1  and  C_2
REMARK    2  A    between atoms: C_2  and  C_3
REMARK    3  A    between atoms: C_2  and  N_4
REMARK    4  A    between atoms: C_8  and  C_10
REMARK    5  A    between atoms: C_10  and  N_11
REMARK    6  A    between atoms: C_15  and  C_18
REMARK    7  A    between atoms: C_18  and  N_19
REMARK    8  A    between atoms: N_19  and  C_20
REMARK                            x       y       z     vdW  Elec       q    Type
REMARK                         _______ _______ _______ _____ _____    ______ ____
ROOT
ATOM      1  C   UNL     1       4.710  -1.618  -3.575  0.00  0.00    +0.019 C 
ENDROOT
BRANCH   1   6
ATOM      2  N   UNL     1       0.688  -0.476  -1.203  0.00  0.00    -0.297 N 
ATOM      3  C   UNL     1       2.031  -0.587  -1.215  0.00  0.00    +0.306 C 
ATOM      4  O   UNL     1       2.673  -0.295  -0.226  0.00  0.00    -0.252 OA
ATOM      5  N   UNL     1       2.662  -1.022  -2.324  0.00  0.00    -0.242 N 
ATOM      6  C   UNL     1       4.005  -1.132  -2.335  0.00  0.00    +0.204 C 
ATOM      7  O   UNL     1       4.646  -0.841  -1.348  0.00  0.00    -0.277 OA
ATOM      8  H   UNL     1       0.175  -0.710  -1.993  0.00  0.00    +0.151 HD
ATOM      9  H   UNL     1       2.149  -1.255  -3.114  0.00  0.00    +0.159 HD
BRANCH   2  11
ATOM     10  C   UNL     1      -0.019   1.526   0.010  0.00  0.00    +0.027 C 
ATOM     11  C   UNL     1       0.002  -0.004   0.002  0.00  0.00    +0.068 C 
ATOM     12  C   UNL     1      -1.433  -0.534   0.013  0.00  0.00    +0.027 C 
ENDBRANCH   2  11
ENDBRANCH   1   6
BRANCH   1  13
ATOM     13  N   UNL     1       6.159  -1.649  -3.334  0.00  0.00    +0.386 N 
ATOM     14  C   UNL     1       6.459  -2.639  -2.293  0.00  0.00    -0.078 C 
ATOM     15  C   UNL     1       7.957  -2.619  -1.980  0.00  0.00    -0.018 C 
ATOM     16  C   UNL     1       8.743  -2.957  -3.251  0.00  0.00    -0.002 C 
ATOM     17  C   UNL     1       8.366  -1.962  -4.352  0.00  0.00    -0.045 C 
ATOM     18  C   UNL     1       6.853  -2.007  -4.577  0.00  0.00    -0.077 C 
ATOM     19  H   UNL     1       6.468  -0.739  -3.028  0.00  0.00    -0.081 HD
BRANCH  17  20
ATOM     20  C   UNL     1       9.087  -2.337  -5.648  0.00  0.00    -0.081 C 
BRANCH  20  21
ATOM     21  N   UNL     1      10.537  -2.183  -5.464  0.00  0.00    +0.377 N 
ATOM     22  C   UNL     1      11.229  -2.543  -6.709  0.00  0.00    -0.100 C 
ATOM     23  H   UNL     1      10.745  -1.224  -5.229  0.00  0.00    -0.086 HD
ATOM     24  H   UNL     1      10.848  -2.787  -4.719  0.00  0.00    -0.086 HD
ENDBRANCH  20  21
ENDBRANCH  17  20
ENDBRANCH   1  13
TORSDOF 5
