REMARK  Name = ZINC36316497
REMARK  16 active torsions:
REMARK  status: ('A' for Active; 'I' for Inactive)
REMARK    1  A    between atoms: C_1  and  C_2
REMARK    2  A    between atoms: C_2  and  C_3
REMARK    3  A    between atoms: C_4  and  C_22
REMARK    4  A    between atoms: C_5  and  O_14
REMARK    5  A    between atoms: N_6  and  C_8
REMARK    6  A    between atoms: O_14  and  C_15
REMARK    7  A    between atoms: C_22  and  N_23
REMARK    8  A    between atoms: N_23  and  C_24
REMARK    9  A    between atoms: N_23  and  C_28
REMARK   10  A    between atoms: C_24  and  C_25
REMARK   11  A    between atoms: C_28  and  C_29
REMARK   12  A    between atoms: C_29  and  C_31
REMARK   13  A    between atoms: C_29  and  O_35
REMARK   14  A    between atoms: C_31  and  O_32
REMARK   15  A    between atoms: O_32  and  C_33
REMARK   16  A    between atoms: C_33  and  C_34
REMARK                            x       y       z     vdW  Elec       q    Type
REMARK                         _______ _______ _______ _____ _____    ______ ____
ROOT
ATOM      1  C   UNL     1      -1.088   0.099  -0.391  0.00  0.00    +0.068 A 
ATOM      2  C   UNL     1      -1.304  -0.095   0.977  0.00  0.00    +0.021 A 
ATOM      3  C   UNL     1      -2.575  -0.549   1.138  0.00  0.00    +0.225 A 
ATOM      4  N   UNL     1      -3.138  -0.636  -0.097  0.00  0.00    -0.200 N 
ATOM      5  N   UNL     1      -2.183  -0.218  -1.032  0.00  0.00    -0.168 NA
ENDROOT
BRANCH   4   6
ATOM      6  C   UNL     1      -4.442  -1.062  -0.382  0.00  0.00    +0.069 A 
ATOM      7  C   UNL     1      -4.981  -2.151   0.291  0.00  0.00    +0.028 A 
ATOM      8  C   UNL     1      -6.267  -2.568   0.008  0.00  0.00    +0.002 A 
ATOM      9  C   UNL     1      -7.018  -1.904  -0.944  0.00  0.00    +0.000 A 
ATOM     10  C   UNL     1      -6.484  -0.820  -1.616  0.00  0.00    +0.002 A 
ATOM     11  C   UNL     1      -5.201  -0.394  -1.333  0.00  0.00    +0.028 A 
ENDBRANCH   4   6
BRANCH   1  13
ATOM     12  C   UNL     1       0.161   2.124  -1.092  0.00  0.00    +0.010 C 
ATOM     13  C   UNL     1       0.189   0.596  -1.019  0.00  0.00    +0.054 C 
ENDBRANCH   1  13
BRANCH   3  14
ATOM     14  O   UNL     1      -3.173  -0.859   2.317  0.00  0.00    -0.435 OA
BRANCH  14  15
ATOM     15  C   UNL     1      -2.968  -2.102   2.829  0.00  0.00    +0.165 A 
ATOM     16  C   UNL     1      -2.083  -2.971   2.209  0.00  0.00    +0.049 A 
ATOM     17  C   UNL     1      -1.876  -4.233   2.732  0.00  0.00    +0.004 A 
ATOM     18  C   UNL     1      -2.549  -4.631   3.872  0.00  0.00    +0.003 A 
ATOM     19  C   UNL     1      -3.432  -3.767   4.494  0.00  0.00    +0.042 A 
ATOM     20  C   UNL     1      -3.639  -2.500   3.978  0.00  0.00    +0.165 A 
ATOM     21  F   UNL     1      -4.498  -1.654   4.588  0.00  0.00    -0.202 F 
ENDBRANCH  14  15
ENDBRANCH   3  14
BRANCH   2  22
ATOM     22  C   UNL     1      -0.304   0.154   2.077  0.00  0.00    -0.036 C 
BRANCH  22  23
ATOM     23  N   UNL     1      -0.381   1.559   2.499  0.00  0.00    +0.384 N 
ATOM     24  H   UNL     1      -0.255   2.158   1.698  0.00  0.00    -0.081 HD
BRANCH  23  25
ATOM     25  C   UNL     1       0.673   1.832   3.485  0.00  0.00    -0.075 C 
BRANCH  25  26
ATOM     26  C   UNL     1       2.043   1.684   2.821  0.00  0.00    -0.028 C 
ATOM     27  C   UNL     1       2.968   0.584   3.345  0.00  0.00    +0.002 C 
ATOM     28  C   UNL     1       3.275   2.051   3.652  0.00  0.00    +0.002 C 
ENDBRANCH  25  26
ENDBRANCH  23  25
BRANCH  23  29
ATOM     29  C   UNL     1      -1.695   1.817   3.103  0.00  0.00    -0.044 C 
BRANCH  29  30
ATOM     30  C   UNL     1      -1.822   3.307   3.429  0.00  0.00    +0.124 C 
BRANCH  30  31
ATOM     31  O   UNL     1      -1.808   4.063   2.217  0.00  0.00    -0.391 OA
ATOM     32  H   UNL     1      -2.525   3.842   1.607  0.00  0.00    +0.210 HD
ENDBRANCH  30  31
BRANCH  30  33
ATOM     33  C   UNL     1      -3.137   3.556   4.170  0.00  0.00    +0.189 C 
BRANCH  33  34
ATOM     34  O   UNL     1      -3.203   4.925   4.577  0.00  0.00    -0.378 OA
BRANCH  34  35
ATOM     35  C   UNL     1      -4.399   5.265   5.282  0.00  0.00    +0.156 C 
ATOM     36  C   UNL     1      -4.360   6.745   5.666  0.00  0.00    +0.034 C 
ENDBRANCH  34  35
ENDBRANCH  33  34
ENDBRANCH  30  33
ENDBRANCH  29  30
ENDBRANCH  23  29
ENDBRANCH  22  23
ENDBRANCH   2  22
TORSDOF 14
