REMARK  Name = ZINC16681474
REMARK  11 active torsions:
REMARK  status: ('A' for Active; 'I' for Inactive)
REMARK    1  A    between atoms: C_1  and  C_2
REMARK    2  A    between atoms: C_2  and  N_3
REMARK    3  A    between atoms: C_6  and  C_16
REMARK    4  A    between atoms: C_10  and  C_14
REMARK    5  A    between atoms: C_10  and  C_15
REMARK    6  A    between atoms: C_20  and  O_22
REMARK    7  A    between atoms: O_22  and  C_23
REMARK    8  A    between atoms: C_23  and  C_24
REMARK    9  A    between atoms: N_26  and  C_27
REMARK   10  A    between atoms: C_31  and  C_33
REMARK   11  A    between atoms: C_31  and  C_34
REMARK                            x       y       z     vdW  Elec       q    Type
REMARK                         _______ _______ _______ _____ _____    ______ ____
ROOT
ATOM      1  N   UNL     1      -2.062   0.975   1.335  0.00  0.00    -0.306 N 
ATOM      2  C   UNL     1      -3.117   1.598   0.728  0.00  0.00    +0.019 C 
ATOM      3  C   UNL     1      -4.223   0.894   0.403  0.00  0.00    +0.024 C 
ATOM      4  C   UNL     1      -4.307  -0.581   0.697  0.00  0.00    +0.089 C 
ATOM      5  C   UNL     1      -3.299  -0.988   1.740  0.00  0.00    +0.024 C 
ATOM      6  C   UNL     1      -2.235  -0.203   2.009  0.00  0.00    +0.019 C 
ATOM      7  C   UNL     1      -1.221  -0.596   3.054  0.00  0.00    +0.058 C 
ATOM      8  C   UNL     1      -1.126  -2.122   3.128  0.00  0.00    -0.023 C 
ATOM      9  C   UNL     1      -2.515  -2.680   3.458  0.00  0.00    +0.086 C 
ATOM     10  C   UNL     1      -3.494  -2.203   2.420  0.00  0.00    +0.162 C 
ATOM     11  O   UNL     1      -4.470  -2.880   2.165  0.00  0.00    -0.292 OA
ATOM     12  C   UNL     1      -0.658  -2.674   1.780  0.00  0.00    +0.011 C 
ATOM     13  C   UNL     1      -0.137  -2.523   4.224  0.00  0.00    +0.011 C 
ATOM     14  C   UNL     1      -5.324   1.517  -0.211  0.00  0.00    +0.162 C 
ATOM     15  O   UNL     1      -6.304   0.855  -0.492  0.00  0.00    -0.292 OA
ATOM     16  C   UNL     1      -5.314   2.996  -0.512  0.00  0.00    +0.086 C 
ATOM     17  C   UNL     1      -4.403   3.709   0.493  0.00  0.00    -0.023 C 
ATOM     18  C   UNL     1      -3.013   3.072   0.426  0.00  0.00    +0.058 C 
ATOM     19  C   UNL     1      -4.973   3.553   1.904  0.00  0.00    +0.011 C 
ATOM     20  C   UNL     1      -4.306   5.194   0.135  0.00  0.00    +0.011 C 
ENDROOT
BRANCH   4  21
ATOM     21  C   UNL     1      -4.044  -1.352  -0.570  0.00  0.00    -0.032 A 
ATOM     22  C   UNL     1      -2.825  -1.232  -1.211  0.00  0.00    +0.005 A 
ATOM     23  C   UNL     1      -2.580  -1.939  -2.374  0.00  0.00    +0.004 A 
ATOM     24  C   UNL     1      -3.554  -2.767  -2.898  0.00  0.00    +0.045 A 
ATOM     25  C   UNL     1      -4.778  -2.889  -2.258  0.00  0.00    +0.121 A 
ATOM     26  C   UNL     1      -5.019  -2.182  -1.088  0.00  0.00    +0.050 A 
BRANCH  25  27
ATOM     27  O   UNL     1      -5.738  -3.702  -2.772  0.00  0.00    -0.483 OA
BRANCH  27  28
ATOM     28  C   UNL     1      -5.418  -4.402  -3.975  0.00  0.00    +0.324 C 
BRANCH  28  29
ATOM     29  C   UNL     1      -6.593  -5.248  -4.392  0.00  0.00    +0.250 C 
ATOM     30  O   UNL     1      -7.606  -5.251  -3.724  0.00  0.00    -0.272 OA
ATOM     31  N   UNL     1      -6.520  -6.002  -5.507  0.00  0.00    -0.316 N 
ATOM     32  C   UNL     1      -7.663  -6.824  -5.912  0.00  0.00    +0.128 C 
ATOM     33  H   UNL     1      -5.711  -6.000  -6.041  0.00  0.00    +0.148 HD
ENDBRANCH  28  29
ENDBRANCH  27  28
ENDBRANCH  25  27
ENDBRANCH   4  21
BRANCH   1  35
ATOM     34  C   UNL     1      -0.484   2.418   2.523  0.00  0.00    +0.024 C 
ATOM     35  C   UNL     1      -0.729   1.579   1.267  0.00  0.00    +0.107 C 
ENDBRANCH   1  35
TORSDOF 5
