REMARK  Name = ZINC13549896
REMARK  5 active torsions:
REMARK  status: ('A' for Active; 'I' for Inactive)
REMARK    1  A    between atoms: C_1  and  C_2
REMARK    2  A    between atoms: C_2  and  C_26
REMARK    3  A    between atoms: N_10  and  C_13
REMARK    4  A    between atoms: C_13  and  C_14
REMARK    5  A    between atoms: C_13  and  C_20
REMARK                            x       y       z     vdW  Elec       q    Type
REMARK                         _______ _______ _______ _____ _____    ______ ____
ROOT
ATOM      1  C   UNL     1       3.022  -0.519  -2.498  0.00  0.00    +0.026 C 
ATOM      2  C   UNL     1       2.440  -0.254  -1.108  0.00  0.00    +0.048 C 
ATOM      3  C   UNL     1       1.155  -1.079  -0.873  0.00  0.00    +0.133 C 
ATOM      4  N   UNL     1      -0.010  -0.251  -0.659  0.00  0.00    -0.366 N 
ATOM      5  C   UNL     1       0.055   1.044  -0.670  0.00  0.00    +0.131 C 
ATOM      6  S   UNL     1       1.762   1.446  -0.983  0.00  0.00    -0.083 S 
ATOM      7  N   UNL     1      -0.983   1.927  -0.485  0.00  0.00    -0.309 N 
ATOM      8  C   UNL     1      -0.755   3.379  -0.520  0.00  0.00    +0.122 C 
ATOM      9  C   UNL     1      -1.765   4.003  -1.496  0.00  0.00    +0.104 C 
ATOM     10  N   UNL     1      -3.124   3.597  -1.111  0.00  0.00    -0.289 NA
ATOM     11  C   UNL     1      -3.297   2.143  -1.222  0.00  0.00    +0.104 C 
ATOM     12  C   UNL     1      -2.351   1.443  -0.240  0.00  0.00    +0.122 C 
ATOM     13  H   UNL     1      -0.973  -0.751  -0.482  0.00  0.00    +0.161 HD
ENDROOT
BRANCH   2  14
ATOM     14  C   UNL     1       3.478  -0.520  -0.016  0.00  0.00    +0.099 C 
ATOM     15 BR   UNL     1       3.950  -2.429  -0.012  0.00  0.00    -0.090 Br
ENDBRANCH   2  14
BRANCH  10  16
ATOM     16  C   UNL     1      -4.131   4.310  -1.909  0.00  0.00    +0.117 C 
BRANCH  16  17
ATOM     17  C   UNL     1      -5.510   3.895  -1.463  0.00  0.00    -0.026 A 
ATOM     18  C   UNL     1      -5.798   3.792  -0.115  0.00  0.00    +0.005 A 
ATOM     19  C   UNL     1      -7.064   3.416   0.294  0.00  0.00    +0.000 A 
ATOM     20  C   UNL     1      -8.038   3.133  -0.646  0.00  0.00    +0.000 A 
ATOM     21  C   UNL     1      -7.748   3.231  -1.994  0.00  0.00    +0.000 A 
ATOM     22  C   UNL     1      -6.484   3.612  -2.402  0.00  0.00    +0.005 A 
ENDBRANCH  16  17
BRANCH  16  23
ATOM     23  C   UNL     1      -3.966   5.795  -1.715  0.00  0.00    -0.026 A 
ATOM     24  C   UNL     1      -3.768   6.309  -0.448  0.00  0.00    +0.005 A 
ATOM     25  C   UNL     1      -3.612   7.671  -0.271  0.00  0.00    +0.000 A 
ATOM     26  C   UNL     1      -3.665   8.520  -1.360  0.00  0.00    +0.000 A 
ATOM     27  C   UNL     1      -3.869   8.007  -2.627  0.00  0.00    +0.000 A 
ATOM     28  C   UNL     1      -4.020   6.644  -2.805  0.00  0.00    +0.005 A 
ENDBRANCH  16  23
ENDBRANCH  10  16
TORSDOF 4
