REMARK  Name = ZINC40089254
REMARK  11 active torsions:
REMARK  status: ('A' for Active; 'I' for Inactive)
REMARK    1  A    between atoms: C_1  and  C_2
REMARK    2  A    between atoms: C_4  and  C_15
REMARK    3  A    between atoms: C_6  and  S_9
REMARK    4  A    between atoms: C_7  and  C_8
REMARK    5  A    between atoms: S_9  and  N_12
REMARK    6  A    between atoms: N_12  and  C_13
REMARK    7  A    between atoms: N_12  and  C_14
REMARK    8  A    between atoms: N_17  and  C_18
REMARK    9  A    between atoms: C_18  and  C_19
REMARK   10  A    between atoms: C_19  and  C_21
REMARK   11  A    between atoms: C_19  and  N_28
REMARK                            x       y       z     vdW  Elec       q    Type
REMARK                         _______ _______ _______ _____ _____    ______ ____
ROOT
ATOM      1  C   UNL     1      -0.308  -4.458  -2.418  0.00  0.00    +0.244 C 
ATOM      2  O   UNL     1      -0.357  -5.635  -2.120  0.00  0.00    -0.270 OA
ATOM      3  N   UNL     1      -0.453  -4.082  -3.705  0.00  0.00    -0.313 N 
ATOM      4  H   UNL     1      -0.414  -3.143  -3.943  0.00  0.00    +0.149 HD
ENDROOT
BRANCH   1   8
ATOM      5  C   UNL     1       0.232   0.322  -1.091  0.00  0.00    +0.044 C 
ATOM      6  C   UNL     1       0.170  -1.139  -0.727  0.00  0.00    -0.045 A 
ATOM      7  C   UNL     1      -0.034  -2.086  -1.710  0.00  0.00    +0.016 A 
ATOM      8  C   UNL     1      -0.090  -3.438  -1.370  0.00  0.00    +0.039 A 
ATOM      9  C   UNL     1       0.060  -3.824  -0.037  0.00  0.00    +0.041 A 
ATOM     10  C   UNL     1       0.263  -2.867   0.936  0.00  0.00    +0.109 A 
ATOM     11  C   UNL     1       0.323  -1.528   0.592  0.00  0.00    -0.021 A 
ATOM     12  C   UNL     1       0.551  -0.489   1.659  0.00  0.00    +0.046 C 
BRANCH  10  13
ATOM     13  S   UNL     1       0.451  -3.352   2.619  0.00  0.00    +0.061 S 
ATOM     14  O   UNL     1       0.286  -4.763   2.657  0.00  0.00    -0.153 OA
ATOM     15  O   UNL     1       1.625  -2.710   3.098  0.00  0.00    -0.153 OA
BRANCH  13  16
ATOM     16  N   UNL     1      -0.819  -2.704   3.461  0.00  0.00    -0.183 NA
ATOM     17  C   UNL     1      -2.114  -3.390   3.477  0.00  0.00    +0.131 C 
ATOM     18  C   UNL     1      -0.649  -1.444   4.189  0.00  0.00    +0.131 C 
ENDBRANCH  13  16
ENDBRANCH  10  13
ENDBRANCH   1   8
BRANCH   3  19
ATOM     19  C   UNL     1      -0.669  -5.093  -4.743  0.00  0.00    +0.094 C 
BRANCH  19  20
ATOM     20  C   UNL     1      -0.668  -4.420  -6.117  0.00  0.00    -0.020 C 
BRANCH  20  21
ATOM     21  C   UNL     1       0.681  -3.797  -6.370  0.00  0.00    -0.058 A 
ATOM     22  C   UNL     1       1.736  -4.583  -6.797  0.00  0.00    +0.002 A 
ATOM     23  C   UNL     1       2.974  -4.012  -7.029  0.00  0.00    +0.002 A 
ATOM     24  C   UNL     1       3.157  -2.656  -6.834  0.00  0.00    +0.020 A 
ATOM     25  C   UNL     1       2.102  -1.870  -6.407  0.00  0.00    +0.041 A 
ATOM     26  C   UNL     1       0.862  -2.441  -6.180  0.00  0.00    +0.022 A 
ATOM     27 CL   UNL     1       2.332  -0.167  -6.161  0.00  0.00    -0.084 Cl
ENDBRANCH  20  21
BRANCH  20  28
ATOM     28  N   UNL     1      -0.946  -5.423  -7.154  0.00  0.00    +0.385 N 
ATOM     29  C   UNL     1      -2.300  -6.000  -6.958  0.00  0.00    -0.078 C 
ATOM     30  C   UNL     1      -2.653  -6.560  -8.359  0.00  0.00    -0.020 C 
ATOM     31  C   UNL     1      -2.049  -5.505  -9.315  0.00  0.00    -0.020 C 
ATOM     32  C   UNL     1      -0.968  -4.786  -8.488  0.00  0.00    -0.078 C 
ATOM     33  H   UNL     1      -0.249  -6.153  -7.128  0.00  0.00    -0.081 HD
ENDBRANCH  20  28
ENDBRANCH  19  20
ENDBRANCH   3  19
TORSDOF 7
