REMARK  Name = ZINC36071229
REMARK  7 active torsions:
REMARK  status: ('A' for Active; 'I' for Inactive)
REMARK    1  A    between atoms: C_1  and  C_2
REMARK    2  A    between atoms: C_5  and  C_8
REMARK    3  A    between atoms: C_21  and  C_23
REMARK    4  A    between atoms: C_23  and  N_24
REMARK    5  A    between atoms: N_24  and  C_25
REMARK    6  A    between atoms: C_25  and  C_26
REMARK    7  A    between atoms: C_32  and  C_34
REMARK                            x       y       z     vdW  Elec       q    Type
REMARK                         _______ _______ _______ _____ _____    ______ ____
ROOT
ATOM      1  C   UNL     1      -0.176  -4.362  -0.113  0.00  0.00    +0.093 A 
ATOM      2  C   UNL     1       0.016  -4.994   1.121  0.00  0.00    +0.033 A 
ATOM      3  C   UNL     1      -0.002  -6.376   1.151  0.00  0.00    +0.047 A 
ATOM      4  C   UNL     1      -0.210  -7.056  -0.051  0.00  0.00    +0.144 A 
ATOM      5  N   UNL     1      -0.383  -6.374  -1.174  0.00  0.00    -0.134 NA
ATOM      6  N   UNL     1      -0.372  -5.091  -1.203  0.00  0.00    -0.147 NA
ATOM      7  N   UNL     1      -0.235  -8.445  -0.069  0.00  0.00    -0.312 N 
ATOM      8  C   UNL     1      -0.339  -9.125  -1.369  0.00  0.00    +0.108 C 
ATOM      9  C   UNL     1       0.599 -10.330  -1.479  0.00  0.00    +0.038 C 
ATOM     10  C   UNL     1       1.947 -10.006  -0.868  0.00  0.00    +0.109 C 
ATOM     11  N   UNL     1       1.876 -10.293   0.565  0.00  0.00    -0.299 N 
ATOM     12  C   UNL     1       1.336  -9.408   1.538  0.00  0.00    +0.126 C 
ATOM     13  C   UNL     1      -0.152  -9.154   1.196  0.00  0.00    +0.125 C 
ATOM     14  C   UNL     1       2.354 -11.479   0.992  0.00  0.00    +0.233 C 
ATOM     15  O   UNL     1       2.823 -12.265   0.197  0.00  0.00    -0.274 OA
ENDROOT
BRANCH   1  20
ATOM     16  C   UNL     1      -0.141   1.387  -0.451  0.00  0.00    +0.044 C 
ATOM     17  C   UNL     1      -0.150  -0.117  -0.362  0.00  0.00    -0.050 A 
ATOM     18  C   UNL     1      -0.353  -0.873  -1.503  0.00  0.00    +0.004 A 
ATOM     19  C   UNL     1      -0.363  -2.251  -1.428  0.00  0.00    +0.010 A 
ATOM     20  C   UNL     1      -0.166  -2.881  -0.200  0.00  0.00    +0.002 A 
ATOM     21  C   UNL     1       0.039  -2.115   0.946  0.00  0.00    +0.010 A 
ATOM     22  C   UNL     1       0.051  -0.737   0.858  0.00  0.00    +0.004 A 
ENDBRANCH   1  20
BRANCH  14  23
ATOM     23  C   UNL     1       2.305 -11.827   2.457  0.00  0.00    +0.203 C 
BRANCH  23  24
ATOM     24  N   UNL     1       2.881 -13.159   2.662  0.00  0.00    -0.290 N 
ATOM     25  C   UNL     1       2.113 -14.256   2.506  0.00  0.00    +0.213 C 
ATOM     26  O   UNL     1       2.563 -15.352   2.765  0.00  0.00    -0.276 OA
ATOM     27  C   UNL     1       0.697 -14.120   2.009  0.00  0.00    +0.109 C 
BRANCH  24  28
ATOM     28  C   UNL     1       4.290 -13.298   3.036  0.00  0.00    +0.139 C 
BRANCH  28  29
ATOM     29  C   UNL     1       4.416 -13.290   4.561  0.00  0.00    +0.136 C 
ATOM     30  C   UNL     1       5.904 -13.401   4.978  0.00  0.00    +0.035 C 
ATOM     31  C   UNL     1       5.866 -12.743   6.385  0.00  0.00    +0.031 C 
ATOM     32  C   UNL     1       4.785 -11.655   6.208  0.00  0.00    +0.160 C 
ATOM     33  O   UNL     1       3.969 -12.032   5.091  0.00  0.00    -0.375 OA
ENDBRANCH  28  29
ENDBRANCH  24  28
ENDBRANCH  23  24
ENDBRANCH  14  23
TORSDOF 5
