REMARK  Name = ZINC32180826
REMARK  6 active torsions:
REMARK  status: ('A' for Active; 'I' for Inactive)
REMARK    1  A    between atoms: C_3  and  N_36
REMARK    2  A    between atoms: C_6  and  C_7
REMARK    3  A    between atoms: C_18  and  S_23
REMARK    4  A    between atoms: S_23  and  N_26
REMARK    5  A    between atoms: N_26  and  C_27
REMARK    6  A    between atoms: C_30  and  C_33
REMARK                            x       y       z     vdW  Elec       q    Type
REMARK                         _______ _______ _______ _____ _____    ______ ____
ROOT
ATOM      1  C   UNL     1      -2.701   2.050   2.424  0.00  0.00    +0.105 C 
ATOM      2  C   UNL     1      -1.304   1.866   3.023  0.00  0.00    +0.029 C 
ATOM      3  C   UNL     1      -0.483   3.146   2.685  0.00  0.00    +0.033 C 
ATOM      4  C   UNL     1      -0.007   2.893   1.268  0.00  0.00    -0.030 C 
ATOM      5  C   UNL     1      -0.021   1.609   1.001  0.00  0.00    -0.023 C 
ATOM      6  C   UNL     1      -0.512   0.832   2.200  0.00  0.00    +0.049 C 
ATOM      7  C   UNL     1      -1.340  -0.344   1.789  0.00  0.00    -0.018 A 
ATOM      8  C   UNL     1      -0.700  -1.462   1.272  0.00  0.00    +0.034 A 
ATOM      9  C   UNL     1      -1.426  -2.570   0.885  0.00  0.00    +0.109 A 
ATOM     10  C   UNL     1      -2.803  -2.579   1.008  0.00  0.00    +0.030 A 
ATOM     11  C   UNL     1      -3.451  -1.472   1.520  0.00  0.00    +0.025 A 
ATOM     12  C   UNL     1      -2.721  -0.357   1.909  0.00  0.00    +0.031 A 
ATOM     13  N   UNL     1      -3.392   0.757   2.424  0.00  0.00    -0.336 N 
ATOM     14  H   UNL     1      -4.414   0.680   2.824  0.00  0.00    +0.147 HD
ENDROOT
BRANCH   1  20
ATOM     15  C   UNL     1      -4.072   2.636   4.434  0.00  0.00    +0.008 A 
ATOM     16  C   UNL     1      -4.783   3.544   5.196  0.00  0.00    +0.033 A 
ATOM     17  C   UNL     1      -4.909   4.854   4.772  0.00  0.00    +0.126 A 
ATOM     18  C   UNL     1      -4.319   5.256   3.588  0.00  0.00    +0.033 A 
ATOM     19  C   UNL     1      -3.605   4.349   2.828  0.00  0.00    +0.008 A 
ATOM     20  C   UNL     1      -3.479   3.040   3.252  0.00  0.00    -0.027 A 
BRANCH  17  21
ATOM     21  N   UNL     1      -5.673   5.826   5.585  0.00  0.00    +0.056 N 
ATOM     22  O   UNL     1      -5.784   6.980   5.212  0.00  0.00    -0.126 OA
ATOM     23  O   UNL     1      -6.192   5.471   6.628  0.00  0.00    -0.126 OA
ENDBRANCH  17  21
ENDBRANCH   1  20
BRANCH   9  24
ATOM     24  S   UNL     1      -0.595  -3.979   0.231  0.00  0.00    +0.072 S 
ATOM     25  O   UNL     1      -1.502  -4.608  -0.663  0.00  0.00    -0.150 OA
ATOM     26  O   UNL     1       0.694  -3.538  -0.176  0.00  0.00    -0.150 OA
BRANCH  24  27
ATOM     27  N   UNL     1      -0.359  -5.034   1.486  0.00  0.00    -0.216 N 
ATOM     28  H   UNL     1      -0.842  -6.022   1.472  0.00  0.00    +0.174 HD
BRANCH  27  29
ATOM     29  C   UNL     1       0.450  -4.671   2.557  0.00  0.00    +0.048 A 
ATOM     30  C   UNL     1       1.835  -4.667   2.412  0.00  0.00    +0.025 A 
ATOM     31  C   UNL     1       2.635  -4.305   3.464  0.00  0.00    +0.017 A 
ATOM     32  C   UNL     1       2.059  -3.949   4.688  0.00  0.00    +0.063 A 
ATOM     33  C   UNL     1       0.668  -3.959   4.832  0.00  0.00    +0.017 A 
ATOM     34  C   UNL     1      -0.127  -4.318   3.774  0.00  0.00    +0.025 A 
BRANCH  32  35
ATOM     35  C   UNL     1       2.917  -3.565   5.824  0.00  0.00    +0.387 C 
ATOM     36  O   UNL     1       2.415  -3.257   6.887  0.00  0.00    -0.241 OA
ATOM     37  O   UNL     1       4.257  -3.556   5.683  0.00  0.00    -0.241 OA
ENDBRANCH  32  35
ENDBRANCH  27  29
ENDBRANCH  24  27
ENDBRANCH   9  24
TORSDOF 6
