REMARK  Name = ZINC10645200
REMARK  8 active torsions:
REMARK  status: ('A' for Active; 'I' for Inactive)
REMARK    1  A    between atoms: C_1  and  C_2
REMARK    2  A    between atoms: C_4  and  C_32
REMARK    3  A    between atoms: C_8  and  N_31
REMARK    4  A    between atoms: C_9  and  C_11
REMARK    5  A    between atoms: C_11  and  O_13
REMARK    6  A    between atoms: O_13  and  C_14
REMARK    7  A    between atoms: C_14  and  C_15
REMARK    8  A    between atoms: C_28  and  C_30
REMARK                            x       y       z     vdW  Elec       q    Type
REMARK                         _______ _______ _______ _____ _____    ______ ____
ROOT
ATOM      1  O   UNL     1      -0.359   2.094  -1.063  0.00  0.00    -0.451 OA
ENDROOT
BRANCH   1   2
ATOM      2  C   UNL     1       0.204   1.821  -2.259  0.00  0.00    +0.348 C 
ATOM      3  O   UNL     1       1.240   1.183  -2.313  0.00  0.00    -0.244 OA
BRANCH   2  12
ATOM      4  C   UNL     1       0.638   1.903  -7.774  0.00  0.00    +0.044 C 
ATOM      5  C   UNL     1      -0.568   2.615  -7.219  0.00  0.00    -0.037 A 
ATOM      6  C   UNL     1      -1.468   3.225  -8.061  0.00  0.00    +0.027 A 
ATOM      7  C   UNL     1      -2.577   3.880  -7.547  0.00  0.00    +0.040 A 
ATOM      8  N   UNL     1      -2.783   3.925  -6.245  0.00  0.00    -0.245 NA
ATOM      9  C   UNL     1      -1.951   3.356  -5.399  0.00  0.00    +0.111 A 
ATOM     10  C   UNL     1      -0.792   2.665  -5.821  0.00  0.00    +0.032 A 
ATOM     11  C   UNL     1       0.013   2.098  -4.750  0.00  0.00    +0.056 A 
ATOM     12  C   UNL     1      -0.408   2.277  -3.450  0.00  0.00    +0.119 A 
ATOM     13  S   UNL     1      -1.915   3.212  -3.629  0.00  0.00    -0.060 S 
ATOM     14  C   UNL     1      -3.554   4.545  -8.482  0.00  0.00    +0.065 C 
BRANCH  11  15
ATOM     15  N   UNL     1       1.176   1.396  -5.031  0.00  0.00    -0.356 N 
ATOM     16  H   UNL     1       1.883   1.345  -4.369  0.00  0.00    +0.142 HD
ATOM     17  H   UNL     1       1.282   0.956  -5.889  0.00  0.00    +0.142 HD
ENDBRANCH  11  15
ENDBRANCH   2  12
ENDBRANCH   1   2
BRANCH   1  18
ATOM     18  C   UNL     1       0.314   1.603   0.098  0.00  0.00    +0.328 C 
BRANCH  18  19
ATOM     19  C   UNL     1      -0.455   2.002   1.331  0.00  0.00    +0.258 C 
ATOM     20  O   UNL     1      -1.480   2.643   1.226  0.00  0.00    -0.271 OA
ATOM     21  N   UNL     1      -0.006   1.645   2.551  0.00  0.00    -0.264 N 
ATOM     22  C   UNL     1       1.176   0.904   2.687  0.00  0.00    +0.058 A 
ATOM     23  C   UNL     1       1.217  -0.433   2.329  0.00  0.00    +0.025 A 
ATOM     24  C   UNL     1       2.386  -1.154   2.492  0.00  0.00    +0.002 A 
ATOM     25  C   UNL     1       3.513  -0.545   3.014  0.00  0.00    +0.002 A 
ATOM     26  C   UNL     1       3.483   0.792   3.365  0.00  0.00    +0.025 A 
ATOM     27  C   UNL     1       2.319   1.523   3.195  0.00  0.00    +0.055 A 
ATOM     28  N   UNL     1       2.281   2.890   3.491  0.00  0.00    -0.284 N 
ATOM     29  C   UNL     1       1.274   3.403   4.232  0.00  0.00    +0.219 C 
ATOM     30  O   UNL     1       1.207   4.600   4.412  0.00  0.00    -0.275 OA
ATOM     31  C   UNL     1       0.233   2.497   4.835  0.00  0.00    +0.118 C 
ATOM     32  C   UNL     1      -0.740   2.030   3.757  0.00  0.00    +0.087 C 
ATOM     33  C   UNL     1      -1.530   0.828   4.278  0.00  0.00    +0.029 C 
ATOM     34  H   UNL     1       2.982   3.474   3.163  0.00  0.00    +0.155 HD
ENDBRANCH  18  19
ENDBRANCH   1  18
TORSDOF 5
