REMARK  Name = ZINC36571331
REMARK  13 active torsions:
REMARK  status: ('A' for Active; 'I' for Inactive)
REMARK    1  A    between atoms: C_1  and  C_2
REMARK    2  A    between atoms: C_2  and  C_3
REMARK    3  A    between atoms: C_3  and  N_4
REMARK    4  A    between atoms: N_4  and  C_5
REMARK    5  A    between atoms: C_5  and  C_7
REMARK    6  A    between atoms: C_5  and  C_13
REMARK    7  A    between atoms: N_15  and  C_16
REMARK    8  A    between atoms: C_16  and  C_17
REMARK    9  A    between atoms: C_16  and  C_18
REMARK   10  A    between atoms: C_16  and  C_19
REMARK   11  A    between atoms: C_20  and  C_22
REMARK   12  A    between atoms: C_26  and  O_29
REMARK   13  A    between atoms: C_27  and  O_28
REMARK                            x       y       z     vdW  Elec       q    Type
REMARK                         _______ _______ _______ _____ _____    ______ ____
ROOT
ATOM      1  N   UNL     1       0.136  -1.987   0.015  0.00  0.00    -0.282 N 
ATOM      2  C   UNL     1      -0.386  -1.818  -1.216  0.00  0.00    +0.251 C 
ATOM      3  O   UNL     1      -0.225  -0.767  -1.806  0.00  0.00    -0.270 OA
ENDROOT
BRANCH   2   4
ATOM      4  C   UNL     1      -1.155  -2.908  -1.848  0.00  0.00    +0.082 A 
ATOM      5  C   UNL     1      -2.160  -3.566  -1.132  0.00  0.00    +0.017 A 
ATOM      6  C   UNL     1      -2.875  -4.583  -1.725  0.00  0.00    +0.005 A 
ATOM      7  C   UNL     1      -2.605  -4.960  -3.030  0.00  0.00    +0.049 A 
ATOM      8  C   UNL     1      -1.612  -4.319  -3.752  0.00  0.00    +0.159 A 
ATOM      9  C   UNL     1      -0.885  -3.286  -3.168  0.00  0.00    +0.171 A 
BRANCH   9  10
ATOM     10  O   UNL     1       0.085  -2.651  -3.875  0.00  0.00    -0.503 OA
ATOM     11  H   UNL     1       0.960  -3.053  -3.791  0.00  0.00    +0.292 HD
ENDBRANCH   9  10
BRANCH   8  12
ATOM     12  O   UNL     1      -1.352  -4.695  -5.033  0.00  0.00    -0.503 OA
ATOM     13  H   UNL     1      -1.869  -4.216  -5.696  0.00  0.00    +0.292 HD
ENDBRANCH   8  12
ENDBRANCH   2   4
BRANCH   1  14
ATOM     14  C   UNL     1       0.952  -0.929   0.616  0.00  0.00    +0.109 C 
BRANCH  14  16
ATOM     15  C   UNL     1       3.134   0.281   0.480  0.00  0.00    +0.005 C 
ATOM     16  C   UNL     1       2.215  -0.720  -0.223  0.00  0.00    +0.016 C 
ENDBRANCH  14  16
ENDBRANCH   1  14
BRANCH   1  17
ATOM     17  C   UNL     1      -0.111  -3.229   0.751  0.00  0.00    +0.192 C 
BRANCH  17  18
ATOM     18  C   UNL     1      -0.876  -2.921   2.013  0.00  0.00    -0.018 A 
ATOM     19  C   UNL     1      -1.554  -1.723   2.135  0.00  0.00    +0.006 A 
ATOM     20  C   UNL     1      -2.255  -1.440   3.292  0.00  0.00    +0.000 A 
ATOM     21  C   UNL     1      -2.279  -2.356   4.327  0.00  0.00    +0.000 A 
ATOM     22  C   UNL     1      -1.602  -3.555   4.205  0.00  0.00    +0.000 A 
ATOM     23  C   UNL     1      -0.904  -3.839   3.046  0.00  0.00    +0.006 A 
ENDBRANCH  17  18
BRANCH  17  24
ATOM     24  C   UNL     1       1.204  -3.874   1.106  0.00  0.00    +0.238 C 
ATOM     25  O   UNL     1       2.193  -3.189   1.257  0.00  0.00    -0.273 OA
ATOM     26  N   UNL     1       1.280  -5.211   1.255  0.00  0.00    -0.309 N 
ATOM     27  H   UNL     1       0.489  -5.759   1.134  0.00  0.00    +0.149 HD
BRANCH  26  28
ATOM     28  C   UNL     1       2.559  -5.838   1.599  0.00  0.00    +0.026 C 
ATOM     29  C   UNL     1       3.052  -5.288   2.939  0.00  0.00    +0.031 C 
ATOM     30  C   UNL     1       2.372  -7.352   1.707  0.00  0.00    +0.031 C 
ATOM     31  C   UNL     1       3.589  -5.527   0.511  0.00  0.00    +0.031 C 
ENDBRANCH  26  28
ENDBRANCH  17  24
ENDBRANCH   1  17
TORSDOF 9
