REMARK  Name = ZINC03977889
REMARK  9 active torsions:
REMARK  status: ('A' for Active; 'I' for Inactive)
REMARK    1  A    between atoms: C_1  and  C_2
REMARK    2  A    between atoms: C_2  and  C_3
REMARK    3  A    between atoms: C_3  and  C_4
REMARK    4  A    between atoms: C_22  and  C_37
REMARK    5  A    between atoms: C_25  and  O_36
REMARK    6  A    between atoms: C_28  and  C_35
REMARK    7  A    between atoms: C_29  and  C_31
REMARK    8  A    between atoms: C_31  and  C_33
REMARK    9  A    between atoms: C_33  and  O_34
REMARK                            x       y       z     vdW  Elec       q    Type
REMARK                         _______ _______ _______ _____ _____    ______ ____
ROOT
ATOM      1  C   UNL     1       0.491  -2.106  -1.861  0.00  0.00    +0.252 C 
ATOM      2  O   UNL     1       1.081  -2.581  -0.633  0.00  0.00    -0.345 OA
ATOM      3  C   UNL     1       1.562  -3.906  -0.937  0.00  0.00    +0.161 C 
ATOM      4  C   UNL     1       2.983  -4.049  -0.325  0.00  0.00    +0.039 C 
ATOM      5  C   UNL     1       3.893  -3.515  -1.434  0.00  0.00    +0.004 C 
ATOM      6  C   UNL     1       5.339  -3.971  -1.385  0.00  0.00    -0.000 C 
ATOM      7  C   UNL     1       6.018  -3.454  -0.113  0.00  0.00    +0.008 C 
ATOM      8  C   UNL     1       5.614  -1.990   0.071  0.00  0.00    +0.032 C 
ATOM      9  C   UNL     1       5.851  -1.227  -1.200  0.00  0.00    -0.056 C 
ATOM     10  C   UNL     1       5.819   0.124  -1.149  0.00  0.00    +0.051 C 
ATOM     11  C   UNL     1       6.011   0.804  -2.460  0.00  0.00    +0.179 C 
ATOM     12  O   UNL     1       6.697   1.801  -2.586  0.00  0.00    -0.288 OA
ATOM     13  C   UNL     1       5.302   0.168  -3.604  0.00  0.00    +0.047 C 
ATOM     14  C   UNL     1       5.343  -1.181  -3.625  0.00  0.00    -0.012 C 
ATOM     15  C   UNL     1       6.111  -1.858  -2.524  0.00  0.00    +0.013 C 
ATOM     16  C   UNL     1       6.046  -3.373  -2.607  0.00  0.00    +0.035 C 
ATOM     17  C   UNL     1       5.380  -3.834  -3.905  0.00  0.00    +0.120 C 
ATOM     18  C   UNL     1       3.881  -3.491  -3.909  0.00  0.00    +0.042 C 
ATOM     19  C   UNL     1       3.246  -4.140  -2.700  0.00  0.00    +0.012 C 
ATOM     20  C   UNL     1       1.741  -3.910  -2.485  0.00  0.00    +0.164 C 
ATOM     21  O   UNL     1       1.375  -2.580  -2.900  0.00  0.00    -0.334 OA
ATOM     22  C   UNL     1       3.530  -5.643  -2.737  0.00  0.00    +0.015 C 
ATOM     23  C   UNL     1       7.574  -1.527  -2.826  0.00  0.00    +0.020 C 
ENDROOT
BRANCH  20  24
ATOM     24  C   UNL     1       0.900  -4.972  -3.146  0.00  0.00    +0.193 C 
ATOM     25  O   UNL     1       1.322  -6.099  -3.249  0.00  0.00    -0.292 OA
BRANCH  24  26
ATOM     26  C   UNL     1      -0.466  -4.627  -3.679  0.00  0.00    +0.233 C 
BRANCH  26  27
ATOM     27  O   UNL     1      -1.061  -5.792  -4.255  0.00  0.00    -0.387 OA
ATOM     28  H   UNL     1      -1.944  -5.643  -4.619  0.00  0.00    +0.210 HD
ENDBRANCH  26  27
ENDBRANCH  24  26
ENDBRANCH  20  24
BRANCH  17  29
ATOM     29  O   UNL     1       5.537  -5.248  -4.036  0.00  0.00    -0.391 OA
ATOM     30  H   UNL     1       5.139  -5.615  -4.837  0.00  0.00    +0.210 HD
ENDBRANCH  17  29
BRANCH   1  31
ATOM     31  C   UNL     1       0.430  -0.577  -1.868  0.00  0.00    +0.061 C 
BRANCH  31  33
ATOM     32  C   UNL     1      -0.635   1.427  -0.824  0.00  0.00    +0.004 C 
ATOM     33  C   UNL     1      -0.575  -0.102  -0.817  0.00  0.00    +0.002 C 
ENDBRANCH  31  33
ENDBRANCH   1  31
TORSDOF 6
