REMARK  Name = ZINC14196478
REMARK  7 active torsions:
REMARK  status: ('A' for Active; 'I' for Inactive)
REMARK    1  A    between atoms: C_1  and  O_2
REMARK    2  A    between atoms: O_2  and  C_3
REMARK    3  A    between atoms: C_6  and  N_9
REMARK    4  A    between atoms: C_18  and  S_19
REMARK    5  A    between atoms: S_19  and  C_20
REMARK    6  A    between atoms: C_20  and  C_21
REMARK    7  A    between atoms: C_24  and  C_27
REMARK                            x       y       z     vdW  Elec       q    Type
REMARK                         _______ _______ _______ _____ _____    ______ ____
ROOT
ATOM      1  N   UNL     1       2.416   4.739   0.010  0.00  0.00    -0.255 N 
ATOM      2  C   UNL     1       2.179   5.965   0.511  0.00  0.00    +0.268 A 
ATOM      3  O   UNL     1       3.094   6.640   0.951  0.00  0.00    -0.267 OA
ATOM      4  C   UNL     1       0.839   6.464   0.524  0.00  0.00    +0.077 A 
ATOM      5  C   UNL     1       0.363   7.761   1.027  0.00  0.00    -0.012 A 
ATOM      6  C   UNL     1      -0.968   7.990   0.914  0.00  0.00    +0.051 A 
ATOM      7  S   UNL     1      -1.642   6.536   0.165  0.00  0.00    -0.062 S 
ATOM      8  C   UNL     1      -0.138   5.608  -0.008  0.00  0.00    +0.118 A 
ATOM      9  N   UNL     1       0.160   4.408  -0.493  0.00  0.00    -0.215 NA
ATOM     10  C   UNL     1       1.403   3.971  -0.492  0.00  0.00    +0.178 A 
ATOM     11  S   UNL     1      -1.825   9.442   1.411  0.00  0.00    -0.118 S 
ATOM     12  C   UNL     1      -0.534  10.322   2.355  0.00  0.00    +0.075 C 
ATOM     13  C   UNL     1       0.771  10.192   1.557  0.00  0.00    +0.016 C 
ATOM     14  C   UNL     1       1.316   8.775   1.640  0.00  0.00    +0.038 C 
ENDROOT
BRANCH   1  18
ATOM     15  C   UNL     1       6.315   3.258  -0.023  0.00  0.00    +0.120 A 
ATOM     16  C   UNL     1       5.493   3.022   1.070  0.00  0.00    +0.047 A 
ATOM     17  C   UNL     1       4.202   3.512   1.081  0.00  0.00    +0.030 A 
ATOM     18  C   UNL     1       3.727   4.241  -0.001  0.00  0.00    +0.052 A 
ATOM     19  C   UNL     1       4.549   4.472  -1.096  0.00  0.00    +0.030 A 
ATOM     20  C   UNL     1       5.841   3.986  -1.104  0.00  0.00    +0.047 A 
BRANCH  15  22
ATOM     21  C   UNL     1       8.377   3.055  -1.190  0.00  0.00    +0.277 C 
ATOM     22  O   UNL     1       7.586   2.775  -0.034  0.00  0.00    -0.495 OA
ENDBRANCH  15  22
ENDBRANCH   1  18
BRANCH  10  23
ATOM     23  S   UNL     1       1.763   2.373  -1.142  0.00  0.00    -0.083 S 
BRANCH  23  24
ATOM     24  C   UNL     1       0.100   1.851  -1.631  0.00  0.00    +0.112 C 
BRANCH  24  25
ATOM     25  C   UNL     1       0.163   0.470  -2.231  0.00  0.00    -0.037 A 
ATOM     26  C   UNL     1       0.356   0.318  -3.592  0.00  0.00    +0.005 A 
ATOM     27  C   UNL     1       0.419  -0.943  -4.147  0.00  0.00    +0.013 A 
ATOM     28  C   UNL     1       0.279  -2.068  -3.333  0.00  0.00    +0.037 A 
ATOM     29  C   UNL     1       0.080  -1.908  -1.960  0.00  0.00    +0.013 A 
ATOM     30  C   UNL     1       0.023  -0.641  -1.418  0.00  0.00    +0.005 A 
BRANCH  28  31
ATOM     31  C   UNL     1       0.341  -3.423  -3.921  0.00  0.00    +0.242 C 
ATOM     32  O   UNL     1       0.218  -4.401  -3.209  0.00  0.00    -0.270 OA
ATOM     33  N   UNL     1       0.533  -3.574  -5.247  0.00  0.00    -0.325 N 
ATOM     34  H   UNL     1       0.631  -2.794  -5.814  0.00  0.00    +0.145 HD
ATOM     35  H   UNL     1       0.574  -4.463  -5.633  0.00  0.00    +0.145 HD
ENDBRANCH  28  31
ENDBRANCH  24  25
ENDBRANCH  23  24
ENDBRANCH  10  23
TORSDOF 6
