REMARK  Name = ZINC64580529
REMARK  6 active torsions:
REMARK  status: ('A' for Active; 'I' for Inactive)
REMARK    1  A    between atoms: C_1  and  N_2
REMARK    2  A    between atoms: C_10  and  C_12
REMARK    3  A    between atoms: C_12  and  C_13
REMARK    4  A    between atoms: C_13  and  C_14
REMARK    5  A    between atoms: C_17  and  N_20
REMARK    6  A    between atoms: C_21  and  C_23
REMARK                            x       y       z     vdW  Elec       q    Type
REMARK                         _______ _______ _______ _____ _____    ______ ____
ROOT
ATOM      1  C   UNL     1       2.532  -1.297   4.052  0.00  0.00    -0.047 A 
ATOM      2  C   UNL     1       3.635  -2.118   3.913  0.00  0.00    +0.005 A 
ATOM      3  C   UNL     1       4.774  -1.880   4.657  0.00  0.00    +0.023 A 
ATOM      4  C   UNL     1       4.810  -0.813   5.545  0.00  0.00    +0.033 A 
ATOM      5  C   UNL     1       3.700   0.011   5.682  0.00  0.00    +0.023 A 
ATOM      6  C   UNL     1       2.566  -0.231   4.932  0.00  0.00    +0.005 A 
ENDROOT
BRANCH   4   7
ATOM      7  N   UNL     1       5.962  -0.568   6.301  0.00  0.00    -0.284 N 
ATOM      8  C   UNL     1       7.177  -0.839   5.784  0.00  0.00    +0.244 C 
ATOM      9  O   UNL     1       7.278  -1.203   4.631  0.00  0.00    -0.273 OA
ATOM     10  H   UNL     1       5.886  -0.204   7.197  0.00  0.00    +0.155 HD
BRANCH   8  11
ATOM     11  C   UNL     1       8.410  -0.688   6.638  0.00  0.00    +0.190 C 
ATOM     12  C   UNL     1       8.572   0.752   7.070  0.00  0.00    +0.016 C 
ATOM     13  C   UNL     1       9.756   1.164   6.564  0.00  0.00    -0.004 A 
ATOM     14  C   UNL     1      10.474   2.443   6.629  0.00  0.00    +0.010 A 
ATOM     15  C   UNL     1      11.670   2.556   6.007  0.00  0.00    +0.001 A 
ATOM     16  C   UNL     1      12.239   1.486   5.303  0.00  0.00    +0.002 A 
ATOM     17  C   UNL     1      11.639   0.281   5.199  0.00  0.00    +0.026 A 
ATOM     18  C   UNL     1      10.378   0.049   5.814  0.00  0.00    +0.043 A 
ATOM     19  N   UNL     1       9.609  -1.013   5.857  0.00  0.00    -0.370 N 
ATOM     20  H   UNL     1       9.799  -1.868   5.442  0.00  0.00    +0.161 HD
ENDBRANCH   8  11
ENDBRANCH   4   7
BRANCH   1  21
ATOM     21  C   UNL     1       1.291  -1.560   3.239  0.00  0.00    +0.038 C 
BRANCH  21  22
ATOM     22  C   UNL     1       1.378  -0.800   1.914  0.00  0.00    +0.047 C 
BRANCH  22  32
ATOM     23  C   UNL     1       0.280   1.107  -0.359  0.00  0.00    +0.131 C 
ATOM     24  N   UNL     1       0.186  -0.345  -0.188  0.00  0.00    -0.313 N 
ATOM     25  C   UNL     1       0.151  -1.302  -1.212  0.00  0.00    +0.052 A 
ATOM     26  C   UNL     1       0.192  -1.148  -2.593  0.00  0.00    +0.025 A 
ATOM     27  C   UNL     1       0.141  -2.256  -3.416  0.00  0.00    +0.002 A 
ATOM     28  C   UNL     1       0.050  -3.523  -2.870  0.00  0.00    +0.002 A 
ATOM     29  C   UNL     1       0.008  -3.686  -1.499  0.00  0.00    +0.025 A 
ATOM     30  C   UNL     1       0.059  -2.577  -0.662  0.00  0.00    +0.050 A 
ATOM     31  N   UNL     1       0.032  -2.490   0.736  0.00  0.00    -0.324 N 
ATOM     32  C   UNL     1       0.119  -1.068   1.088  0.00  0.00    +0.158 C 
ATOM     33  H   UNL     1      -0.029  -3.233   1.357  0.00  0.00    +0.148 HD
ENDBRANCH  22  32
ENDBRANCH  21  22
ENDBRANCH   1  21
TORSDOF 5
