REMARK  Name = ZINC35325302
REMARK  4 active torsions:
REMARK  status: ('A' for Active; 'I' for Inactive)
REMARK    1  A    between atoms: N_15  and  C_17
REMARK    2  A    between atoms: C_17  and  C_18
REMARK    3  A    between atoms: N_20  and  C_21
REMARK    4  A    between atoms: C_24  and  N_27
REMARK                            x       y       z     vdW  Elec       q    Type
REMARK                         _______ _______ _______ _____ _____    ______ ____
ROOT
ATOM      1  C   UNL     1       0.306   2.228   0.198  0.00  0.00    +0.007 A 
ATOM      2  C   UNL     1       1.563   2.824   0.044  0.00  0.00    +0.022 A 
ATOM      3  C   UNL     1       2.692   2.069   0.076  0.00  0.00    +0.023 A 
ATOM      4  N   UNL     1       2.624   0.738   0.312  0.00  0.00    -0.312 N 
ATOM      5  C   UNL     1       1.417   0.124   0.368  0.00  0.00    +0.251 A 
ATOM      6  O   UNL     1       1.360  -1.093   0.435  0.00  0.00    -0.268 OA
ATOM      7  C   UNL     1       0.233   0.874   0.349  0.00  0.00    +0.070 A 
ATOM      8  C   UNL     1       3.802  -0.090   0.572  0.00  0.00    +0.126 C 
ATOM      9  C   UNL     1       5.086   0.561   0.084  0.00  0.00    -0.007 C 
ATOM     10  C   UNL     1       5.126   2.018   0.556  0.00  0.00    +0.011 C 
ATOM     11  C   UNL     1       4.008   2.769  -0.178  0.00  0.00    +0.020 C 
ATOM     12  C   UNL     1       4.292   2.685  -1.687  0.00  0.00    -0.069 C 
ATOM     13  N   UNL     1       4.179   1.277  -2.094  0.00  0.00    +0.386 N 
ATOM     14  C   UNL     1       5.205   0.505  -1.432  0.00  0.00    -0.073 C 
ATOM     15  H   UNL     1       3.270   0.924  -1.834  0.00  0.00    -0.081 HD
ENDROOT
BRANCH  13  16
ATOM     16  C   UNL     1       4.343   1.175  -3.550  0.00  0.00    +0.019 C 
BRANCH  16  17
ATOM     17  C   UNL     1       3.202   1.881  -4.235  0.00  0.00    +0.201 C 
ATOM     18  O   UNL     1       2.337   2.417  -3.575  0.00  0.00    -0.278 OA
ATOM     19  N   UNL     1       3.142   1.918  -5.581  0.00  0.00    -0.287 N 
ATOM     20  H   UNL     1       3.872   1.558  -6.109  0.00  0.00    +0.155 HD
BRANCH  19  21
ATOM     21  C   UNL     1       2.028   2.477  -6.217  0.00  0.00    +0.033 A 
ATOM     22  C   UNL     1       2.178   3.140  -7.428  0.00  0.00    +0.025 A 
ATOM     23  C   UNL     1       1.076   3.690  -8.053  0.00  0.00    +0.034 A 
ATOM     24  C   UNL     1      -0.175   3.581  -7.474  0.00  0.00    +0.126 A 
ATOM     25  C   UNL     1      -0.328   2.922  -6.269  0.00  0.00    +0.034 A 
ATOM     26  C   UNL     1       0.769   2.364  -5.641  0.00  0.00    +0.025 A 
BRANCH  24  27
ATOM     27  N   UNL     1      -1.354   4.172  -8.147  0.00  0.00    +0.056 N 
ATOM     28  O   UNL     1      -1.222   4.749  -9.201  0.00  0.00    -0.126 OA
ATOM     29  O   UNL     1      -2.449   4.078  -7.643  0.00  0.00    -0.126 OA
ENDBRANCH  24  27
ENDBRANCH  19  21
ENDBRANCH  16  17
ENDBRANCH  13  16
TORSDOF 4
