REMARK  Name = ZINC11788296
REMARK  9 active torsions:
REMARK  status: ('A' for Active; 'I' for Inactive)
REMARK    1  A    between atoms: C_1  and  C_2
REMARK    2  A    between atoms: C_9  and  C_11
REMARK    3  A    between atoms: C_11  and  C_12
REMARK    4  A    between atoms: C_12  and  C_23
REMARK    5  A    between atoms: N_16  and  C_19
REMARK    6  A    between atoms: C_19  and  C_20
REMARK    7  A    between atoms: C_20  and  N_59
REMARK    8  A    between atoms: C_21  and  N_59
REMARK    9  A    between atoms: C_22  and  N_59
REMARK                            x       y       z     vdW  Elec       q    Type
REMARK                         _______ _______ _______ _____ _____    ______ ____
ROOT
ATOM      1  C   UNL     1      -0.815   1.624  -1.194  0.00  0.00    +0.090 C 
ATOM      2  C   UNL     1      -0.013   1.086   0.008  0.00  0.00    +0.117 C 
ATOM      3  C   UNL     1      -0.777   1.601   1.208  0.00  0.00    +0.223 C 
ATOM      4  O   UNL     1      -0.480   1.404   2.367  0.00  0.00    -0.275 OA
ATOM      5  N   UNL     1      -1.834   2.309   0.782  0.00  0.00    -0.243 N 
ATOM      6  C   UNL     1      -1.951   2.388  -0.549  0.00  0.00    +0.233 C 
ATOM      7  O   UNL     1      -2.828   2.976  -1.144  0.00  0.00    -0.274 OA
ENDROOT
BRANCH   1   8
ATOM      8  C   UNL     1      -1.342   0.488  -2.032  0.00  0.00    -0.013 A 
ATOM      9  C   UNL     1      -0.988   0.389  -3.364  0.00  0.00    +0.006 A 
ATOM     10  C   UNL     1      -1.469  -0.656  -4.131  0.00  0.00    +0.000 A 
ATOM     11  C   UNL     1      -2.312  -1.597  -3.569  0.00  0.00    +0.001 A 
ATOM     12  C   UNL     1      -2.671  -1.495  -2.238  0.00  0.00    +0.020 A 
ATOM     13  C   UNL     1      -2.186  -0.453  -1.468  0.00  0.00    +0.045 A 
ATOM     14 CL   UNL     1      -2.637  -0.324   0.203  0.00  0.00    -0.083 Cl
ENDBRANCH   1   8
BRANCH   1  15
ATOM     15  C   UNL     1       0.050   2.560  -2.042  0.00  0.00    +0.117 C 
BRANCH  15  23
ATOM     16  C   UNL     1      -1.590   6.492  -6.497  0.00  0.00    +0.009 C 
ATOM     17  C   UNL     1      -0.902   5.952  -5.241  0.00  0.00    +0.003 C 
ATOM     18  C   UNL     1       0.564   6.392  -5.231  0.00  0.00    +0.006 C 
ATOM     19  C   UNL     1       1.243   5.880  -3.959  0.00  0.00    +0.019 C 
ATOM     20  C   UNL     1       1.195   4.353  -3.938  0.00  0.00    +0.108 C 
ATOM     21  N   UNL     1      -0.198   3.916  -4.096  0.00  0.00    -0.301 N 
ATOM     22  C   UNL     1      -0.973   4.422  -5.238  0.00  0.00    +0.111 C 
ATOM     23  C   UNL     1      -0.758   3.070  -3.208  0.00  0.00    +0.217 C 
ATOM     24  O   UNL     1      -1.911   2.721  -3.347  0.00  0.00    -0.276 OA
ENDBRANCH  15  23
ENDBRANCH   1  15
BRANCH   5  25
ATOM     25  C   UNL     1      -2.782   2.946   1.700  0.00  0.00    +0.098 C 
BRANCH  25  26
ATOM     26  C   UNL     1      -3.917   1.971   2.019  0.00  0.00    -0.060 C 
BRANCH  26  29
ATOM     27  C   UNL     1      -5.549   3.738   2.292  0.00  0.00    -0.097 C 
ATOM     28  C   UNL     1      -5.837   1.634   3.454  0.00  0.00    -0.097 C 
ATOM     29  N   UNL     1      -4.853   2.620   2.961  0.00  0.00    +0.377 N 
ATOM     30  H   UNL     1      -4.321   2.988   3.759  0.00  0.00    -0.083 HD
ENDBRANCH  26  29
ENDBRANCH  25  26
ENDBRANCH   5  25
TORSDOF 6
