REMARK  Name = ZINC03812888
REMARK  21 active torsions:
REMARK  status: ('A' for Active; 'I' for Inactive)
REMARK    1  A    between atoms: C_1  and  C_2
REMARK    2  A    between atoms: C_2  and  C_3
REMARK    3  A    between atoms: C_2  and  C_4
REMARK    4  A    between atoms: C_4  and  C_5
REMARK    5  A    between atoms: C_4  and  C_22
REMARK    6  A    between atoms: C_4  and  C_24
REMARK    7  A    between atoms: C_5  and  C_6
REMARK    8  A    between atoms: C_6  and  C_7
REMARK    9  A    between atoms: C_7  and  N_8
REMARK   10  A    between atoms: N_8  and  C_9
REMARK   11  A    between atoms: N_8  and  C_10
REMARK   12  A    between atoms: C_10  and  C_11
REMARK   13  A    between atoms: C_11  and  C_12
REMARK   14  A    between atoms: C_15  and  O_20
REMARK   15  A    between atoms: C_16  and  O_18
REMARK   16  A    between atoms: O_18  and  C_19
REMARK   17  A    between atoms: O_20  and  C_21
REMARK   18  A    between atoms: C_27  and  O_32
REMARK   19  A    between atoms: C_28  and  O_30
REMARK   20  A    between atoms: O_30  and  C_31
REMARK   21  A    between atoms: O_32  and  C_33
REMARK                            x       y       z     vdW  Elec       q    Type
REMARK                         _______ _______ _______ _____ _____    ______ ____
ROOT
ATOM      1  C   UNL     1      -2.224   0.345  -0.841  0.00  0.00    +0.025 C 
ENDROOT
BRANCH   1   2
ATOM      2  C   UNL     1      -1.421  -0.199   0.343  0.00  0.00    +0.085 C 
BRANCH   2   3
ATOM      3  C   UNL     1      -1.716   0.624   1.571  0.00  0.00    -0.024 A 
ATOM      4  C   UNL     1      -0.692   1.298   2.211  0.00  0.00    +0.009 A 
ATOM      5  C   UNL     1      -0.957   2.054   3.338  0.00  0.00    +0.050 A 
ATOM      6  C   UNL     1      -2.251   2.138   3.827  0.00  0.00    +0.162 A 
ATOM      7  C   UNL     1      -3.281   1.460   3.182  0.00  0.00    +0.162 A 
ATOM      8  C   UNL     1      -3.009   0.708   2.050  0.00  0.00    +0.054 A 
BRANCH   7   9
ATOM      9  O   UNL     1      -4.552   1.540   3.658  0.00  0.00    -0.491 OA
ATOM     10  C   UNL     1      -5.559   0.818   2.945  0.00  0.00    +0.277 C 
ENDBRANCH   7   9
BRANCH   6  11
ATOM     11  O   UNL     1      -2.513   2.881   4.935  0.00  0.00    -0.491 OA
ATOM     12  C   UNL     1      -1.407   3.549   5.545  0.00  0.00    +0.277 C 
ENDBRANCH   6  11
ENDBRANCH   2   3
BRANCH   2  14
ATOM     13  C   UNL     1       0.464   1.333  -0.241  0.00  0.00    +0.009 C 
ATOM     14  C   UNL     1       0.073  -0.122   0.024  0.00  0.00    +0.007 C 
ATOM     15  C   UNL     1       0.876  -0.658   1.211  0.00  0.00    +0.009 C 
ENDBRANCH   2  14
BRANCH   2  16
ATOM     16  C   UNL     1      -1.799  -1.600   0.589  0.00  0.00    +0.074 C 
ATOM     17  N   UNL     1      -2.091  -2.681   0.779  0.00  0.00    -0.196 NA
ENDBRANCH   2  16
ENDBRANCH   1   2
BRANCH   1  18
ATOM     18  C   UNL     1      -1.925  -0.490  -2.087  0.00  0.00    -0.017 C 
BRANCH  18  19
ATOM     19  C   UNL     1      -2.727   0.054  -3.270  0.00  0.00    -0.079 C 
BRANCH  19  20
ATOM     20  N   UNL     1      -2.440  -0.748  -4.467  0.00  0.00    +0.378 N 
ATOM     21  C   UNL     1      -1.030  -0.579  -4.843  0.00  0.00    -0.096 C 
ATOM     22  H   UNL     1      -2.622  -1.721  -4.271  0.00  0.00    -0.082 HD
BRANCH  20  23
ATOM     23  C   UNL     1      -3.299  -0.302  -5.573  0.00  0.00    -0.075 C 
BRANCH  23  24
ATOM     24  C   UNL     1      -3.090  -1.217  -6.781  0.00  0.00    +0.017 C 
BRANCH  24  25
ATOM     25  C   UNL     1      -3.970  -0.760  -7.915  0.00  0.00    -0.045 A 
ATOM     26  C   UNL     1      -5.252  -1.264  -8.040  0.00  0.00    +0.007 A 
ATOM     27  C   UNL     1      -6.063  -0.847  -9.079  0.00  0.00    +0.049 A 
ATOM     28  C   UNL     1      -5.593   0.077  -9.998  0.00  0.00    +0.161 A 
ATOM     29  C   UNL     1      -4.304   0.584  -9.872  0.00  0.00    +0.162 A 
ATOM     30  C   UNL     1      -3.497   0.167  -8.826  0.00  0.00    +0.053 A 
BRANCH  29  31
ATOM     31  O   UNL     1      -3.838   1.492 -10.772  0.00  0.00    -0.491 OA
ATOM     32  C   UNL     1      -2.504   1.969 -10.580  0.00  0.00    +0.277 C 
ENDBRANCH  29  31
BRANCH  28  33
ATOM     33  O   UNL     1      -6.390   0.487 -11.020  0.00  0.00    -0.491 OA
ATOM     34  C   UNL     1      -7.702  -0.076 -11.087  0.00  0.00    +0.277 C 
ENDBRANCH  28  33
ENDBRANCH  24  25
ENDBRANCH  23  24
ENDBRANCH  20  23
ENDBRANCH  19  20
ENDBRANCH  18  19
ENDBRANCH   1  18
TORSDOF 14
