REMARK  Name = ZINC05117142
REMARK  9 active torsions:
REMARK  status: ('A' for Active; 'I' for Inactive)
REMARK    1  A    between atoms: C_1  and  C_2
REMARK    2  A    between atoms: C_2  and  C_3
REMARK    3  A    between atoms: C_3  and  C_4
REMARK    4  A    between atoms: C_4  and  O_5
REMARK    5  A    between atoms: O_5  and  C_6
REMARK    6  A    between atoms: C_6  and  C_8
REMARK    7  A    between atoms: C_9  and  N_30
REMARK    8  A    between atoms: C_26  and  C_28
REMARK    9  A    between atoms: C_26  and  C_29
REMARK                            x       y       z     vdW  Elec       q    Type
REMARK                         _______ _______ _______ _____ _____    ______ ____
ROOT
ATOM      1  C   UNL     1      -1.213   3.535  -0.388  0.00  0.00    +0.117 C 
ATOM      2  C   UNL     1       0.025   4.088  -0.498  0.00  0.00    +0.195 C 
ATOM      3  O   UNL     1       1.122   3.421  -0.111  0.00  0.00    -0.446 OA
ATOM      4  C   UNL     1       1.098   2.078  -0.016  0.00  0.00    +0.116 C 
ATOM      5  C   UNL     1      -0.060   1.407   0.126  0.00  0.00    +0.057 C 
ATOM      6  C   UNL     1      -1.371   2.149   0.163  0.00  0.00    +0.141 C 
ATOM      7  C   UNL     1      -1.917   2.188   1.556  0.00  0.00    -0.002 A 
ATOM      8  C   UNL     1      -1.419   2.740   2.716  0.00  0.00    +0.007 A 
ATOM      9  C   UNL     1      -2.190   2.597   3.865  0.00  0.00    +0.000 A 
ATOM     10  C   UNL     1      -3.398   1.932   3.840  0.00  0.00    +0.002 A 
ATOM     11  C   UNL     1      -3.906   1.374   2.677  0.00  0.00    +0.023 A 
ATOM     12  C   UNL     1      -3.142   1.511   1.517  0.00  0.00    +0.038 A 
ATOM     13  N   UNL     1      -3.401   1.060   0.235  0.00  0.00    -0.284 N 
ATOM     14  C   UNL     1      -2.415   1.388  -0.626  0.00  0.00    +0.237 C 
ATOM     15  O   UNL     1      -2.374   1.124  -1.810  0.00  0.00    -0.274 OA
ATOM     16  C   UNL     1      -0.084   0.003   0.238  0.00  0.00    +0.165 C 
ATOM     17  O   UNL     1      -1.151  -0.569   0.343  0.00  0.00    -0.292 OA
ATOM     18  C   UNL     1       1.188  -0.801   0.231  0.00  0.00    +0.086 C 
ATOM     19  C   UNL     1       2.326   0.068   0.776  0.00  0.00    -0.021 C 
ATOM     20  C   UNL     1       2.414   1.339  -0.071  0.00  0.00    +0.081 C 
ATOM     21  C   UNL     1       2.037   0.439   2.232  0.00  0.00    +0.012 C 
ATOM     22  C   UNL     1       3.646  -0.701   0.690  0.00  0.00    +0.012 C 
ATOM     23  H   UNL     1      -4.197   0.565  -0.015  0.00  0.00    +0.155 HD
ENDROOT
BRANCH   2  24
ATOM     24  N   UNL     1       0.153   5.349  -1.014  0.00  0.00    -0.329 N 
ATOM     25  H   UNL     1       1.020   5.784  -1.022  0.00  0.00    +0.145 HD
ATOM     26  H   UNL     1      -0.623   5.808  -1.371  0.00  0.00    +0.145 HD
ENDBRANCH   2  24
BRANCH   1  27
ATOM     27  C   UNL     1      -2.343   4.260  -0.794  0.00  0.00    +0.342 C 
ATOM     28  O   UNL     1      -3.044   4.812   0.035  0.00  0.00    -0.245 OA
BRANCH  27  29
ATOM     29  O   UNL     1      -2.655   4.346  -2.106  0.00  0.00    -0.461 OA
BRANCH  29  30
ATOM     30  C   UNL     1      -3.819   5.100  -2.448  0.00  0.00    +0.232 C 
BRANCH  30  31
ATOM     31  C   UNL     1      -4.009   5.084  -3.966  0.00  0.00    +0.041 C 
BRANCH  31  33
ATOM     32  C   UNL     1      -5.446   5.876  -5.851  0.00  0.00    +0.004 C 
ATOM     33  C   UNL     1      -5.256   5.891  -4.333  0.00  0.00    -0.000 C 
ENDBRANCH  31  33
ENDBRANCH  30  31
ENDBRANCH  29  30
ENDBRANCH  27  29
ENDBRANCH   1  27
TORSDOF 6
