REMARK  Name = ZINC08015735
REMARK  10 active torsions:
REMARK  status: ('A' for Active; 'I' for Inactive)
REMARK    1  A    between atoms: C_1  and  C_2
REMARK    2  A    between atoms: C_5  and  N_9
REMARK    3  A    between atoms: C_6  and  C_8
REMARK    4  A    between atoms: C_10  and  C_12
REMARK    5  A    between atoms: C_12  and  N_13
REMARK    6  A    between atoms: C_16  and  O_34
REMARK    7  A    between atoms: C_23  and  C_25
REMARK    8  A    between atoms: C_28  and  O_33
REMARK    9  A    between atoms: C_29  and  O_31
REMARK   10  A    between atoms: O_31  and  C_32
REMARK                            x       y       z     vdW  Elec       q    Type
REMARK                         _______ _______ _______ _____ _____    ______ ____
ROOT
ATOM      1  N   UNL     1      -0.189  -6.832  -2.497  0.00  0.00    +0.390 N 
ATOM      2  C   UNL     1      -1.372  -6.188  -3.079  0.00  0.00    -0.075 C 
ATOM      3  C   UNL     1      -1.484  -6.551  -4.562  0.00  0.00    +0.016 C 
ATOM      4  C   UNL     1      -1.603  -8.070  -4.696  0.00  0.00    +0.066 C 
ATOM      5  C   UNL     1      -1.645  -8.466  -6.173  0.00  0.00    +0.035 C 
ATOM      6  C   UNL     1      -1.770  -9.988  -6.282  0.00  0.00    +0.003 C 
ATOM      7  C   UNL     1      -0.572 -10.654  -5.604  0.00  0.00    +0.000 C 
ATOM      8  C   UNL     1      -0.521 -10.245  -4.129  0.00  0.00    +0.005 C 
ATOM      9  C   UNL     1      -0.389  -8.725  -4.033  0.00  0.00    +0.011 C 
ATOM     10  C   UNL     1      -0.323  -8.293  -2.568  0.00  0.00    -0.031 C 
ATOM     11  H   UNL     1       0.632  -6.546  -3.009  0.00  0.00    -0.080 HD
ENDROOT
BRANCH  10  12
ATOM     12  C   UNL     1      -1.585  -8.717  -1.862  0.00  0.00    -0.057 A 
ATOM     13  C   UNL     1      -2.389  -7.769  -1.257  0.00  0.00    +0.006 A 
ATOM     14  C   UNL     1      -3.548  -8.153  -0.609  0.00  0.00    +0.049 A 
ATOM     15  C   UNL     1      -3.906  -9.490  -0.564  0.00  0.00    +0.158 A 
ATOM     16  C   UNL     1      -3.097 -10.445  -1.173  0.00  0.00    +0.161 A 
ATOM     17  C   UNL     1      -1.940 -10.053  -1.825  0.00  0.00    +0.051 A 
BRANCH  16  18
ATOM     18  O   UNL     1      -3.444 -11.759  -1.131  0.00  0.00    -0.491 OA
ATOM     19  C   UNL     1      -2.566 -12.683  -1.778  0.00  0.00    +0.277 C 
ENDBRANCH  16  18
BRANCH  15  20
ATOM     20  O   UNL     1      -5.045  -9.870   0.075  0.00  0.00    -0.503 OA
ATOM     21  H   UNL     1      -5.828  -9.884  -0.493  0.00  0.00    +0.292 HD
ENDBRANCH  15  20
ENDBRANCH  10  12
BRANCH   4  22
ATOM     22  O   UNL     1      -2.797  -8.514  -4.049  0.00  0.00    -0.388 OA
ATOM     23  H   UNL     1      -3.608  -8.131  -4.412  0.00  0.00    +0.210 HD
ENDBRANCH   4  22
BRANCH   1  24
ATOM     24  C   UNL     1      -0.054  -6.423  -1.092  0.00  0.00    +0.020 C 
BRANCH  24  26
ATOM     25  N   UNL     1       0.314  -4.331   0.175  0.00  0.00    -0.287 N 
ATOM     26  C   UNL     1       0.163  -4.934  -1.021  0.00  0.00    +0.201 C 
ATOM     27  O   UNL     1       0.200  -4.277  -2.040  0.00  0.00    -0.278 OA
ATOM     28  H   UNL     1       0.350  -4.863   0.985  0.00  0.00    +0.155 HD
BRANCH  25  33
ATOM     29  C   UNL     1       0.741   1.318   0.470  0.00  0.00    +0.044 C 
ATOM     30  C   UNL     1       0.628  -0.182   0.392  0.00  0.00    -0.050 A 
ATOM     31  C   UNL     1       1.169  -0.860  -0.685  0.00  0.00    +0.005 A 
ATOM     32  C   UNL     1       1.067  -2.235  -0.760  0.00  0.00    +0.024 A 
ATOM     33  C   UNL     1       0.420  -2.938   0.248  0.00  0.00    +0.036 A 
ATOM     34  C   UNL     1      -0.122  -2.255   1.328  0.00  0.00    -0.029 A 
ATOM     35  C   UNL     1      -0.013  -0.879   1.400  0.00  0.00    +0.008 A 
ATOM     36  C   UNL     1      -0.826  -3.013   2.424  0.00  0.00    +0.045 C 
ENDBRANCH  25  33
ENDBRANCH  24  26
ENDBRANCH   1  24
TORSDOF 7
