REMARK  Name = ZINC36313996
REMARK  15 active torsions:
REMARK  status: ('A' for Active; 'I' for Inactive)
REMARK    1  A    between atoms: C_1  and  C_2
REMARK    2  A    between atoms: C_2  and  C_3
REMARK    3  A    between atoms: C_3  and  C_4
REMARK    4  A    between atoms: C_4  and  C_5
REMARK    5  A    between atoms: C_5  and  C_7
REMARK    6  A    between atoms: C_5  and  O_36
REMARK    7  A    between atoms: C_7  and  N_8
REMARK    8  A    between atoms: N_8  and  C_9
REMARK    9  A    between atoms: N_8  and  C_29
REMARK   10  A    between atoms: C_9  and  C_10
REMARK   11  A    between atoms: C_11  and  C_28
REMARK   12  A    between atoms: N_13  and  C_22
REMARK   13  A    between atoms: C_14  and  O_15
REMARK   14  A    between atoms: O_15  and  C_16
REMARK   15  A    between atoms: C_29  and  C_30
REMARK                            x       y       z     vdW  Elec       q    Type
REMARK                         _______ _______ _______ _____ _____    ______ ____
ROOT
ATOM      1  C   UNL     1       3.715  -6.324   1.927  0.00  0.00    +0.021 A 
ATOM      2  C   UNL     1       3.296  -6.163   0.603  0.00  0.00    +0.065 A 
ATOM      3  N   UNL     1       4.353  -6.152  -0.168  0.00  0.00    -0.168 NA
ATOM      4  N   UNL     1       5.489  -6.305   0.638  0.00  0.00    -0.200 N 
ATOM      5  C   UNL     1       5.072  -6.404   1.929  0.00  0.00    +0.225 A 
ATOM      6  C   UNL     1       1.868  -6.026   0.141  0.00  0.00    +0.068 C 
ENDROOT
BRANCH   4   7
ATOM      7  C   UNL     1       6.818  -6.344   0.194  0.00  0.00    +0.069 A 
ATOM      8  C   UNL     1       7.821  -5.750   0.947  0.00  0.00    +0.028 A 
ATOM      9  C   UNL     1       9.129  -5.790   0.507  0.00  0.00    +0.002 A 
ATOM     10  C   UNL     1       9.441  -6.421  -0.683  0.00  0.00    +0.000 A 
ATOM     11  C   UNL     1       8.444  -7.014  -1.436  0.00  0.00    +0.002 A 
ATOM     12  C   UNL     1       7.134  -6.982  -0.998  0.00  0.00    +0.028 A 
ENDBRANCH   4   7
BRANCH   1  13
ATOM     13  C   UNL     1       2.821  -6.389   3.138  0.00  0.00    -0.036 C 
BRANCH  13  14
ATOM     14  N   UNL     1       2.685  -5.047   3.720  0.00  0.00    +0.386 N 
ATOM     15  H   UNL     1       3.601  -4.652   3.874  0.00  0.00    -0.081 HD
BRANCH  14  16
ATOM     16  C   UNL     1       1.931  -4.188   2.797  0.00  0.00    -0.047 C 
BRANCH  16  17
ATOM     17  C   UNL     1       1.940  -2.749   3.317  0.00  0.00    +0.098 C 
BRANCH  17  18
ATOM     18  O   UNL     1       1.189  -2.677   4.531  0.00  0.00    -0.394 OA
ATOM     19  H   UNL     1       0.264  -2.941   4.438  0.00  0.00    +0.210 HD
ENDBRANCH  17  18
BRANCH  17  20
ATOM     20  C   UNL     1       1.310  -1.825   2.273  0.00  0.00    +0.029 C 
BRANCH  20  21
ATOM     21  C   UNL     1       1.431  -0.372   2.738  0.00  0.00    +0.002 C 
BRANCH  21  23
ATOM     22  C   UNL     1       0.922   2.004   2.159  0.00  0.00    +0.004 C 
ATOM     23  C   UNL     1       0.801   0.552   1.694  0.00  0.00    -0.003 C 
ENDBRANCH  21  23
ENDBRANCH  20  21
ENDBRANCH  17  20
ENDBRANCH  16  17
ENDBRANCH  14  16
BRANCH  14  24
ATOM     24  C   UNL     1       1.969  -5.137   4.999  0.00  0.00    -0.046 C 
BRANCH  24  25
ATOM     25  C   UNL     1       0.528  -5.587   4.747  0.00  0.00    +0.102 C 
ATOM     26  C   UNL     1      -0.269  -5.556   6.068  0.00  0.00    +0.032 C 
ATOM     27  C   UNL     1      -1.146  -6.833   5.954  0.00  0.00    +0.030 C 
ATOM     28  C   UNL     1      -0.187  -7.780   5.189  0.00  0.00    +0.160 C 
ATOM     29  O   UNL     1       0.517  -6.935   4.263  0.00  0.00    -0.378 OA
ENDBRANCH  24  25
ENDBRANCH  14  24
ENDBRANCH  13  14
ENDBRANCH   1  13
BRANCH   5  30
ATOM     30  O   UNL     1       5.866  -6.559   3.019  0.00  0.00    -0.438 OA
BRANCH  30  31
ATOM     31  C   UNL     1       6.257  -7.817   3.350  0.00  0.00    +0.130 A 
ATOM     32  C   UNL     1       5.938  -8.885   2.522  0.00  0.00    +0.046 A 
ATOM     33  C   UNL     1       6.338 -10.163   2.861  0.00  0.00    +0.004 A 
ATOM     34  C   UNL     1       7.054 -10.380   4.023  0.00  0.00    +0.000 A 
ATOM     35  C   UNL     1       7.373  -9.318   4.849  0.00  0.00    +0.004 A 
ATOM     36  C   UNL     1       6.982  -8.037   4.513  0.00  0.00    +0.046 A 
ENDBRANCH  30  31
ENDBRANCH   5  30
TORSDOF 13
