REMARK  Name = ZINC35776075
REMARK  11 active torsions:
REMARK  status: ('A' for Active; 'I' for Inactive)
REMARK    1  A    between atoms: C_1  and  N_2
REMARK    2  A    between atoms: N_2  and  C_3
REMARK    3  A    between atoms: N_2  and  C_4
REMARK    4  A    between atoms: C_4  and  C_5
REMARK    5  A    between atoms: C_5  and  N_6
REMARK    6  A    between atoms: C_7  and  C_9
REMARK    7  A    between atoms: C_9  and  C_11
REMARK    8  A    between atoms: C_9  and  N_16
REMARK    9  A    between atoms: C_22  and  C_24
REMARK   10  A    between atoms: C_24  and  O_25
REMARK   11  A    between atoms: O_25  and  C_26
REMARK                            x       y       z     vdW  Elec       q    Type
REMARK                         _______ _______ _______ _____ _____    ______ ____
ROOT
ATOM      1  N   UNL     1      -6.034  -0.668  -3.741  0.00  0.00    -0.288 NA
ATOM      2  C   UNL     1      -7.223  -1.431  -4.145  0.00  0.00    +0.104 C 
ATOM      3  C   UNL     1      -7.493  -1.198  -5.636  0.00  0.00    +0.123 C 
ATOM      4  N   UNL     1      -7.573   0.251  -5.875  0.00  0.00    -0.296 N 
ATOM      5  C   UNL     1      -6.480   1.100  -5.376  0.00  0.00    +0.123 C 
ATOM      6  C   UNL     1      -6.250   0.776  -3.896  0.00  0.00    +0.104 C 
ATOM      7  C   UNL     1      -8.619   0.787  -6.535  0.00  0.00    +0.253 C 
ATOM      8  O   UNL     1      -9.511   0.072  -6.940  0.00  0.00    -0.272 OA
ENDROOT
BRANCH   1   9
ATOM      9  C   UNL     1      -5.640  -0.998  -2.365  0.00  0.00    +0.146 C 
BRANCH   9  10
ATOM     10  C   UNL     1      -5.032  -2.401  -2.331  0.00  0.00    +0.015 C 
ATOM     11  C   UNL     1      -6.120  -3.456  -2.621  0.00  0.00    +0.005 C 
ATOM     12  C   UNL     1      -5.754  -4.643  -1.696  0.00  0.00    +0.000 C 
ATOM     13  C   UNL     1      -5.265  -3.935  -0.408  0.00  0.00    +0.000 C 
ATOM     14  C   UNL     1      -4.489  -2.705  -0.924  0.00  0.00    +0.005 C 
ENDBRANCH   9  10
BRANCH   9  16
ATOM     15  N   UNL     1      -4.799   0.625  -0.698  0.00  0.00    -0.316 N 
ATOM     16  C   UNL     1      -4.623   0.003  -1.881  0.00  0.00    +0.230 C 
ATOM     17  O   UNL     1      -3.646   0.249  -2.556  0.00  0.00    -0.274 OA
ATOM     18  H   UNL     1      -5.609   0.474  -0.187  0.00  0.00    +0.149 HD
BRANCH  15  19
ATOM     19  C   UNL     1      -3.766   1.528  -0.184  0.00  0.00    +0.085 C 
BRANCH  19  20
ATOM     20  C   UNL     1      -4.211   2.097   1.165  0.00  0.00    -0.061 C 
BRANCH  20  22
ATOM     21  C   UNL     1      -3.053   4.164   0.789  0.00  0.00    -0.097 C 
ATOM     22  N   UNL     1      -3.175   3.002   1.680  0.00  0.00    +0.377 N 
ATOM     23  C   UNL     1      -3.547   3.455   3.027  0.00  0.00    -0.097 C 
ATOM     24  H   UNL     1      -2.293   2.515   1.720  0.00  0.00    -0.083 HD
ENDBRANCH  20  22
ENDBRANCH  19  20
ENDBRANCH  15  19
ENDBRANCH   9  16
ENDBRANCH   1   9
BRANCH   7  25
ATOM     25  C   UNL     1      -8.680   2.274  -6.770  0.00  0.00    +0.324 C 
BRANCH  25  26
ATOM     26  O   UNL     1      -9.875   2.595  -7.484  0.00  0.00    -0.483 OA
BRANCH  26  27
ATOM     27  C   UNL     1     -10.085   3.905  -7.779  0.00  0.00    +0.121 A 
ATOM     28  C   UNL     1      -9.157   4.861  -7.393  0.00  0.00    +0.047 A 
ATOM     29  C   UNL     1      -9.372   6.193  -7.693  0.00  0.00    +0.023 A 
ATOM     30  C   UNL     1     -10.512   6.573  -8.378  0.00  0.00    +0.041 A 
ATOM     31  C   UNL     1     -11.440   5.621  -8.763  0.00  0.00    +0.023 A 
ATOM     32  C   UNL     1     -11.225   4.288  -8.471  0.00  0.00    +0.047 A 
ATOM     33 CL   UNL     1     -10.781   8.246  -8.753  0.00  0.00    -0.084 Cl
ENDBRANCH  26  27
ENDBRANCH  25  26
ENDBRANCH   7  25
TORSDOF 9
