REMARK  Name = ZINC36309334
REMARK  6 active torsions:
REMARK  status: ('A' for Active; 'I' for Inactive)
REMARK    1  A    between atoms: C_1  and  C_2
REMARK    2  A    between atoms: C_7  and  C_14
REMARK    3  A    between atoms: C_14  and  C_16
REMARK    4  A    between atoms: C_14  and  N_28
REMARK    5  A    between atoms: N_20  and  C_21
REMARK    6  A    between atoms: C_21  and  C_22
REMARK                            x       y       z     vdW  Elec       q    Type
REMARK                         _______ _______ _______ _____ _____    ______ ____
ROOT
ATOM      1  C   UNL     1       0.096  -6.383   1.200  0.00  0.00    +0.039 C 
ENDROOT
BRANCH   1   8
ATOM      2  C   UNL     1      -0.018   1.503   0.010  0.00  0.00    +0.044 C 
ATOM      3  C   UNL     1       0.002  -0.004   0.002  0.00  0.00    -0.048 A 
ATOM      4  C   UNL     1       0.006  -0.684  -1.208  0.00  0.00    +0.004 A 
ATOM      5  C   UNL     1       0.024  -2.050  -1.238  0.00  0.00    +0.010 A 
ATOM      6  C   UNL     1       0.040  -2.769  -0.039  0.00  0.00    -0.001 A 
ATOM      7  C   UNL     1       0.060  -4.233  -0.034  0.00  0.00    +0.017 A 
ATOM      8  C   UNL     1       0.075  -4.877   1.159  0.00  0.00    +0.011 A 
ATOM      9  C   UNL     1       0.070  -4.142   2.364  0.00  0.00    +0.251 A 
ATOM     10  O   UNL     1       0.084  -4.740   3.426  0.00  0.00    -0.268 OA
ATOM     11  N   UNL     1       0.052  -2.797   2.370  0.00  0.00    -0.322 N 
ATOM     12  H   UNL     1       0.050  -2.323   3.216  0.00  0.00    +0.169 HD
ATOM     13  C   UNL     1       0.036  -2.083   1.190  0.00  0.00    +0.049 A 
ATOM     14  C   UNL     1       0.023  -0.692   1.196  0.00  0.00    +0.029 A 
ENDBRANCH   1   8
BRANCH   1  15
ATOM     15  N   UNL     1       1.240  -6.836   2.001  0.00  0.00    +0.390 N 
ATOM     16  C   UNL     1       1.254  -8.303   2.047  0.00  0.00    -0.077 C 
ATOM     17  C   UNL     1       2.397  -8.779   2.946  0.00  0.00    -0.018 C 
ATOM     18  C   UNL     1       3.728  -8.272   2.383  0.00  0.00    +0.003 C 
ATOM     19  C   UNL     1       3.674  -6.746   2.271  0.00  0.00    -0.044 C 
ATOM     20  C   UNL     1       2.484  -6.345   1.396  0.00  0.00    -0.071 C 
ATOM     21  C   UNL     1       3.511  -6.138   3.665  0.00  0.00    +0.005 C 
ATOM     22  C   UNL     1       3.457  -4.613   3.554  0.00  0.00    +0.000 C 
ATOM     23  C   UNL     1       4.754  -4.102   2.922  0.00  0.00    +0.000 C 
ATOM     24  C   UNL     1       4.916  -4.710   1.528  0.00  0.00    +0.000 C 
ATOM     25  C   UNL     1       4.969  -6.235   1.638  0.00  0.00    +0.005 C 
ATOM     26  H   UNL     1       1.158  -6.473   2.939  0.00  0.00    -0.080 HD
ENDBRANCH   1  15
BRANCH   1  27
ATOM     27  C   UNL     1      -1.182  -6.887   1.820  0.00  0.00    +0.143 A 
ATOM     28  N   UNL     1      -1.500  -6.857   3.091  0.00  0.00    -0.115 NA
ATOM     29  N   UNL     1      -2.671  -7.379   3.221  0.00  0.00    -0.023 NA
ATOM     30  N   UNL     1      -3.108  -7.741   2.066  0.00  0.00    -0.044 NA
ATOM     31  N   UNL     1      -2.221  -7.450   1.175  0.00  0.00    -0.228 N 
BRANCH  31  32
ATOM     32  C   UNL     1      -2.324  -7.691  -0.266  0.00  0.00    +0.178 C 
BRANCH  32  33
ATOM     33  C   UNL     1      -1.762  -9.076  -0.594  0.00  0.00    +0.140 C 
ATOM     34  C   UNL     1      -1.944  -9.387  -2.100  0.00  0.00    +0.035 C 
ATOM     35  C   UNL     1      -0.808 -10.423  -2.326  0.00  0.00    +0.031 C 
ATOM     36  C   UNL     1       0.291  -9.918  -1.366  0.00  0.00    +0.160 C 
ATOM     37  O   UNL     1      -0.343  -9.104  -0.371  0.00  0.00    -0.375 OA
ENDBRANCH  32  33
ENDBRANCH  31  32
ENDBRANCH   1  27
TORSDOF 5
