REMARK  Name = ZINC07895000
REMARK  8 active torsions:
REMARK  status: ('A' for Active; 'I' for Inactive)
REMARK    1  A    between atoms: C_1  and  C_2
REMARK    2  A    between atoms: C_2  and  O_3
REMARK    3  A    between atoms: O_3  and  C_4
REMARK    4  A    between atoms: C_6  and  C_15
REMARK    5  A    between atoms: C_9  and  O_10
REMARK    6  A    between atoms: O_10  and  C_11
REMARK    7  A    between atoms: C_11  and  C_12
REMARK    8  A    between atoms: N_16  and  N_17
REMARK                            x       y       z     vdW  Elec       q    Type
REMARK                         _______ _______ _______ _____ _____    ______ ____
ROOT
ATOM      1  C   UNL     1       0.807   1.991   2.990  0.00  0.00    +0.164 A 
ATOM      2  C   UNL     1       1.351   1.622   4.207  0.00  0.00    +0.059 A 
ATOM      3  C   UNL     1       0.939   0.437   4.822  0.00  0.00    -0.001 A 
ATOM      4  C   UNL     1      -0.020  -0.370   4.205  0.00  0.00    +0.028 A 
ATOM      5  C   UNL     1      -0.562   0.007   2.993  0.00  0.00    +0.064 A 
ATOM      6  C   UNL     1      -0.149   1.182   2.380  0.00  0.00    +0.176 A 
ATOM      7 BR   UNL     1      -1.866  -1.082   2.163  0.00  0.00    -0.046 Br
ENDROOT
BRANCH   3   8
ATOM      8  C   UNL     1       1.515   0.039   6.120  0.00  0.00    +0.138 C 
ATOM      9  N   UNL     1       1.131  -1.062   6.690  0.00  0.00    -0.186 NA
BRANCH   9  10
ATOM     10  N   UNL     1       1.678  -1.440   7.923  0.00  0.00    -0.191 N 
ATOM     11  C   UNL     1       1.280  -2.583   8.515  0.00  0.00    +0.317 C 
ATOM     12  O   UNL     1       1.755  -2.911   9.585  0.00  0.00    -0.251 OA
ATOM     13  N   UNL     1       0.355  -3.363   7.920  0.00  0.00    -0.312 N 
ATOM     14  H   UNL     1       2.344  -0.879   8.350  0.00  0.00    +0.179 HD
ATOM     15  H   UNL     1      -0.024  -3.101   7.067  0.00  0.00    +0.147 HD
ATOM     16  H   UNL     1       0.068  -4.186   8.346  0.00  0.00    +0.147 HD
ENDBRANCH   9  10
ENDBRANCH   3   8
BRANCH   1  17
ATOM     17  O   UNL     1       1.206   3.144   2.389  0.00  0.00    -0.489 OA
BRANCH  17  19
ATOM     18  C   UNL     1       2.509   5.174   2.249  0.00  0.00    +0.048 C 
ATOM     19  C   UNL     1       2.189   3.924   3.071  0.00  0.00    +0.226 C 
ENDBRANCH  17  19
ENDBRANCH   1  17
BRANCH   6  20
ATOM     20  O   UNL     1      -0.682   1.547   1.184  0.00  0.00    -0.483 OA
BRANCH  20  21
ATOM     21  C   UNL     1      -0.013   1.086   0.008  0.00  0.00    +0.256 C 
BRANCH  21  22
ATOM     22  C   UNL     1      -0.742   1.585  -1.213  0.00  0.00    +0.006 C 
ATOM     23  C   UNL     1      -0.069   2.095  -2.215  0.00  0.00    +0.007 C 
ENDBRANCH  21  22
ENDBRANCH  20  21
ENDBRANCH   6  20
TORSDOF 7
