REMARK  Name = ZINC20738807
REMARK  5 active torsions:
REMARK  status: ('A' for Active; 'I' for Inactive)
REMARK    1  A    between atoms: C_1  and  N_2
REMARK    2  A    between atoms: C_11  and  C_17
REMARK    3  A    between atoms: C_19  and  O_25
REMARK    4  A    between atoms: C_20  and  O_24
REMARK    5  A    between atoms: O_25  and  C_26
REMARK                            x       y       z     vdW  Elec       q    Type
REMARK                         _______ _______ _______ _____ _____    ______ ____
ROOT
ATOM      1  C   UNL     1       0.002  -0.004   0.002  0.00  0.00    +0.155 C 
ATOM      2  N   UNL     1      -0.018   1.461   0.010  0.00  0.00    -0.284 N 
ATOM      3  C   UNL     1       1.164   2.161   0.003  0.00  0.00    +0.120 A 
ATOM      4  C   UNL     1       1.122   3.526   0.010  0.00  0.00    +0.080 A 
ATOM      5  C   UNL     1      -0.110   4.188   0.024  0.00  0.00    +0.261 A 
ATOM      6  O   UNL     1      -0.157   5.406   0.030  0.00  0.00    -0.267 OA
ATOM      7  N   UNL     1      -1.247   3.460   0.031  0.00  0.00    -0.275 N 
ATOM      8  H   UNL     1      -2.224   3.965   0.046  0.00  0.00    +0.173 HD
ATOM      9  C   UNL     1      -1.194   2.115   0.019  0.00  0.00    +0.330 A 
ATOM     10  O   UNL     1      -2.230   1.478   0.021  0.00  0.00    -0.246 OA
ATOM     11  C   UNL     1       2.428   4.285   0.001  0.00  0.00    +0.144 C 
ATOM     12  N   UNL     1       3.661   3.477  -0.014  0.00  0.00    -0.288 N 
ATOM     13  C   UNL     1       3.551   2.135  -0.020  0.00  0.00    +0.306 C 
ATOM     14  O   UNL     1       4.566   1.467  -0.033  0.00  0.00    -0.252 OA
ATOM     15  N   UNL     1       2.369   1.505  -0.013  0.00  0.00    -0.255 N 
ATOM     16  H   UNL     1       4.643   3.973  -0.021  0.00  0.00    +0.151 HD
ATOM     17  H   UNL     1       2.397   0.406  -0.019  0.00  0.00    +0.158 HD
ENDROOT
BRANCH  11  18
ATOM     18  C   UNL     1       2.440   5.178  -1.212  0.00  0.00    -0.018 A 
ATOM     19  C   UNL     1       2.130   6.520  -1.084  0.00  0.00    +0.055 A 
ATOM     20  C   UNL     1       2.146   7.344  -2.198  0.00  0.00    +0.163 A 
ATOM     21  C   UNL     1       2.464   6.816  -3.446  0.00  0.00    +0.173 A 
ATOM     22  C   UNL     1       2.768   5.470  -3.568  0.00  0.00    +0.063 A 
ATOM     23  C   UNL     1       2.755   4.653  -2.451  0.00  0.00    +0.025 A 
ATOM     24 BR   UNL     1       3.200   4.748  -5.262  0.00  0.00    -0.046 Br
BRANCH  21  25
ATOM     25  O   UNL     1       2.476   7.620  -4.543  0.00  0.00    -0.503 OA
ATOM     26  H   UNL     1       2.727   7.202  -5.529  0.00  0.00    +0.292 HD
ENDBRANCH  21  25
BRANCH  20  27
ATOM     27  O   UNL     1       1.847   8.665  -2.072  0.00  0.00    -0.491 OA
ATOM     28  C   UNL     1       1.531   9.136  -0.761  0.00  0.00    +0.277 C 
ENDBRANCH  20  27
ENDBRANCH  11  18
TORSDOF 3
