REMARK  Name = ZINC39267250
REMARK  8 active torsions:
REMARK  status: ('A' for Active; 'I' for Inactive)
REMARK    1  A    between atoms: C_1  and  O_2
REMARK    2  A    between atoms: O_2  and  C_3
REMARK    3  A    between atoms: C_3  and  C_5
REMARK    4  A    between atoms: C_8  and  O_32
REMARK    5  A    between atoms: C_12  and  C_14
REMARK    6  A    between atoms: C_24  and  C_26
REMARK    7  A    between atoms: O_32  and  C_33
REMARK    8  A    between atoms: C_33  and  C_34
REMARK                            x       y       z     vdW  Elec       q    Type
REMARK                         _______ _______ _______ _____ _____    ______ ____
ROOT
ATOM      1  C   UNL     1       0.671  -2.075  -1.125  0.00  0.00    +0.187 C 
ATOM      2  C   UNL     1       1.822  -2.593  -0.236  0.00  0.00    +0.067 C 
ATOM      3  C   UNL     1       2.396  -3.773  -1.063  0.00  0.00    +0.138 C 
ATOM      4  C   UNL     1       2.229  -3.249  -2.511  0.00  0.00    +0.140 C 
ATOM      5  N   UNL     1       0.949  -2.511  -2.501  0.00  0.00    -0.281 N 
ATOM      6  C   UNL     1       0.165  -2.277  -3.572  0.00  0.00    +0.249 C 
ATOM      7  O   UNL     1      -0.921  -1.749  -3.427  0.00  0.00    -0.270 OA
ENDROOT
BRANCH   6   8
ATOM      8  C   UNL     1       0.625  -2.660  -4.921  0.00  0.00    +0.055 A 
ATOM      9  C   UNL     1      -0.301  -2.901  -5.947  0.00  0.00    +0.018 A 
ATOM     10  C   UNL     1       0.170  -3.255  -7.182  0.00  0.00    +0.044 A 
ATOM     11  C   UNL     1       1.545  -3.363  -7.384  0.00  0.00    +0.122 A 
ATOM     12  N   UNL     1       2.399  -3.130  -6.397  0.00  0.00    -0.240 NA
ATOM     13  C   UNL     1       1.988  -2.782  -5.196  0.00  0.00    +0.126 A 
ATOM     14  N   UNL     1       2.026  -3.720  -8.633  0.00  0.00    -0.308 N 
ATOM     15  C   UNL     1       3.438  -3.981  -8.967  0.00  0.00    +0.107 C 
ATOM     16  C   UNL     1       3.538  -3.721 -10.491  0.00  0.00    +0.021 C 
ATOM     17  C   UNL     1       2.176  -4.270 -10.992  0.00  0.00    +0.029 C 
ATOM     18  C   UNL     1       1.212  -3.908  -9.842  0.00  0.00    +0.105 C 
BRANCH  18  19
ATOM     19  C   UNL     1       0.224  -5.025  -9.627  0.00  0.00    -0.024 A 
ATOM     20  C   UNL     1       0.589  -6.173  -8.941  0.00  0.00    +0.023 A 
ATOM     21  C   UNL     1      -0.344  -7.177  -8.763  0.00  0.00    +0.083 A 
ATOM     22  N   UNL     1      -1.568  -7.052  -9.237  0.00  0.00    -0.367 N 
ATOM     23  C   UNL     1      -1.950  -5.975  -9.894  0.00  0.00    +0.083 A 
ATOM     24  C   UNL     1      -1.074  -4.927 -10.105  0.00  0.00    +0.023 A 
ATOM     25  H   UNL     1      -2.203  -7.772  -9.099  0.00  0.00    +0.165 HD
ENDBRANCH  18  19
ENDBRANCH   6   8
BRANCH   1  26
ATOM     26  C   UNL     1       0.615  -0.570  -1.065  0.00  0.00    +0.328 C 
ATOM     27  O   UNL     1       1.101   0.088  -1.955  0.00  0.00    -0.249 OA
BRANCH  26  29
ATOM     28  C   UNL     1       0.009   1.468  -0.034  0.00  0.00    +0.280 C 
ATOM     29  O   UNL     1       0.026   0.039  -0.025  0.00  0.00    -0.467 OA
ENDBRANCH  26  29
ENDBRANCH   1  26
BRANCH   3  30
ATOM     30  O   UNL     1       1.631  -4.963  -0.857  0.00  0.00    -0.370 OA
BRANCH  30  31
ATOM     31  C   UNL     1       2.387  -6.169  -0.981  0.00  0.00    +0.195 C 
BRANCH  31  32
ATOM     32  C   UNL     1       1.486  -7.354  -0.746  0.00  0.00    -0.022 A 
ATOM     33  C   UNL     1       1.322  -7.854   0.532  0.00  0.00    +0.006 A 
ATOM     34  C   UNL     1       0.495  -8.941   0.748  0.00  0.00    +0.000 A 
ATOM     35  C   UNL     1      -0.169  -9.526  -0.314  0.00  0.00    +0.000 A 
ATOM     36  C   UNL     1      -0.006  -9.025  -1.591  0.00  0.00    +0.000 A 
ATOM     37  C   UNL     1       0.818  -7.936  -1.807  0.00  0.00    +0.006 A 
ENDBRANCH  31  32
ENDBRANCH  30  31
ENDBRANCH   3  30
TORSDOF 7
