REMARK  Name = ZINC37205724
REMARK  7 active torsions:
REMARK  status: ('A' for Active; 'I' for Inactive)
REMARK    1  A    between atoms: C_1  and  C_2
REMARK    2  A    between atoms: C_2  and  C_4
REMARK    3  A    between atoms: C_2  and  S_13
REMARK    4  A    between atoms: N_6  and  C_7
REMARK    5  A    between atoms: C_7  and  C_8
REMARK    6  A    between atoms: S_13  and  C_14
REMARK    7  A    between atoms: C_19  and  N_20
REMARK                            x       y       z     vdW  Elec       q    Type
REMARK                         _______ _______ _______ _____ _____    ______ ____
ROOT
ATOM      1  C   UNL     1      -0.058   1.522   0.035  0.00  0.00    +0.029 C 
ATOM      2  C   UNL     1      -0.009  -0.006   0.009  0.00  0.00    +0.134 C 
ENDROOT
BRANCH   2   3
ATOM      3  C   UNL     1      -1.407  -0.556   0.138  0.00  0.00    +0.226 C 
ATOM      4  O   UNL     1      -1.834  -0.877   1.226  0.00  0.00    -0.275 OA
ATOM      5  N   UNL     1      -2.181  -0.691  -0.957  0.00  0.00    -0.307 N 
ATOM      6  H   UNL     1      -1.839  -0.434  -1.828  0.00  0.00    +0.149 HD
BRANCH   5   7
ATOM      7  C   UNL     1      -3.539  -1.224  -0.832  0.00  0.00    +0.178 C 
BRANCH   7   8
ATOM      8  C   UNL     1      -4.187  -1.273  -2.192  0.00  0.00    +0.122 A 
ATOM      9  C   UNL     1      -4.146  -2.311  -3.046  0.00  0.00    +0.046 A 
ATOM     10  C   UNL     1      -4.881  -1.927  -4.192  0.00  0.00    +0.041 A 
ATOM     11  C   UNL     1      -5.327  -0.678  -3.969  0.00  0.00    +0.195 A 
ATOM     12  O   UNL     1      -4.909  -0.289  -2.753  0.00  0.00    -0.466 OA
ENDBRANCH   7   8
ENDBRANCH   5   7
ENDBRANCH   2   3
BRANCH   2  13
ATOM     13  S   UNL     1       1.004  -0.603   1.390  0.00  0.00    -0.111 S 
BRANCH  13  14
ATOM     14  C   UNL     1       1.177  -2.329   1.079  0.00  0.00    +0.029 A 
ATOM     15  C   UNL     1       0.685  -2.875  -0.098  0.00  0.00    +0.017 A 
ATOM     16  C   UNL     1       0.822  -4.229  -0.341  0.00  0.00    +0.016 A 
ATOM     17  C   UNL     1       1.448  -5.043   0.587  0.00  0.00    +0.020 A 
ATOM     18  C   UNL     1       1.941  -4.506   1.762  0.00  0.00    +0.039 A 
ATOM     19  C   UNL     1       1.813  -3.148   2.011  0.00  0.00    +0.039 A 
ATOM     20 BR   UNL     1       1.629  -6.894   0.247  0.00  0.00    -0.050 Br
BRANCH  19  21
ATOM     21  N   UNL     1       2.316  -2.601   3.198  0.00  0.00    -0.357 N 
ATOM     22  H   UNL     1       2.223  -1.651   3.373  0.00  0.00    +0.142 HD
ATOM     23  H   UNL     1       2.758  -3.172   3.846  0.00  0.00    +0.142 HD
ENDBRANCH  19  21
ENDBRANCH  13  14
ENDBRANCH   2  13
TORSDOF 6
