REMARK  Name = ZINC22507523
REMARK  8 active torsions:
REMARK  status: ('A' for Active; 'I' for Inactive)
REMARK    1  A    between atoms: C_1  and  C_2
REMARK    2  A    between atoms: C_4  and  C_34
REMARK    3  A    between atoms: C_6  and  C_29
REMARK    4  A    between atoms: C_10  and  C_11
REMARK    5  A    between atoms: N_13  and  N_14
REMARK    6  A    between atoms: C_15  and  C_17
REMARK    7  A    between atoms: C_18  and  C_28
REMARK    8  A    between atoms: C_20  and  C_22
REMARK                            x       y       z     vdW  Elec       q    Type
REMARK                         _______ _______ _______ _____ _____    ______ ____
ROOT
ATOM      1  C   UNL     1       1.171  -1.898   0.279  0.00  0.00    +0.267 C 
ATOM      2  O   UNL     1       0.119  -2.510   0.308  0.00  0.00    -0.268 OA
ATOM      3  N   UNL     1       1.170  -0.553   0.360  0.00  0.00    -0.230 N 
ATOM      4  H   UNL     1       2.121   0.000   0.334  0.00  0.00    +0.173 HD
ENDROOT
BRANCH   1  14
ATOM      5  C   UNL     1       1.468  -4.912   0.091  0.00  0.00    +0.046 C 
ATOM      6  C   UNL     1       2.643  -3.969   0.068  0.00  0.00    -0.020 A 
ATOM      7  C   UNL     1       3.946  -4.473  -0.049  0.00  0.00    +0.032 A 
ATOM      8  C   UNL     1       4.380  -5.820  -0.157  0.00  0.00    +0.051 A 
ATOM      9  N   UNL     1       5.662  -6.081  -0.253  0.00  0.00    -0.229 NA
ATOM     10  C   UNL     1       6.586  -5.120  -0.252  0.00  0.00    +0.197 A 
ATOM     11  N   UNL     1       6.245  -3.838  -0.154  0.00  0.00    -0.217 NA
ATOM     12  C   UNL     1       4.981  -3.498  -0.055  0.00  0.00    +0.113 A 
ATOM     13  S   UNL     1       4.098  -1.966   0.092  0.00  0.00    -0.064 S 
ATOM     14  C   UNL     1       2.441  -2.626   0.155  0.00  0.00    +0.081 A 
ATOM     15  C   UNL     1       3.375  -6.943  -0.161  0.00  0.00    +0.066 C 
BRANCH  10  16
ATOM     16  C   UNL     1       8.010  -5.484  -0.362  0.00  0.00    +0.172 A 
ATOM     17  C   UNL     1       9.059  -4.615  -0.376  0.00  0.00    +0.053 A 
ATOM     18  C   UNL     1      10.227  -5.392  -0.494  0.00  0.00    +0.042 A 
ATOM     19  C   UNL     1       9.840  -6.683  -0.547  0.00  0.00    +0.196 A 
ATOM     20  O   UNL     1       8.502  -6.735  -0.462  0.00  0.00    -0.460 OA
ENDBRANCH  10  16
ENDBRANCH   1  14
BRANCH   3  21
ATOM     21  N   UNL     1      -0.041   0.141   0.478  0.00  0.00    -0.230 N 
ATOM     22  C   UNL     1      -0.042   1.486   0.559  0.00  0.00    +0.269 C 
ATOM     23  O   UNL     1       1.010   2.098   0.530  0.00  0.00    -0.268 OA
ATOM     24  H   UNL     1      -0.992  -0.412   0.504  0.00  0.00    +0.173 HD
BRANCH  22  25
ATOM     25  C   UNL     1      -1.310   2.213   0.676  0.00  0.00    +0.098 A 
ATOM     26  C   UNL     1      -1.544   3.579   0.772  0.00  0.00    +0.058 A 
ATOM     27  N   UNL     1      -2.784   3.978   0.867  0.00  0.00    -0.243 NA
ATOM     28  C   UNL     1      -3.792   3.118   0.873  0.00  0.00    +0.109 A 
ATOM     29  S   UNL     1      -2.983   1.588   0.727  0.00  0.00    -0.062 S 
ATOM     30  C   UNL     1      -0.406   4.566   0.767  0.00  0.00    +0.067 C 
BRANCH  28  31
ATOM     31  C   UNL     1      -5.241   3.392   0.973  0.00  0.00    +0.007 A 
ATOM     32  C   UNL     1      -5.700   4.705   1.085  0.00  0.00    +0.010 A 
ATOM     33  C   UNL     1      -7.054   4.955   1.173  0.00  0.00    +0.001 A 
ATOM     34  C   UNL     1      -7.956   3.906   1.161  0.00  0.00    +0.000 A 
ATOM     35  C   UNL     1      -7.507   2.601   1.056  0.00  0.00    +0.001 A 
ATOM     36  C   UNL     1      -6.156   2.338   0.962  0.00  0.00    +0.010 A 
ENDBRANCH  28  31
ENDBRANCH  22  25
ENDBRANCH   3  21
TORSDOF 5
