REMARK  Name = ZINC19787335
REMARK  3 active torsions:
REMARK  status: ('A' for Active; 'I' for Inactive)
REMARK    1  A    between atoms: C_6  and  C_7
REMARK    2  A    between atoms: C_18  and  O_26
REMARK    3  A    between atoms: C_21  and  N_22
REMARK                            x       y       z     vdW  Elec       q    Type
REMARK                         _______ _______ _______ _____ _____    ______ ____
ROOT
ATOM      1  C   UNL     1      -3.398   2.440   3.525  0.00  0.00    +0.105 C 
ATOM      2  C   UNL     1      -1.883   2.450   3.742  0.00  0.00    +0.029 C 
ATOM      3  C   UNL     1      -1.524   1.354   4.784  0.00  0.00    +0.033 C 
ATOM      4  C   UNL     1      -1.464   0.084   3.959  0.00  0.00    -0.030 C 
ATOM      5  C   UNL     1      -1.277   0.366   2.694  0.00  0.00    -0.023 C 
ATOM      6  C   UNL     1      -1.194   1.862   2.492  0.00  0.00    +0.051 C 
ATOM      7  C   UNL     1      -1.900   2.265   1.232  0.00  0.00    +0.016 A 
ATOM      8  C   UNL     1      -3.106   2.941   1.235  0.00  0.00    +0.076 A 
ATOM      9  C   UNL     1      -3.715   3.284   0.024  0.00  0.00    +0.139 A 
ATOM     10  C   UNL     1      -3.115   2.951  -1.177  0.00  0.00    +0.069 A 
ATOM     11  C   UNL     1      -1.905   2.281  -1.176  0.00  0.00    +0.075 A 
ATOM     12  C   UNL     1      -1.306   1.936   0.019  0.00  0.00    +0.150 A 
ATOM     13 CL   UNL     1      -1.141   1.868  -2.680  0.00  0.00    -0.081 Cl
ATOM     14  N   UNL     1      -3.736   3.333   2.416  0.00  0.00    -0.334 N 
ATOM     15  H   UNL     1      -4.412   4.184   2.581  0.00  0.00    +0.147 HD
ENDROOT
BRANCH   1  21
ATOM     16  C   UNL     1      -4.165   4.265   5.057  0.00  0.00    +0.007 A 
ATOM     17  C   UNL     1      -4.802   4.699   6.204  0.00  0.00    +0.020 A 
ATOM     18  C   UNL     1      -5.352   3.780   7.080  0.00  0.00    +0.041 A 
ATOM     19  C   UNL     1      -5.269   2.427   6.804  0.00  0.00    +0.020 A 
ATOM     20  C   UNL     1      -4.637   1.994   5.653  0.00  0.00    +0.007 A 
ATOM     21  C   UNL     1      -4.088   2.913   4.779  0.00  0.00    -0.027 A 
ATOM     22 CL   UNL     1      -6.145   4.325   8.525  0.00  0.00    -0.084 Cl
ENDBRANCH   1  21
BRANCH  12  23
ATOM     23  N   UNL     1      -0.014   1.214   0.009  0.00  0.00    +0.058 N 
ATOM     24  O   UNL     1       0.002  -0.004   0.002  0.00  0.00    -0.126 OA
ATOM     25  O   UNL     1       1.032   1.837   0.002  0.00  0.00    -0.126 OA
ENDBRANCH  12  23
BRANCH   9  26
ATOM     26  O   UNL     1      -4.902   3.947   0.027  0.00  0.00    -0.505 OA
ATOM     27  H   UNL     1      -5.384   4.218  -0.924  0.00  0.00    +0.292 HD
ENDBRANCH   9  26
TORSDOF 3
