REMARK  Name = ZINC09219693
REMARK  8 active torsions:
REMARK  status: ('A' for Active; 'I' for Inactive)
REMARK    1  A    between atoms: C_1  and  C_2
REMARK    2  A    between atoms: C_2  and  C_4
REMARK    3  A    between atoms: C_2  and  O_16
REMARK    4  A    between atoms: N_6  and  C_7
REMARK    5  A    between atoms: C_12  and  N_13
REMARK    6  A    between atoms: O_16  and  C_17
REMARK    7  A    between atoms: C_17  and  C_19
REMARK    8  A    between atoms: C_21  and  C_25
REMARK                            x       y       z     vdW  Elec       q    Type
REMARK                         _______ _______ _______ _____ _____    ______ ____
ROOT
ATOM      1  O   UNL     1      -3.033   3.872   0.050  0.00  0.00    -0.448 OA
ENDROOT
BRANCH   1   3
ATOM      2  C   UNL     1      -4.237   5.431  -1.381  0.00  0.00    +0.062 C 
ATOM      3  C   UNL     1      -3.907   5.031   0.059  0.00  0.00    +0.259 C 
BRANCH   3   4
ATOM      4  C   UNL     1      -5.181   4.694   0.791  0.00  0.00    +0.258 C 
ATOM      5  O   UNL     1      -5.336   3.587   1.259  0.00  0.00    -0.271 OA
ATOM      6  N   UNL     1      -6.146   5.625   0.925  0.00  0.00    -0.281 N 
ATOM      7  H   UNL     1      -5.991   6.533   0.622  0.00  0.00    +0.155 HD
BRANCH   6   8
ATOM      8  C   UNL     1      -7.374   5.280   1.501  0.00  0.00    +0.064 A 
ATOM      9  C   UNL     1      -7.819   3.965   1.458  0.00  0.00    +0.025 A 
ATOM     10  C   UNL     1      -9.028   3.628   2.033  0.00  0.00    +0.002 A 
ATOM     11  C   UNL     1      -9.802   4.599   2.641  0.00  0.00    +0.002 A 
ATOM     12  C   UNL     1      -9.365   5.911   2.680  0.00  0.00    +0.034 A 
ATOM     13  C   UNL     1      -8.153   6.254   2.112  0.00  0.00    +0.147 A 
BRANCH  13  14
ATOM     14  N   UNL     1      -7.686   7.658   2.154  0.00  0.00    +0.058 N 
ATOM     15  O   UNL     1      -8.325   8.494   2.768  0.00  0.00    -0.126 OA
ATOM     16  O   UNL     1      -6.664   7.977   1.575  0.00  0.00    -0.126 OA
ENDBRANCH  13  14
ENDBRANCH   6   8
ENDBRANCH   3   4
ENDBRANCH   1   3
BRANCH   1  17
ATOM     17  C   UNL     1      -1.706   4.106   0.028  0.00  0.00    +0.360 C 
ATOM     18  O   UNL     1      -1.291   5.247   0.016  0.00  0.00    -0.243 OA
BRANCH  17  19
ATOM     19  C   UNL     1      -0.757   2.975   0.018  0.00  0.00    +0.170 A 
ATOM     20  C   UNL     1       0.652   3.066  -0.004  0.00  0.00    +0.064 A 
ATOM     21  C   UNL     1       1.100   1.775  -0.004  0.00  0.00    +0.067 A 
ATOM     22  N   UNL     1      -0.004   0.974   0.017  0.00  0.00    -0.276 N 
ATOM     23  H   UNL     1       0.012  -0.026   0.026  0.00  0.00    +0.189 HD
ATOM     24  N   UNL     1      -1.068   1.694   0.025  0.00  0.00    -0.167 NA
BRANCH  21  25
ATOM     25  C   UNL     1       2.511   1.330  -0.024  0.00  0.00    -0.000 A 
ATOM     26  C   UNL     1       3.541   2.271  -0.050  0.00  0.00    +0.011 A 
ATOM     27  C   UNL     1       4.855   1.851  -0.063  0.00  0.00    +0.016 A 
ATOM     28  C   UNL     1       5.153   0.499  -0.061  0.00  0.00    +0.018 A 
ATOM     29  C   UNL     1       4.135  -0.439  -0.039  0.00  0.00    +0.016 A 
ATOM     30  C   UNL     1       2.817  -0.031  -0.021  0.00  0.00    +0.011 A 
ATOM     31 BR   UNL     1       6.956  -0.069  -0.087  0.00  0.00    -0.050 Br
ENDBRANCH  21  25
ENDBRANCH  17  19
ENDBRANCH   1  17
TORSDOF 7
