REMARK  Name = ZINC12195232
REMARK  10 active torsions:
REMARK  status: ('A' for Active; 'I' for Inactive)
REMARK    1  A    between atoms: C_1  and  C_2
REMARK    2  A    between atoms: C_3  and  C_12
REMARK    3  A    between atoms: C_4  and  C_11
REMARK    4  A    between atoms: C_7  and  C_8
REMARK    5  A    between atoms: C_8  and  C_10
REMARK    6  A    between atoms: C_18  and  N_21
REMARK    7  A    between atoms: N_21  and  C_22
REMARK    8  A    between atoms: C_25  and  C_28
REMARK    9  A    between atoms: C_28  and  C_29
REMARK   10  A    between atoms: C_28  and  C_30
REMARK                            x       y       z     vdW  Elec       q    Type
REMARK                         _______ _______ _______ _____ _____    ______ ____
ROOT
ATOM      1  C   UNL     1      -0.004  -0.400  -2.543  0.00  0.00    +0.249 C 
ATOM      2  O   UNL     1       1.044  -0.204  -3.128  0.00  0.00    -0.270 OA
ATOM      3  N   UNL     1      -1.177  -0.215  -3.180  0.00  0.00    -0.296 N 
ATOM      4  C   UNL     1      -2.451  -0.442  -2.485  0.00  0.00    +0.108 C 
ATOM      5  C   UNL     1      -3.318   0.814  -2.623  0.00  0.00    +0.021 C 
ATOM      6  C   UNL     1      -3.466   1.167  -4.105  0.00  0.00    +0.025 C 
ATOM      7  C   UNL     1      -2.087   1.464  -4.699  0.00  0.00    +0.088 C 
ATOM      8  C   UNL     1      -1.206   0.222  -4.583  0.00  0.00    +0.130 C 
ENDROOT
BRANCH   1  11
ATOM      9  C   UNL     1      -0.018   1.503   0.010  0.00  0.00    +0.047 C 
ATOM     10  C   UNL     1       0.002  -0.004   0.002  0.00  0.00    -0.010 A 
ATOM     11  C   UNL     1       0.008  -0.839  -1.135  0.00  0.00    +0.061 A 
ATOM     12  C   UNL     1       0.028  -2.146  -0.683  0.00  0.00    +0.026 A 
ATOM     13  N   UNL     1       0.034  -2.137   0.658  0.00  0.00    -0.355 N 
ATOM     14  H   UNL     1       0.047  -2.925   1.224  0.00  0.00    +0.166 HD
ATOM     15  C   UNL     1       0.024  -0.832   1.104  0.00  0.00    +0.086 A 
ATOM     16  C   UNL     1       0.041  -3.376  -1.554  0.00  0.00    +0.064 C 
BRANCH  15  17
ATOM     17  C   UNL     1       0.032  -0.415   2.457  0.00  0.00    +0.176 C 
ATOM     18  O   UNL     1       0.018   0.768   2.728  0.00  0.00    -0.291 OA
ATOM     19  C   UNL     1       0.057  -1.440   3.561  0.00  0.00    +0.093 C 
ENDBRANCH  15  17
ENDBRANCH   1  11
BRANCH   7  20
ATOM     20  N   UNL     1      -2.232   1.834  -6.109  0.00  0.00    -0.339 N 
ATOM     21  H   UNL     1      -3.001   1.526  -6.615  0.00  0.00    +0.146 HD
BRANCH  20  22
ATOM     22  C   UNL     1      -1.264   2.629  -6.726  0.00  0.00    +0.027 A 
ATOM     23  C   UNL     1      -0.159   3.066  -6.005  0.00  0.00    +0.023 A 
ATOM     24  C   UNL     1       0.797   3.852  -6.619  0.00  0.00    +0.006 A 
ATOM     25  C   UNL     1       0.655   4.204  -7.948  0.00  0.00    -0.045 A 
ATOM     26  C   UNL     1      -0.443   3.771  -8.669  0.00  0.00    +0.006 A 
ATOM     27  C   UNL     1      -1.399   2.980  -8.063  0.00  0.00    +0.023 A 
BRANCH  25  28
ATOM     28  C   UNL     1       1.700   5.062  -8.614  0.00  0.00    +0.013 C 
ATOM     29  C   UNL     1       2.308   4.303  -9.794  0.00  0.00    +0.012 C 
ATOM     30  C   UNL     1       1.054   6.354  -9.117  0.00  0.00    +0.012 C 
ENDBRANCH  25  28
ENDBRANCH  20  22
ENDBRANCH   7  20
TORSDOF 5
