REMARK  Name = ZINC21717557
REMARK  13 active torsions:
REMARK  status: ('A' for Active; 'I' for Inactive)
REMARK    1  A    between atoms: C_1  and  C_2
REMARK    2  A    between atoms: C_2  and  O_3
REMARK    3  A    between atoms: O_3  and  C_4
REMARK    4  A    between atoms: C_4  and  C_6
REMARK    5  A    between atoms: C_7  and  C_34
REMARK    6  A    between atoms: N_8  and  C_33
REMARK    7  A    between atoms: C_9  and  C_32
REMARK    8  A    between atoms: C_10  and  S_11
REMARK    9  A    between atoms: S_11  and  N_14
REMARK   10  A    between atoms: C_18  and  C_21
REMARK   11  A    between atoms: N_23  and  C_24
REMARK   12  A    between atoms: C_29  and  O_30
REMARK   13  A    between atoms: O_30  and  C_31
REMARK                            x       y       z     vdW  Elec       q    Type
REMARK                         _______ _______ _______ _____ _____    ______ ____
ROOT
ATOM      1  N   UNL     1      -3.851   2.027   7.927  0.00  0.00    -0.176 NA
ATOM      2  C   UNL     1      -2.822   1.096   8.411  0.00  0.00    +0.109 C 
ATOM      3  C   UNL     1      -2.281   0.297   7.222  0.00  0.00    +0.018 C 
ATOM      4  C   UNL     1      -1.794   1.265   6.141  0.00  0.00    +0.015 C 
ATOM      5  C   UNL     1      -2.966   2.121   5.655  0.00  0.00    +0.091 C 
ATOM      6  C   UNL     1      -3.515   2.941   6.827  0.00  0.00    +0.122 C 
ENDROOT
BRANCH   5   7
ATOM      7  C   UNL     1      -2.492   3.051   4.568  0.00  0.00    +0.222 C 
ATOM      8  O   UNL     1      -2.586   4.251   4.713  0.00  0.00    -0.275 OA
ATOM      9  N   UNL     1      -1.963   2.549   3.434  0.00  0.00    -0.282 N 
ATOM     10  H   UNL     1      -1.961   1.462   3.263  0.00  0.00    +0.155 HD
BRANCH   9  11
ATOM     11  C   UNL     1      -1.417   3.411   2.474  0.00  0.00    +0.076 A 
ATOM     12  C   UNL     1      -0.945   4.660   2.850  0.00  0.00    +0.027 A 
ATOM     13  C   UNL     1      -0.406   5.509   1.901  0.00  0.00    +0.002 A 
ATOM     14  C   UNL     1      -0.337   5.116   0.577  0.00  0.00    +0.004 A 
ATOM     15  C   UNL     1      -0.800   3.871   0.197  0.00  0.00    +0.047 A 
ATOM     16  C   UNL     1      -1.346   3.016   1.141  0.00  0.00    +0.141 A 
BRANCH  16  17
ATOM     17  O   UNL     1      -1.807   1.793   0.767  0.00  0.00    -0.493 OA
ATOM     18  C   UNL     1      -1.702   1.455  -0.618  0.00  0.00    +0.277 C 
ENDBRANCH  16  17
ENDBRANCH   9  11
ENDBRANCH   5   7
BRANCH   1  19
ATOM     19  S   UNL     1      -5.360   2.046   8.608  0.00  0.00    +0.063 S 
ATOM     20  O   UNL     1      -6.240   2.582   7.630  0.00  0.00    -0.153 OA
ATOM     21  O   UNL     1      -5.559   0.765   9.191  0.00  0.00    -0.153 OA
BRANCH  19  26
ATOM     22  C   UNL     1      -5.620   4.637   9.863  0.00  0.00    +0.106 A 
ATOM     23  C   UNL     1      -5.455   5.124  11.142  0.00  0.00    +0.031 A 
ATOM     24  N   UNL     1      -5.087   4.102  11.937  0.00  0.00    -0.349 N 
ATOM     25  C   UNL     1      -5.010   2.945  11.219  0.00  0.00    +0.043 A 
ATOM     26  C   UNL     1      -5.318   3.203   9.936  0.00  0.00    +0.140 A 
ATOM     27  C   UNL     1      -4.635   1.595  11.774  0.00  0.00    +0.065 C 
ATOM     28  C   UNL     1      -4.815   4.216  13.372  0.00  0.00    +0.149 C 
ATOM     29  C   UNL     1      -5.651   6.554  11.574  0.00  0.00    +0.064 C 
BRANCH  22  30
ATOM     30  C   UNL     1      -6.016   5.399   8.669  0.00  0.00    +0.343 C 
ATOM     31  O   UNL     1      -7.192   5.512   8.383  0.00  0.00    -0.245 OA
BRANCH  30  32
ATOM     32  O   UNL     1      -5.076   5.972   7.892  0.00  0.00    -0.461 OA
BRANCH  32  34
ATOM     33  C   UNL     1      -4.338   7.282   5.976  0.00  0.00    +0.048 C 
ATOM     34  C   UNL     1      -5.540   6.708   6.730  0.00  0.00    +0.229 C 
ENDBRANCH  32  34
ENDBRANCH  30  32
ENDBRANCH  22  30
ENDBRANCH  19  26
ENDBRANCH   1  19
TORSDOF 8
