REMARK  Name = ZINC14986928
REMARK  10 active torsions:
REMARK  status: ('A' for Active; 'I' for Inactive)
REMARK    1  A    between atoms: C_1  and  O_2
REMARK    2  A    between atoms: O_2  and  C_3
REMARK    3  A    between atoms: C_6  and  C_12
REMARK    4  A    between atoms: C_8  and  O_9
REMARK    5  A    between atoms: O_9  and  C_10
REMARK    6  A    between atoms: C_12  and  N_60
REMARK    7  A    between atoms: C_19  and  C_23
REMARK    8  A    between atoms: C_23  and  C_25
REMARK    9  A    between atoms: C_23  and  O_32
REMARK   10  A    between atoms: C_25  and  C_26
REMARK                            x       y       z     vdW  Elec       q    Type
REMARK                         _______ _______ _______ _____ _____    ______ ____
ROOT
ATOM      1  C   UNL     1       4.550   1.074  -5.283  0.00  0.00    -0.036 C 
ATOM      2  C   UNL     1       3.964  -0.275  -4.925  0.00  0.00    +0.210 C 
ATOM      3  O   UNL     1       2.555  -0.300  -5.183  0.00  0.00    -0.494 OA
ATOM      4  C   UNL     1       1.770   0.178  -4.180  0.00  0.00    +0.122 A 
ATOM      5  C   UNL     1       0.970  -0.688  -3.448  0.00  0.00    +0.046 A 
ATOM      6  C   UNL     1       0.198  -0.197  -2.413  0.00  0.00    +0.010 A 
ATOM      7  C   UNL     1       0.227   1.150  -2.100  0.00  0.00    -0.018 A 
ATOM      8  C   UNL     1       1.021   2.015  -2.834  0.00  0.00    +0.011 A 
ATOM      9  C   UNL     1       1.786   1.525  -3.872  0.00  0.00    -0.022 A 
ATOM     10  C   UNL     1       2.638   2.466  -4.702  0.00  0.00    -0.039 C 
ATOM     11  N   UNL     1       4.060   2.164  -4.412  0.00  0.00    +0.387 N 
ATOM     12  H   UNL     1       4.141   1.867  -3.433  0.00  0.00    -0.081 HD
ENDROOT
BRANCH  11  13
ATOM     13  C   UNL     1       4.881   3.370  -4.612  0.00  0.00    -0.041 C 
BRANCH  13  17
ATOM     14  C   UNL     1       3.192   6.578  -2.344  0.00  0.00    +0.163 A 
ATOM     15  C   UNL     1       3.080   6.568  -3.725  0.00  0.00    +0.050 A 
ATOM     16  C   UNL     1       3.627   5.529  -4.456  0.00  0.00    +0.007 A 
ATOM     17  C   UNL     1       4.287   4.499  -3.811  0.00  0.00    -0.042 A 
ATOM     18  C   UNL     1       4.398   4.501  -2.433  0.00  0.00    +0.088 A 
ATOM     19  C   UNL     1       3.856   5.543  -1.695  0.00  0.00    +0.180 A 
ATOM     20 CL   UNL     1       5.222   3.203  -1.626  0.00  0.00    -0.079 Cl
BRANCH  14  22
ATOM     21  C   UNL     1       1.988   8.629  -2.357  0.00  0.00    +0.277 C 
ATOM     22  O   UNL     1       2.655   7.599  -1.624  0.00  0.00    -0.491 OA
ENDBRANCH  14  22
BRANCH  19  23
ATOM     23  O   UNL     1       3.969   5.549  -0.339  0.00  0.00    -0.490 OA
ATOM     24  C   UNL     1       2.928   4.908   0.401  0.00  0.00    +0.277 C 
ENDBRANCH  19  23
ENDBRANCH  13  17
ENDBRANCH  11  13
BRANCH   7  25
ATOM     25  C   UNL     1      -0.610   1.677  -0.964  0.00  0.00    +0.149 C 
BRANCH  25  26
ATOM     26  O   UNL     1      -1.840   0.953  -0.903  0.00  0.00    -0.387 OA
ATOM     27  H   UNL     1      -1.730   0.003  -0.759  0.00  0.00    +0.210 HD
ENDBRANCH  25  26
BRANCH  25  28
ATOM     28  C   UNL     1       0.149   1.505   0.352  0.00  0.00    +0.071 C 
BRANCH  28  29
ATOM     29  C   UNL     1      -0.633   2.143   1.471  0.00  0.00    -0.045 A 
ATOM     30  C   UNL     1      -0.420   3.470   1.796  0.00  0.00    +0.004 A 
ATOM     31  C   UNL     1      -1.142   4.056   2.819  0.00  0.00    +0.000 A 
ATOM     32  C   UNL     1      -2.069   3.312   3.524  0.00  0.00    +0.000 A 
ATOM     33  C   UNL     1      -2.279   1.984   3.203  0.00  0.00    +0.000 A 
ATOM     34  C   UNL     1      -1.561   1.399   2.177  0.00  0.00    +0.004 A 
ENDBRANCH  28  29
ENDBRANCH  25  28
ENDBRANCH   7  25
TORSDOF 8
