REMARK  Name = ZINC16195706
REMARK  12 active torsions:
REMARK  status: ('A' for Active; 'I' for Inactive)
REMARK    1  A    between atoms: C_1  and  O_2
REMARK    2  A    between atoms: O_2  and  C_3
REMARK    3  A    between atoms: C_5  and  C_18
REMARK    4  A    between atoms: C_8  and  O_9
REMARK    5  A    between atoms: O_9  and  C_10
REMARK    6  A    between atoms: C_10  and  C_11
REMARK    7  A    between atoms: C_18  and  N_54
REMARK    8  A    between atoms: C_19  and  C_20
REMARK    9  A    between atoms: C_19  and  N_54
REMARK   10  A    between atoms: C_20  and  N_21
REMARK   11  A    between atoms: N_21  and  C_22
REMARK   12  A    between atoms: C_25  and  N_28
REMARK                            x       y       z     vdW  Elec       q    Type
REMARK                         _______ _______ _______ _____ _____    ______ ____
ROOT
ATOM      1  C   UNL     1      -0.787   2.893   1.346  0.00  0.00    +0.163 A 
ATOM      2  C   UNL     1      -0.259   3.751   0.395  0.00  0.00    +0.051 A 
ATOM      3  C   UNL     1      -0.368   5.119   0.561  0.00  0.00    -0.060 A 
ATOM      4  C   UNL     1      -1.002   5.635   1.675  0.00  0.00    +0.021 A 
ATOM      5  C   UNL     1      -1.531   4.784   2.629  0.00  0.00    +0.063 A 
ATOM      6  C   UNL     1      -1.431   3.411   2.465  0.00  0.00    +0.176 A 
ATOM      7 BR   UNL     1      -2.398   5.494   4.153  0.00  0.00    -0.046 Br
ENDROOT
BRANCH   1   9
ATOM      8  C   UNL     1      -0.013   1.086   0.008  0.00  0.00    +0.277 C 
ATOM      9  O   UNL     1      -0.682   1.547   1.184  0.00  0.00    -0.491 OA
ENDBRANCH   1   9
BRANCH   6  10
ATOM     10  O   UNL     1      -1.956   2.573   3.399  0.00  0.00    -0.483 OA
BRANCH  10  11
ATOM     11  C   UNL     1      -1.101   2.184   4.476  0.00  0.00    +0.264 C 
BRANCH  11  12
ATOM     12  C   UNL     1      -1.849   1.262   5.403  0.00  0.00    -0.010 A 
ATOM     13  C   UNL     1      -2.561   1.781   6.469  0.00  0.00    +0.007 A 
ATOM     14  C   UNL     1      -3.251   0.935   7.316  0.00  0.00    +0.000 A 
ATOM     15  C   UNL     1      -3.222  -0.431   7.105  0.00  0.00    +0.000 A 
ATOM     16  C   UNL     1      -2.506  -0.950   6.043  0.00  0.00    +0.000 A 
ATOM     17  C   UNL     1      -1.820  -0.104   5.192  0.00  0.00    +0.007 A 
ENDBRANCH  11  12
ENDBRANCH  10  11
ENDBRANCH   6  10
BRANCH   3  18
ATOM     18  C   UNL     1       0.207   6.050  -0.475  0.00  0.00    -0.047 C 
BRANCH  18  19
ATOM     19  N   UNL     1      -0.823   6.335  -1.492  0.00  0.00    +0.383 N 
ATOM     20  H   UNL     1      -1.633   6.774  -1.040  0.00  0.00    -0.085 HD
ATOM     21  H   UNL     1      -1.113   5.456  -1.936  0.00  0.00    -0.085 HD
BRANCH  19  22
ATOM     22  C   UNL     1      -0.287   7.246  -2.522  0.00  0.00    -0.063 C 
BRANCH  22  23
ATOM     23  C   UNL     1      -1.375   7.524  -3.561  0.00  0.00    +0.082 C 
BRANCH  23  24
ATOM     24  N   UNL     1      -0.851   8.428  -4.587  0.00  0.00    -0.346 N 
ATOM     25  H   UNL     1       0.062   8.749  -4.530  0.00  0.00    +0.146 HD
BRANCH  24  26
ATOM     26  C   UNL     1      -1.667   8.828  -5.649  0.00  0.00    +0.027 A 
ATOM     27  C   UNL     1      -2.973   8.364  -5.735  0.00  0.00    +0.025 A 
ATOM     28  C   UNL     1      -3.779   8.766  -6.783  0.00  0.00    +0.034 A 
ATOM     29  C   UNL     1      -3.282   9.620  -7.750  0.00  0.00    +0.126 A 
ATOM     30  C   UNL     1      -1.980  10.079  -7.670  0.00  0.00    +0.034 A 
ATOM     31  C   UNL     1      -1.171   9.685  -6.622  0.00  0.00    +0.025 A 
BRANCH  29  32
ATOM     32  N   UNL     1      -4.146  10.044  -8.875  0.00  0.00    +0.056 N 
ATOM     33  O   UNL     1      -3.711  10.796  -9.728  0.00  0.00    -0.126 OA
ATOM     34  O   UNL     1      -5.293   9.640  -8.947  0.00  0.00    -0.126 OA
ENDBRANCH  29  32
ENDBRANCH  24  26
ENDBRANCH  23  24
ENDBRANCH  22  23
ENDBRANCH  19  22
ENDBRANCH  18  19
ENDBRANCH   3  18
TORSDOF 11
