REMARK  Name = ZINC32809133
REMARK  6 active torsions:
REMARK  status: ('A' for Active; 'I' for Inactive)
REMARK    1  A    between atoms: C_1  and  C_2
REMARK    2  A    between atoms: C_9  and  C_19
REMARK    3  A    between atoms: C_12  and  C_13
REMARK    4  A    between atoms: N_21  and  C_22
REMARK    5  A    between atoms: C_22  and  C_24
REMARK    6  A    between atoms: C_22  and  C_25
REMARK                            x       y       z     vdW  Elec       q    Type
REMARK                         _______ _______ _______ _____ _____    ______ ____
ROOT
ATOM      1  C   UNL     1      -2.524   1.260  -0.520  0.00  0.00    +0.051 C 
ATOM      2  C   UNL     1      -1.221   1.964  -0.241  0.00  0.00    +0.040 A 
ATOM      3  C   UNL     1      -0.003   1.244  -0.262  0.00  0.00    +0.196 A 
ATOM      4  O   UNL     1       0.023   0.048  -0.504  0.00  0.00    -0.287 OA
ATOM      5  C   UNL     1       1.235   1.999   0.014  0.00  0.00    +0.065 A 
ATOM      6  C   UNL     1       2.481   1.373   0.008  0.00  0.00    +0.015 A 
ATOM      7  C   UNL     1       3.620   2.107   0.271  0.00  0.00    +0.002 A 
ATOM      8  C   UNL     1       3.537   3.461   0.540  0.00  0.00    +0.017 A 
ATOM      9  C   UNL     1       2.300   4.105   0.550  0.00  0.00    +0.080 A 
ATOM     10  C   UNL     1       1.134   3.371   0.285  0.00  0.00    +0.151 A 
ATOM     11  O   UNL     1      -0.073   3.968   0.287  0.00  0.00    -0.454 OA
ATOM     12  C   UNL     1      -1.207   3.295   0.038  0.00  0.00    +0.142 A 
ENDROOT
BRANCH  12  13
ATOM     13  C   UNL     1      -2.488   4.029   0.061  0.00  0.00    +0.018 A 
ATOM     14  C   UNL     1      -2.642   5.194  -0.693  0.00  0.00    +0.011 A 
ATOM     15  C   UNL     1      -3.843   5.872  -0.671  0.00  0.00    +0.001 A 
ATOM     16  C   UNL     1      -4.891   5.406   0.104  0.00  0.00    +0.000 A 
ATOM     17  C   UNL     1      -4.743   4.255   0.858  0.00  0.00    +0.001 A 
ATOM     18  C   UNL     1      -3.549   3.564   0.841  0.00  0.00    +0.011 A 
ENDBRANCH  12  13
BRANCH   9  19
ATOM     19  C   UNL     1       2.219   5.550   0.837  0.00  0.00    +0.248 C 
ATOM     20  O   UNL     1       1.139   6.109   0.844  0.00  0.00    -0.270 OA
ATOM     21  N   UNL     1       3.341   6.251   1.091  0.00  0.00    -0.302 N 
ATOM     22  H   UNL     1       4.319   5.746   1.084  0.00  0.00    +0.150 HD
BRANCH  21  23
ATOM     23  C   UNL     1       3.261   7.686   1.375  0.00  0.00    +0.139 C 
ATOM     24  C   UNL     1       3.246   8.467   0.060  0.00  0.00    +0.036 C 
BRANCH  23  25
ATOM     25  C   UNL     1       4.455   8.104   2.194  0.00  0.00    +0.158 A 
ATOM     26  N   UNL     1       5.698   7.757   1.981  0.00  0.00    -0.132 NA
ATOM     27  N   UNL     1       6.467   8.290   2.864  0.00  0.00    -0.129 NA
ATOM     28  C   UNL     1       5.742   9.009   3.705  0.00  0.00    +0.161 A 
ATOM     29  N   UNL     1       4.436   8.905   3.294  0.00  0.00    -0.285 N 
ATOM     30  C   UNL     1       3.443   9.547   3.974  0.00  0.00    +0.094 A 
ATOM     31  C   UNL     1       3.730  10.294   5.061  0.00  0.00    +0.018 A 
ATOM     32  C   UNL     1       5.057  10.420   5.507  0.00  0.00    +0.005 A 
ATOM     33  C   UNL     1       6.057   9.785   4.838  0.00  0.00    +0.048 A 
ENDBRANCH  23  25
ENDBRANCH  21  23
ENDBRANCH   9  19
TORSDOF 4
