REMARK  Name = ZINC65828004
REMARK  6 active torsions:
REMARK  status: ('A' for Active; 'I' for Inactive)
REMARK    1  A    between atoms: C_1  and  C_2
REMARK    2  A    between atoms: N_4  and  C_5
REMARK    3  A    between atoms: C_8  and  O_23
REMARK    4  A    between atoms: C_10  and  N_11
REMARK    5  A    between atoms: C_12  and  C_14
REMARK    6  A    between atoms: O_23  and  C_24
REMARK                            x       y       z     vdW  Elec       q    Type
REMARK                         _______ _______ _______ _____ _____    ______ ____
ROOT
ATOM      1  C   UNL     1      -1.086  -2.100  -0.079  0.00  0.00    +0.055 A 
ATOM      2  C   UNL     1       0.144  -2.740  -0.071  0.00  0.00    +0.029 A 
ATOM      3  C   UNL     1       0.207  -4.118  -0.164  0.00  0.00    +0.047 A 
ATOM      4  C   UNL     1      -0.958  -4.864  -0.266  0.00  0.00    +0.122 A 
ATOM      5  C   UNL     1      -2.191  -4.230  -0.274  0.00  0.00    +0.070 A 
ATOM      6  C   UNL     1      -2.259  -2.848  -0.175  0.00  0.00    +0.058 A 
ENDROOT
BRANCH   1  10
ATOM      7  C   UNL     1      -0.154   1.488   0.588  0.00  0.00    +0.109 C 
ATOM      8  C   UNL     1      -0.145  -0.019   0.597  0.00  0.00    +0.214 C 
ATOM      9  O   UNL     1       0.767  -0.617   1.128  0.00  0.00    -0.276 OA
ATOM     10  N   UNL     1      -1.151  -0.702   0.015  0.00  0.00    -0.284 N 
ATOM     11  H   UNL     1      -1.919  -0.227  -0.338  0.00  0.00    +0.155 HD
ENDBRANCH   1  10
BRANCH   6  12
ATOM     12  N   UNL     1      -3.503  -2.205  -0.177  0.00  0.00    -0.283 N 
ATOM     13  C   UNL     1      -4.567  -2.797  -0.755  0.00  0.00    +0.231 C 
ATOM     14  O   UNL     1      -4.426  -3.839  -1.360  0.00  0.00    -0.274 OA
ATOM     15  H   UNL     1      -3.600  -1.333   0.237  0.00  0.00    +0.155 HD
BRANCH  13  16
ATOM     16  C   UNL     1      -5.931  -2.166  -0.650  0.00  0.00    +0.142 C 
ATOM     17  C   UNL     1      -6.869  -2.660  -1.774  0.00  0.00    +0.060 C 
ATOM     18  C   UNL     1      -7.656  -3.877  -1.351  0.00  0.00    -0.032 A 
ATOM     19  C   UNL     1      -8.275  -4.803  -2.195  0.00  0.00    +0.005 A 
ATOM     20  C   UNL     1      -8.982  -5.869  -1.686  0.00  0.00    +0.000 A 
ATOM     21  C   UNL     1      -9.100  -6.053  -0.320  0.00  0.00    +0.001 A 
ATOM     22  C   UNL     1      -8.490  -5.154   0.535  0.00  0.00    +0.015 A 
ATOM     23  C   UNL     1      -7.774  -4.090   0.020  0.00  0.00    +0.012 A 
ATOM     24  S   UNL     1      -6.851  -2.794   0.815  0.00  0.00    -0.112 S 
ENDBRANCH  13  16
ENDBRANCH   6  12
BRANCH   4  25
ATOM     25  O   UNL     1      -0.891  -6.219  -0.358  0.00  0.00    -0.495 OA
ATOM     26  C   UNL     1       0.412  -6.806  -0.344  0.00  0.00    +0.277 C 
ENDBRANCH   4  25
TORSDOF 4
