REMARK  Name = ZINC40034029
REMARK  9 active torsions:
REMARK  status: ('A' for Active; 'I' for Inactive)
REMARK    1  A    between atoms: C_1  and  O_2
REMARK    2  A    between atoms: O_2  and  C_3
REMARK    3  A    between atoms: C_6  and  C_18
REMARK    4  A    between atoms: C_8  and  S_9
REMARK    5  A    between atoms: S_9  and  N_12
REMARK    6  A    between atoms: C_18  and  O_20
REMARK    7  A    between atoms: O_20  and  C_21
REMARK    8  A    between atoms: C_21  and  C_22
REMARK    9  A    between atoms: C_22  and  C_24
REMARK                            x       y       z     vdW  Elec       q    Type
REMARK                         _______ _______ _______ _____ _____    ______ ____
ROOT
ATOM      1  C   UNL     1      -1.198  -0.636   0.010  0.00  0.00    +0.146 A 
ATOM      2  C   UNL     1      -2.373   0.107   0.020  0.00  0.00    +0.048 A 
ATOM      3  C   UNL     1      -3.593  -0.531   0.028  0.00  0.00    +0.018 A 
ATOM      4  C   UNL     1      -3.650  -1.928   0.027  0.00  0.00    +0.061 A 
ATOM      5  C   UNL     1      -2.466  -2.671   0.017  0.00  0.00    +0.047 A 
ATOM      6  C   UNL     1      -1.250  -2.026   0.003  0.00  0.00    +0.148 A 
ENDROOT
BRANCH   6   7
ATOM      7  S   UNL     1       0.243  -2.961  -0.016  0.00  0.00    +0.064 S 
ATOM      8  O   UNL     1       1.072  -2.423   1.004  0.00  0.00    -0.153 OA
ATOM      9  O   UNL     1      -0.137  -4.330  -0.047  0.00  0.00    -0.153 OA
BRANCH   7  10
ATOM     10  N   UNL     1       0.999  -2.647  -1.456  0.00  0.00    -0.172 NA
ATOM     11  C   UNL     1       0.728  -3.466  -2.648  0.00  0.00    +0.137 C 
ATOM     12  C   UNL     1       0.398  -2.527  -3.814  0.00  0.00    +0.177 C 
ATOM     13  O   UNL     1       1.433  -1.548  -3.938  0.00  0.00    -0.377 OA
ATOM     14  C   UNL     1       1.572  -0.696  -2.798  0.00  0.00    +0.177 C 
ATOM     15  C   UNL     1       1.957  -1.538  -1.581  0.00  0.00    +0.137 C 
ENDBRANCH   7  10
ENDBRANCH   6   7
BRANCH   1  17
ATOM     16  C   UNL     1      -0.017   1.425   0.010  0.00  0.00    +0.277 C 
ATOM     17  O   UNL     1       0.002  -0.004   0.002  0.00  0.00    -0.493 OA
ENDBRANCH   1  17
BRANCH   4  18
ATOM     18  C   UNL     1      -4.955  -2.615   0.036  0.00  0.00    +0.340 C 
ATOM     19  O   UNL     1      -5.002  -3.829   0.035  0.00  0.00    -0.245 OA
BRANCH  18  20
ATOM     20  O   UNL     1      -6.095  -1.897   0.045  0.00  0.00    -0.453 OA
BRANCH  20  21
ATOM     21  C   UNL     1      -7.322  -2.628   0.054  0.00  0.00    +0.311 C 
BRANCH  21  22
ATOM     22  C   UNL     1      -8.481  -1.664   0.064  0.00  0.00    +0.199 C 
ATOM     23  O   UNL     1      -8.275  -0.468   0.064  0.00  0.00    -0.289 OA
BRANCH  22  24
ATOM     24  C   UNL     1      -9.805  -2.153   0.074  0.00  0.00    +0.026 C 
ATOM     25  C   UNL     1     -10.971  -1.409   0.078  0.00  0.00    +0.006 A 
ATOM     26  C   UNL     1     -11.224  -0.017   0.075  0.00  0.00    +0.010 A 
ATOM     27  C   UNL     1     -12.495   0.444   0.082  0.00  0.00    +0.001 A 
ATOM     28  C   UNL     1     -13.607  -0.412   0.091  0.00  0.00    +0.002 A 
ATOM     29  C   UNL     1     -13.475  -1.756   0.094  0.00  0.00    +0.026 A 
ATOM     30  C   UNL     1     -12.124  -2.342   0.088  0.00  0.00    +0.043 A 
ATOM     31  N   UNL     1     -11.712  -3.577   0.089  0.00  0.00    -0.380 N 
ATOM     32  C   UNL     1     -10.246  -3.600   0.075  0.00  0.00    +0.152 C 
ATOM     33  H   UNL     1     -12.285  -4.360   0.095  0.00  0.00    +0.160 HD
ENDBRANCH  22  24
ENDBRANCH  21  22
ENDBRANCH  20  21
ENDBRANCH  18  20
ENDBRANCH   4  18
TORSDOF 8
