REMARK  Name = ZINC45890759
REMARK  8 active torsions:
REMARK  status: ('A' for Active; 'I' for Inactive)
REMARK    1  A    between atoms: C_1  and  C_2
REMARK    2  A    between atoms: C_2  and  C_3
REMARK    3  A    between atoms: C_3  and  C_4
REMARK    4  A    between atoms: N_6  and  C_7
REMARK    5  A    between atoms: C_8  and  C_18
REMARK    6  A    between atoms: C_10  and  N_16
REMARK    7  A    between atoms: C_12  and  C_13
REMARK    8  A    between atoms: C_13  and  C_14
REMARK                            x       y       z     vdW  Elec       q    Type
REMARK                         _______ _______ _______ _____ _____    ______ ____
ROOT
ATOM      1  C   UNL     1       1.491  -4.057  -2.224  0.00  0.00    +0.042 A 
ATOM      2  C   UNL     1       1.132  -4.747  -1.073  0.00  0.00    -0.013 A 
ATOM      3  C   UNL     1       1.186  -6.127  -1.050  0.00  0.00    +0.044 A 
ATOM      4  C   UNL     1       1.598  -6.825  -2.178  0.00  0.00    +0.053 A 
ATOM      5  C   UNL     1       1.956  -6.135  -3.329  0.00  0.00    +0.044 A 
ATOM      6  C   UNL     1       1.898  -4.755  -3.353  0.00  0.00    -0.010 A 
ATOM      7 BR   UNL     1       2.518  -7.085  -4.864  0.00  0.00    -0.048 Br
ATOM      8 BR   UNL     1       0.699  -7.065   0.518  0.00  0.00    -0.048 Br
ATOM      9  C   UNL     1       0.686  -3.989   0.150  0.00  0.00    +0.047 C 
ENDROOT
BRANCH   1  12
ATOM     10  C   UNL     1       0.304  -2.021  -1.886  0.00  0.00    +0.217 C 
ATOM     11  O   UNL     1      -0.688  -2.660  -1.605  0.00  0.00    -0.275 OA
ATOM     12  N   UNL     1       1.436  -2.657  -2.248  0.00  0.00    -0.285 N 
ATOM     13  H   UNL     1       2.212  -2.146  -2.525  0.00  0.00    +0.155 HD
BRANCH  10  14
ATOM     14  C   UNL     1       0.271  -0.515  -1.830  0.00  0.00    +0.096 C 
BRANCH  14  16
ATOM     15  C   UNL     1      -1.154   1.477  -1.337  0.00  0.00    +0.004 C 
ATOM     16  C   UNL     1      -1.120  -0.051  -1.394  0.00  0.00    +0.006 C 
ENDBRANCH  14  16
ENDBRANCH  10  14
ENDBRANCH   1  12
BRANCH   4  17
ATOM     17  N   UNL     1       1.653  -8.224  -2.154  0.00  0.00    -0.356 N 
ATOM     18  H   UNL     1       1.403  -8.706  -1.350  0.00  0.00    +0.142 HD
ATOM     19  H   UNL     1       1.941  -8.711  -2.941  0.00  0.00    +0.142 HD
ENDBRANCH   4  17
BRANCH   6  20
ATOM     20  C   UNL     1       2.281  -4.007  -4.604  0.00  0.00    +0.035 C 
ATOM     21  C   UNL     1       3.778  -3.693  -4.572  0.00  0.00    +0.009 C 
ENDBRANCH   6  20
TORSDOF 5
