REMARK  Name = ZINC35144509
REMARK  11 active torsions:
REMARK  status: ('A' for Active; 'I' for Inactive)
REMARK    1  A    between atoms: C_1  and  C_2
REMARK    2  A    between atoms: N_8  and  C_9
REMARK    3  A    between atoms: C_9  and  C_10
REMARK    4  A    between atoms: C_10  and  C_11
REMARK    5  A    between atoms: C_11  and  N_12
REMARK    6  A    between atoms: C_13  and  C_15
REMARK    7  A    between atoms: C_15  and  C_16
REMARK    8  A    between atoms: C_16  and  C_17
REMARK    9  A    between atoms: C_17  and  S_18
REMARK   10  A    between atoms: S_18  and  C_19
REMARK   11  A    between atoms: N_29  and  C_30
REMARK                            x       y       z     vdW  Elec       q    Type
REMARK                         _______ _______ _______ _____ _____    ______ ____
ROOT
ATOM      1  S   UNL     1       0.722   0.638  12.489  0.00  0.00    -0.087 S 
ENDROOT
BRANCH   1   2
ATOM      2  C   UNL     1       1.760   0.095  13.805  0.00  0.00    +0.177 A 
ATOM      3  N   UNL     1       2.820  -0.617  13.512  0.00  0.00    -0.223 NA
ATOM      4  C   UNL     1       3.657  -1.065  14.469  0.00  0.00    +0.079 A 
ATOM      5  C   UNL     1       4.788  -1.824  14.156  0.00  0.00    +0.028 A 
ATOM      6  C   UNL     1       5.611  -2.257  15.157  0.00  0.00    +0.002 A 
ATOM      7  C   UNL     1       5.340  -1.955  16.486  0.00  0.00    +0.001 A 
ATOM      8  C   UNL     1       4.241  -1.214  16.824  0.00  0.00    +0.015 A 
ATOM      9  C   UNL     1       3.385  -0.758  15.822  0.00  0.00    +0.065 A 
ATOM     10  C   UNL     1       2.191   0.041  16.126  0.00  0.00    +0.267 A 
ATOM     11  O   UNL     1       1.904   0.337  17.272  0.00  0.00    -0.267 OA
ATOM     12  N   UNL     1       1.425   0.442  15.085  0.00  0.00    -0.253 N 
BRANCH  12  13
ATOM     13  C   UNL     1       0.278   1.212  15.320  0.00  0.00    +0.087 A 
ATOM     14  C   UNL     1      -0.943   0.591  15.543  0.00  0.00    +0.029 A 
ATOM     15  C   UNL     1      -2.072   1.352  15.775  0.00  0.00    +0.002 A 
ATOM     16  C   UNL     1      -1.988   2.733  15.785  0.00  0.00    +0.003 A 
ATOM     17  C   UNL     1      -0.774   3.356  15.564  0.00  0.00    +0.040 A 
ATOM     18  C   UNL     1       0.361   2.600  15.336  0.00  0.00    +0.147 A 
ATOM     19  F   UNL     1       1.549   3.209  15.125  0.00  0.00    -0.203 F 
ENDBRANCH  12  13
ENDBRANCH   1   2
BRANCH   1  20
ATOM     20  C   UNL     1       1.517  -0.028  11.000  0.00  0.00    +0.078 C 
BRANCH  20  21
ATOM     21  C   UNL     1       0.707   0.375   9.766  0.00  0.00    +0.020 C 
BRANCH  21  22
ATOM     22  C   UNL     1       1.377  -0.187   8.511  0.00  0.00    +0.096 C 
BRANCH  22  24
ATOM     23  N   UNL     1       0.983  -0.177   6.069  0.00  0.00    -0.315 N 
ATOM     24  C   UNL     1       0.579   0.209   7.295  0.00  0.00    +0.213 C 
ATOM     25  O   UNL     1      -0.427   0.876   7.421  0.00  0.00    -0.276 OA
ATOM     26  H   UNL     1       1.787  -0.710   5.968  0.00  0.00    +0.149 HD
BRANCH  23  27
ATOM     27  C   UNL     1       0.207   0.209   4.887  0.00  0.00    +0.102 C 
BRANCH  27  28
ATOM     28  C   UNL     1       0.877  -0.353   3.631  0.00  0.00    +0.000 C 
BRANCH  28  29
ATOM     29  C   UNL     1       0.067   0.050   2.397  0.00  0.00    -0.077 C 
BRANCH  29  36
ATOM     30  C   UNL     1      -0.019   1.526   0.010  0.00  0.00    -0.013 C 
ATOM     31  C   UNL     1       0.002  -0.004   0.002  0.00  0.00    -0.072 C 
ATOM     32  C   UNL     1       0.717  -0.497  -1.258  0.00  0.00    -0.016 C 
ATOM     33  C   UNL     1       0.735  -2.028  -1.262  0.00  0.00    -0.003 C 
ATOM     34  C   UNL     1       1.410  -2.524   0.020  0.00  0.00    -0.019 C 
ATOM     35  C   UNL     1       0.669  -1.956   1.232  0.00  0.00    -0.078 C 
ATOM     36  N   UNL     1       0.711  -0.490   1.192  0.00  0.00    +0.381 N 
ATOM     37  H   UNL     1       1.671  -0.182   1.159  0.00  0.00    -0.081 HD
ENDBRANCH  29  36
ENDBRANCH  28  29
ENDBRANCH  27  28
ENDBRANCH  23  27
ENDBRANCH  22  24
ENDBRANCH  21  22
ENDBRANCH  20  21
ENDBRANCH   1  20
TORSDOF 10
