REMARK  Name = ZINC15053808
REMARK  5 active torsions:
REMARK  status: ('A' for Active; 'I' for Inactive)
REMARK    1  A    between atoms: C_3  and  C_8
REMARK    2  A    between atoms: C_5  and  O_7
REMARK    3  A    between atoms: N_12  and  C_16
REMARK    4  A    between atoms: C_19  and  S_22
REMARK    5  A    between atoms: S_22  and  N_25
REMARK                            x       y       z     vdW  Elec       q    Type
REMARK                         _______ _______ _______ _____ _____    ______ ____
ROOT
ATOM      1  C   UNL     1       3.656   2.173   0.089  0.00  0.00    +0.028 C 
ATOM      2  C   UNL     1       3.636   3.520  -0.060  0.00  0.00    +0.078 C 
ATOM      3  C   UNL     1       4.764   4.465  -0.189  0.00  0.00    +0.263 C 
ATOM      4  O   UNL     1       5.919   4.082  -0.172  0.00  0.00    -0.269 OA
ATOM      5  N   UNL     1       4.462   5.745  -0.324  0.00  0.00    -0.215 N 
ATOM      6  C   UNL     1       3.143   6.157  -0.341  0.00  0.00    +0.165 C 
ATOM      7  N   UNL     1       2.673   7.367  -0.464  0.00  0.00    -0.279 NA
ATOM      8  S   UNL     1       2.238   4.629  -0.161  0.00  0.00    -0.049 S 
ATOM      9  H   UNL     1       1.715   7.519  -0.460  0.00  0.00    +0.189 HD
ENDROOT
BRANCH   1  12
ATOM     10  C   UNL     1       1.176  -0.619   0.440  0.00  0.00    +0.004 A 
ATOM     11  C   UNL     1       2.349   0.059   0.182  0.00  0.00    +0.008 A 
ATOM     12  C   UNL     1       2.408   1.445   0.362  0.00  0.00    -0.020 A 
ATOM     13  C   UNL     1       1.274   2.135   0.803  0.00  0.00    +0.053 A 
ATOM     14  C   UNL     1       0.104   1.442   1.058  0.00  0.00    +0.117 A 
ATOM     15  C   UNL     1       0.056   0.066   0.876  0.00  0.00    +0.045 A 
BRANCH  14  16
ATOM     16  O   UNL     1      -1.000   2.109   1.486  0.00  0.00    -0.507 OA
ATOM     17  H   UNL     1      -1.573   2.421   0.773  0.00  0.00    +0.292 HD
ENDBRANCH  14  16
ENDBRANCH   1  12
BRANCH   5  18
ATOM     18  C   UNL     1       5.488   6.691  -0.451  0.00  0.00    +0.044 A 
ATOM     19  C   UNL     1       6.275   6.715  -1.594  0.00  0.00    +0.026 A 
ATOM     20  C   UNL     1       7.285   7.649  -1.716  0.00  0.00    +0.030 A 
ATOM     21  C   UNL     1       7.513   8.560  -0.701  0.00  0.00    +0.105 A 
ATOM     22  C   UNL     1       6.730   8.539   0.439  0.00  0.00    +0.030 A 
ATOM     23  C   UNL     1       5.715   7.611   0.564  0.00  0.00    +0.026 A 
BRANCH  21  24
ATOM     24  S   UNL     1       8.803   9.749  -0.860  0.00  0.00    +0.056 S 
ATOM     25  O   UNL     1       9.164  10.135   0.459  0.00  0.00    -0.153 OA
ATOM     26  O   UNL     1       9.742   9.210  -1.780  0.00  0.00    -0.153 OA
BRANCH  24  27
ATOM     27  N   UNL     1       8.148  11.088  -1.582  0.00  0.00    -0.204 NA
ATOM     28  H   UNL     1       8.506  11.968  -1.387  0.00  0.00    +0.144 HD
ATOM     29  H   UNL     1       7.407  10.992  -2.201  0.00  0.00    +0.144 HD
ENDBRANCH  24  27
ENDBRANCH  21  24
ENDBRANCH   5  18
TORSDOF 5
