REMARK  Name = ZINC11029678
REMARK  6 active torsions:
REMARK  status: ('A' for Active; 'I' for Inactive)
REMARK    1  A    between atoms: C_3  and  C_9
REMARK    2  A    between atoms: C_9  and  O_11
REMARK    3  A    between atoms: O_11  and  C_12
REMARK    4  A    between atoms: C_12  and  C_13
REMARK    5  A    between atoms: N_15  and  C_16
REMARK    6  A    between atoms: C_17  and  C_26
REMARK                            x       y       z     vdW  Elec       q    Type
REMARK                         _______ _______ _______ _____ _____    ______ ____
ROOT
ATOM      1  C   UNL     1      -0.014   1.209   0.009  0.00  0.00    +0.255 C 
ATOM      2  O   UNL     1       0.002  -0.004   0.002  0.00  0.00    -0.272 OA
ATOM      3  N   UNL     1       1.143   1.898   0.001  0.00  0.00    -0.276 N 
ATOM      4  H   UNL     1       1.130   2.868   0.007  0.00  0.00    +0.155 HD
ENDROOT
BRANCH   3   5
ATOM      5  C   UNL     1       2.355   1.221  -0.014  0.00  0.00    +0.090 A 
ATOM      6  C   UNL     1       3.636   1.748  -0.029  0.00  0.00    +0.084 A 
ATOM      7  C   UNL     1       4.753   0.814  -0.035  0.00  0.00    -0.018 A 
ATOM      8  C   UNL     1       4.404  -0.491  -0.043  0.00  0.00    -0.004 A 
ATOM      9  S   UNL     1       2.632  -0.489  -0.026  0.00  0.00    -0.077 S 
ATOM     10  C   UNL     1       5.311  -1.681  -0.076  0.00  0.00    +0.043 C 
ATOM     11  C   UNL     1       6.400  -1.518   0.993  0.00  0.00    +0.005 C 
ATOM     12  C   UNL     1       7.582  -0.782   0.369  0.00  0.00    +0.001 C 
ATOM     13  C   UNL     1       7.089   0.213  -0.679  0.00  0.00    +0.005 C 
ATOM     14  C   UNL     1       6.205   1.274  -0.032  0.00  0.00    +0.037 C 
BRANCH   6  15
ATOM     15  C   UNL     1       3.854   3.163  -0.034  0.00  0.00    +0.102 C 
ATOM     16  N   UNL     1       4.027   4.285  -0.039  0.00  0.00    -0.191 NA
ENDBRANCH   6  15
ENDBRANCH   3   5
BRANCH   1  17
ATOM     17  C   UNL     1      -1.330   1.944   0.019  0.00  0.00    +0.328 C 
BRANCH  17  18
ATOM     18  O   UNL     1      -2.420   0.986   0.019  0.00  0.00    -0.452 OA
BRANCH  18  19
ATOM     19  C   UNL     1      -3.672   1.484   0.028  0.00  0.00    +0.341 C 
ATOM     20  O   UNL     1      -3.848   2.686   0.035  0.00  0.00    -0.245 OA
BRANCH  19  23
ATOM     21  C   UNL     1      -5.719  -1.664   0.020  0.00  0.00    +0.002 A 
ATOM     22  C   UNL     1      -4.633  -0.814   0.020  0.00  0.00    +0.016 A 
ATOM     23  C   UNL     1      -4.831   0.569   0.028  0.00  0.00    +0.079 A 
ATOM     24  C   UNL     1      -6.131   1.082   0.043  0.00  0.00    +0.073 A 
ATOM     25  C   UNL     1      -7.210   0.218   0.036  0.00  0.00    +0.060 A 
ATOM     26  C   UNL     1      -7.004  -1.151   0.029  0.00  0.00    +0.021 A 
ATOM     27 CL   UNL     1      -8.826   0.851   0.046  0.00  0.00    -0.082 Cl
ATOM     28 CL   UNL     1      -6.389   2.798   0.061  0.00  0.00    -0.081 Cl
ENDBRANCH  19  23
ENDBRANCH  18  19
ENDBRANCH  17  18
ENDBRANCH   1  17
TORSDOF 6
