REMARK  Name = ZINC35400080
REMARK  9 active torsions:
REMARK  status: ('A' for Active; 'I' for Inactive)
REMARK    1  A    between atoms: C_1  and  C_2
REMARK    2  A    between atoms: C_3  and  S_8
REMARK    3  A    between atoms: C_4  and  C_7
REMARK    4  A    between atoms: S_8  and  N_11
REMARK    5  A    between atoms: N_14  and  C_17
REMARK    6  A    between atoms: C_17  and  C_18
REMARK    7  A    between atoms: C_18  and  C_19
REMARK    8  A    between atoms: N_21  and  C_22
REMARK    9  A    between atoms: C_23  and  C_32
REMARK                            x       y       z     vdW  Elec       q    Type
REMARK                         _______ _______ _______ _____ _____    ______ ____
ROOT
ATOM      1  C   UNL     1       5.702  -0.285  -2.578  0.00  0.00    +0.093 C 
ENDROOT
BRANCH   1   5
ATOM      2  N   UNL     1       1.570  -0.091  -3.285  0.00  0.00    -0.174 NA
ATOM      3  C   UNL     1       2.276   1.185  -3.096  0.00  0.00    +0.125 C 
ATOM      4  C   UNL     1       3.603   0.906  -2.383  0.00  0.00    +0.101 C 
ATOM      5  N   UNL     1       4.352  -0.113  -3.130  0.00  0.00    -0.299 NA
ATOM      6  C   UNL     1       3.628  -1.391  -3.159  0.00  0.00    +0.101 C 
ATOM      7  C   UNL     1       2.304  -1.208  -3.899  0.00  0.00    +0.125 C 
BRANCH   2   8
ATOM      8  S   UNL     1      -0.008  -0.267  -2.813  0.00  0.00    +0.066 S 
ATOM      9  O   UNL     1      -0.547  -1.328  -3.589  0.00  0.00    -0.153 OA
ATOM     10  O   UNL     1      -0.577   1.035  -2.802  0.00  0.00    -0.153 OA
BRANCH   8  13
ATOM     11  C   UNL     1      -0.018   1.503   0.010  0.00  0.00    +0.071 C 
ATOM     12  C   UNL     1       0.002  -0.004   0.002  0.00  0.00    +0.107 A 
ATOM     13  C   UNL     1       0.008  -0.824  -1.141  0.00  0.00    +0.170 A 
ATOM     14  C   UNL     1       0.027  -2.108  -0.735  0.00  0.00    +0.161 A 
ATOM     15  O   UNL     1       0.034  -2.119   0.606  0.00  0.00    -0.358 OA
ATOM     16  N   UNL     1       0.023  -0.775   1.052  0.00  0.00    -0.081 NA
ATOM     17  C   UNL     1       0.039  -3.320  -1.631  0.00  0.00    +0.091 C 
ENDBRANCH   8  13
ENDBRANCH   2   8
ENDBRANCH   1   5
BRANCH   1  18
ATOM     18  C   UNL     1       6.531  -1.160  -3.520  0.00  0.00    +0.111 C 
BRANCH  18  19
ATOM     19  C   UNL     1       7.916  -1.337  -2.953  0.00  0.00    +0.219 C 
ATOM     20  O   UNL     1       8.211  -0.815  -1.899  0.00  0.00    -0.275 OA
ATOM     21  N   UNL     1       8.827  -2.075  -3.618  0.00  0.00    -0.279 N 
ATOM     22  H   UNL     1       8.591  -2.493  -4.461  0.00  0.00    +0.155 HD
BRANCH  21  23
ATOM     23  C   UNL     1      10.103  -2.238  -3.096  0.00  0.00    +0.090 A 
ATOM     24  C   UNL     1      11.159  -2.950  -3.636  0.00  0.00    +0.084 A 
ATOM     25  C   UNL     1      12.408  -2.969  -2.888  0.00  0.00    -0.018 A 
ATOM     26  C   UNL     1      12.363  -2.273  -1.732  0.00  0.00    -0.004 A 
ATOM     27  S   UNL     1      10.721  -1.611  -1.667  0.00  0.00    -0.077 S 
ATOM     28  C   UNL     1      13.455  -2.106  -0.722  0.00  0.00    +0.043 C 
ATOM     29  C   UNL     1      14.747  -1.695  -1.442  0.00  0.00    +0.005 C 
ATOM     30  C   UNL     1      15.504  -2.958  -1.841  0.00  0.00    +0.001 C 
ATOM     31  C   UNL     1      14.522  -4.080  -2.175  0.00  0.00    +0.005 C 
ATOM     32  C   UNL     1      13.656  -3.693  -3.369  0.00  0.00    +0.037 C 
BRANCH  24  33
ATOM     33  C   UNL     1      11.029  -3.641  -4.883  0.00  0.00    +0.102 C 
ATOM     34  N   UNL     1      10.926  -4.190  -5.873  0.00  0.00    -0.191 NA
ENDBRANCH  24  33
ENDBRANCH  21  23
ENDBRANCH  18  19
ENDBRANCH   1  18
TORSDOF 7
