REMARK  Name = ZINC12885113
REMARK  6 active torsions:
REMARK  status: ('A' for Active; 'I' for Inactive)
REMARK    1  A    between atoms: C_1  and  C_2
REMARK    2  A    between atoms: C_16  and  C_18
REMARK    3  A    between atoms: C_18  and  C_19
REMARK    4  A    between atoms: N_27  and  C_30
REMARK    5  A    between atoms: C_30  and  C_31
REMARK    6  A    between atoms: C_31  and  C_32
REMARK                            x       y       z     vdW  Elec       q    Type
REMARK                         _______ _______ _______ _____ _____    ______ ____
ROOT
ATOM      1  C   UNL     1       5.706  -5.941   4.137  0.00  0.00    +0.046 C 
ATOM      2  C   UNL     1       4.678  -4.851   3.973  0.00  0.00    -0.028 A 
ATOM      3  C   UNL     1       4.990  -3.554   4.322  0.00  0.00    +0.025 A 
ATOM      4  C   UNL     1       4.053  -2.546   4.177  0.00  0.00    +0.042 A 
ATOM      5  C   UNL     1       2.796  -2.842   3.676  0.00  0.00    +0.024 A 
ATOM      6  C   UNL     1       2.482  -4.136   3.325  0.00  0.00    -0.026 A 
ATOM      7  C   UNL     1       3.417  -5.157   3.469  0.00  0.00    +0.039 A 
ATOM      8  N   UNL     1       2.870  -6.374   3.052  0.00  0.00    -0.286 N 
ATOM      9  C   UNL     1       1.600  -6.240   2.625  0.00  0.00    +0.211 C 
ATOM     10  O   UNL     1       0.880  -7.122   2.206  0.00  0.00    -0.277 OA
ATOM     11  C   UNL     1       1.247  -4.785   2.767  0.00  0.00    +0.050 C 
ATOM     12  C   UNL     1       0.849  -4.171   1.419  0.00  0.00    +0.088 C 
ATOM     13  C   UNL     1      -0.705  -4.191   1.423  0.00  0.00    +0.073 C 
ATOM     14  C   UNL     1      -1.089  -4.830   2.775  0.00  0.00    -0.053 C 
ATOM     15  C   UNL     1      -1.073  -2.725   1.446  0.00  0.00    +0.224 C 
ATOM     16  O   UNL     1      -2.203  -2.287   1.469  0.00  0.00    -0.275 OA
ATOM     17  N   UNL     1       0.043  -1.987   1.434  0.00  0.00    -0.241 N 
ATOM     18  C   UNL     1       1.178  -2.695   1.419  0.00  0.00    +0.225 C 
ATOM     19  O   UNL     1       2.296  -2.226   1.408  0.00  0.00    -0.275 OA
ATOM     20 CL   UNL     1       4.452  -0.915   4.619  0.00  0.00    -0.084 Cl
ATOM     21  H   UNL     1       3.350  -7.217   3.069  0.00  0.00    +0.155 HD
ATOM     22  N   UNL     1       0.086  -4.604   3.620  0.00  0.00    +0.394 N 
ATOM     23  H   UNL     1       0.071  -3.651   4.001  0.00  0.00    -0.083 HD
ATOM     24  H   UNL     1       0.104  -5.281   4.392  0.00  0.00    -0.083 HD
ENDROOT
BRANCH  14  25
ATOM     25  C   UNL     1      -2.331  -4.148   3.352  0.00  0.00    +0.020 C 
BRANCH  25  26
ATOM     26  C   UNL     1      -2.716  -4.817   4.646  0.00  0.00    -0.049 A 
ATOM     27  C   UNL     1      -3.595  -5.884   4.639  0.00  0.00    +0.003 A 
ATOM     28  C   UNL     1      -3.944  -6.500   5.826  0.00  0.00    +0.000 A 
ATOM     29  C   UNL     1      -3.422  -6.044   7.021  0.00  0.00    +0.000 A 
ATOM     30  C   UNL     1      -2.546  -4.974   7.029  0.00  0.00    +0.000 A 
ATOM     31  C   UNL     1      -2.193  -4.361   5.842  0.00  0.00    +0.003 A 
ENDBRANCH  25  26
ENDBRANCH  14  25
BRANCH  17  32
ATOM     32  C   UNL     1       0.023  -0.522   1.442  0.00  0.00    +0.121 C 
BRANCH  32  33
ATOM     33  C   UNL     1       0.002  -0.004   0.002  0.00  0.00    +0.054 C 
BRANCH  33  34
ATOM     34  C   UNL     1      -0.018   1.503   0.010  0.00  0.00    -0.046 A 
ATOM     35  C   UNL     1      -1.225   2.178   0.020  0.00  0.00    +0.004 A 
ATOM     36  C   UNL     1      -1.244   3.560   0.032  0.00  0.00    +0.000 A 
ATOM     37  C   UNL     1      -0.056   4.267   0.025  0.00  0.00    +0.000 A 
ATOM     38  C   UNL     1       1.151   3.592   0.010  0.00  0.00    +0.000 A 
ATOM     39  C   UNL     1       1.169   2.210   0.003  0.00  0.00    +0.004 A 
ENDBRANCH  33  34
ENDBRANCH  32  33
ENDBRANCH  17  32
TORSDOF 5
