REMARK  Name = ZINC01184060
REMARK  6 active torsions:
REMARK  status: ('A' for Active; 'I' for Inactive)
REMARK    1  A    between atoms: C_1  and  C_2
REMARK    2  A    between atoms: C_3  and  C_20
REMARK    3  A    between atoms: C_4  and  C_10
REMARK    4  A    between atoms: C_14  and  N_16
REMARK    5  A    between atoms: C_20  and  O_22
REMARK    6  A    between atoms: O_22  and  C_23
REMARK                            x       y       z     vdW  Elec       q    Type
REMARK                         _______ _______ _______ _____ _____    ______ ____
ROOT
ATOM      1  C   UNL     1      -3.595   1.471   3.076  0.00  0.00    +0.061 C 
ATOM      2  C   UNL     1      -3.054   1.532   1.671  0.00  0.00    +0.021 C 
ATOM      3  C   UNL     1      -1.969   2.292   1.409  0.00  0.00    +0.078 C 
ATOM      4  C   UNL     1      -1.459   2.325  -0.018  0.00  0.00    +0.144 C 
ATOM      5  N   UNL     1      -2.193   1.519  -1.008  0.00  0.00    -0.288 N 
ATOM      6  C   UNL     1      -3.261   0.810  -0.593  0.00  0.00    +0.304 C 
ATOM      7  O   UNL     1      -3.874   0.141  -1.402  0.00  0.00    -0.252 OA
ATOM      8  N   UNL     1      -3.670   0.818   0.683  0.00  0.00    -0.273 N 
ATOM      9  H   UNL     1      -1.915   1.499  -1.937  0.00  0.00    +0.151 HD
ATOM     10  H   UNL     1      -4.446   0.286   0.918  0.00  0.00    +0.156 HD
ENDROOT
BRANCH   4  11
ATOM     11  C   UNL     1      -0.026   1.858  -0.009  0.00  0.00    -0.020 A 
ATOM     12  C   UNL     1       0.260   0.506   0.045  0.00  0.00    +0.007 A 
ATOM     13  C   UNL     1       1.574   0.077   0.048  0.00  0.00    +0.018 A 
ATOM     14  C   UNL     1       2.603   1.000  -0.005  0.00  0.00    +0.048 A 
ATOM     15  C   UNL     1       2.316   2.352  -0.061  0.00  0.00    +0.140 A 
ATOM     16  C   UNL     1       1.002   2.780  -0.063  0.00  0.00    +0.039 A 
ATOM     17 BR   UNL     1       4.400   0.414  -0.002  0.00  0.00    -0.048 Br
BRANCH  15  18
ATOM     18  N   UNL     1       3.417   3.340  -0.118  0.00  0.00    +0.058 N 
ATOM     19  O   UNL     1       3.164   4.531  -0.167  0.00  0.00    -0.126 OA
ATOM     20  O   UNL     1       4.575   2.963  -0.116  0.00  0.00    -0.126 OA
ENDBRANCH  15  18
ENDBRANCH   4  11
BRANCH   3  21
ATOM     21  C   UNL     1      -1.331   3.033   2.431  0.00  0.00    +0.338 C 
ATOM     22  O   UNL     1      -1.822   3.083   3.543  0.00  0.00    -0.245 OA
BRANCH  21  23
ATOM     23  O   UNL     1      -0.178   3.684   2.173  0.00  0.00    -0.465 OA
ATOM     24  C   UNL     1       0.412   4.412   3.252  0.00  0.00    +0.280 C 
ENDBRANCH  21  23
ENDBRANCH   3  21
TORSDOF 4
