REMARK  Name = ZINC62874417
REMARK  6 active torsions:
REMARK  status: ('A' for Active; 'I' for Inactive)
REMARK    1  A    between atoms: C_1  and  C_2
REMARK    2  A    between atoms: C_2  and  C_19
REMARK    3  A    between atoms: N_11  and  C_15
REMARK    4  A    between atoms: C_15  and  C_16
REMARK    5  A    between atoms: C_15  and  C_17
REMARK    6  A    between atoms: C_15  and  C_18
REMARK                            x       y       z     vdW  Elec       q    Type
REMARK                         _______ _______ _______ _____ _____    ______ ____
ROOT
ATOM      1  C   UNL     1      -0.133   1.447   0.130  0.00  0.00    +0.024 C 
ATOM      2  C   UNL     1      -0.038  -0.079   0.076  0.00  0.00    +0.085 C 
ATOM      3  C   UNL     1       0.662  -0.502  -1.218  0.00  0.00    +0.021 C 
ATOM      4  C   UNL     1       2.056   0.126  -1.274  0.00  0.00    +0.020 C 
ATOM      5  C   UNL     1       2.886  -0.376  -0.089  0.00  0.00    +0.106 C 
ATOM      6  N   UNL     1       2.151  -0.103   1.154  0.00  0.00    -0.311 N 
ATOM      7  C   UNL     1       0.768  -0.584   1.277  0.00  0.00    +0.124 C 
ATOM      8  C   UNL     1       2.752   0.597   2.192  0.00  0.00    +0.165 A 
ATOM      9  C   UNL     1       4.184   0.913   2.145  0.00  0.00    +0.290 A 
ATOM     10  O   UNL     1       4.869   0.569   1.196  0.00  0.00    -0.264 OA
ATOM     11  N   UNL     1       4.726   1.597   3.178  0.00  0.00    -0.306 N 
ATOM     12  C   UNL     1       3.929   1.965   4.221  0.00  0.00    +0.107 A 
ATOM     13  C   UNL     1       2.615   1.657   4.231  0.00  0.00    +0.102 A 
ATOM     14  N   UNL     1       2.043   0.990   3.229  0.00  0.00    -0.344 N 
ATOM     15  H   UNL     1       1.095   0.788   3.266  0.00  0.00    +0.167 HD
ENDROOT
BRANCH  11  16
ATOM     16  C   UNL     1       6.151   1.935   3.177  0.00  0.00    +0.040 C 
ATOM     17  C   UNL     1       6.467   2.806   1.960  0.00  0.00    +0.034 C 
ATOM     18  C   UNL     1       6.494   2.703   4.456  0.00  0.00    +0.034 C 
ATOM     19  C   UNL     1       6.981   0.651   3.115  0.00  0.00    +0.034 C 
ENDBRANCH  11  16
BRANCH   2  20
ATOM     20  C   UNL     1      -1.423  -0.671   0.116  0.00  0.00    +0.363 C 
ATOM     21  O   UNL     1      -2.229  -0.396  -0.757  0.00  0.00    -0.246 OA
ATOM     22  O   UNL     1      -1.738  -1.426   1.020  0.00  0.00    -0.246 OA
ENDBRANCH   2  20
TORSDOF 2
