REMARK  Name = ZINC05371217
REMARK  7 active torsions:
REMARK  status: ('A' for Active; 'I' for Inactive)
REMARK    1  A    between atoms: C_1  and  C_2
REMARK    2  A    between atoms: C_2  and  C_4
REMARK    3  A    between atoms: C_2  and  N_25
REMARK    4  A    between atoms: C_4  and  C_5
REMARK    5  A    between atoms: C_5  and  N_7
REMARK    6  A    between atoms: C_5  and  N_16
REMARK    7  A    between atoms: C_8  and  C_10
REMARK                            x       y       z     vdW  Elec       q    Type
REMARK                         _______ _______ _______ _____ _____    ______ ____
ROOT
ATOM      1  C   UNL     1       6.132  -0.704  -0.059  0.00  0.00    +0.197 C 
ENDROOT
BRANCH   1   2
ATOM      2  N   UNL     1       6.487  -1.040  -1.440  0.00  0.00    -0.227 N 
ATOM      3  C   UNL     1       6.956  -2.216  -1.864  0.00  0.00    +0.069 A 
ATOM      4  C   UNL     1       7.151  -2.085  -3.221  0.00  0.00    +0.108 A 
ATOM      5  N   UNL     1       6.797  -0.845  -3.535  0.00  0.00    -0.130 NA
ATOM      6  N   UNL     1       6.407  -0.246  -2.458  0.00  0.00    -0.063 NA
ATOM      7  C   UNL     1       7.671  -3.213  -4.020  0.00  0.00    +0.027 C 
ATOM      8  C   UNL     1       7.614  -4.423  -3.468  0.00  0.00    -0.024 C 
ATOM      9  C   UNL     1       7.019  -4.670  -2.115  0.00  0.00    +0.033 C 
ATOM     10  C   UNL     1       7.244  -3.506  -1.148  0.00  0.00    +0.061 C 
ENDBRANCH   1   2
BRANCH   1  11
ATOM     11  N   UNL     1       4.852   0.008  -0.044  0.00  0.00    -0.289 N 
ATOM     12  C   UNL     1       3.696  -0.685  -0.036  0.00  0.00    +0.246 C 
ATOM     13  O   UNL     1       3.715  -1.900  -0.043  0.00  0.00    -0.270 OA
ATOM     14  H   UNL     1       4.836   0.978  -0.039  0.00  0.00    +0.151 HD
BRANCH  12  15
ATOM     15  C   UNL     1       2.403   0.034  -0.021  0.00  0.00    +0.037 A 
ATOM     16  C   UNL     1       1.204  -0.681  -0.013  0.00  0.00    +0.013 A 
ATOM     17  C   UNL     1       0.002  -0.004   0.002  0.00  0.00    +0.001 A 
ATOM     18  C   UNL     1      -0.017   1.379   0.010  0.00  0.00    +0.000 A 
ATOM     19  C   UNL     1       1.168   2.094   0.002  0.00  0.00    +0.001 A 
ATOM     20  C   UNL     1       2.377   1.429  -0.013  0.00  0.00    +0.013 A 
ENDBRANCH  12  15
ENDBRANCH   1  11
BRANCH   1  21
ATOM     21  C   UNL     1       7.219   0.188   0.545  0.00  0.00    +0.073 C 
BRANCH  21  23
ATOM     22  C   UNL     1       6.998  -0.885   2.791  0.00  0.00    +0.033 C 
ATOM     23  C   UNL     1       6.911   0.436   2.023  0.00  0.00    +0.110 C 
BRANCH  23  24
ATOM     24  N   UNL     1       7.884   1.385   2.571  0.00  0.00    -0.241 N 
ATOM     25  C   UNL     1       7.612   2.611   3.130  0.00  0.00    +0.089 A 
ATOM     26  C   UNL     1       6.444   3.331   3.359  0.00  0.00    +0.029 A 
ATOM     27  C   UNL     1       6.510   4.560   3.953  0.00  0.00    +0.002 A 
ATOM     28  C   UNL     1       7.734   5.098   4.330  0.00  0.00    +0.002 A 
ATOM     29  C   UNL     1       8.893   4.412   4.117  0.00  0.00    +0.032 A 
ATOM     30  C   UNL     1       8.853   3.150   3.510  0.00  0.00    +0.113 A 
ATOM     31  N   UNL     1       9.806   2.256   3.178  0.00  0.00    -0.129 NA
ATOM     32  N   UNL     1       9.275   1.218   2.635  0.00  0.00    -0.064 NA
ENDBRANCH  23  24
ENDBRANCH  21  23
ENDBRANCH   1  21
TORSDOF 6
