REMARK  Name = ZINC20232919
REMARK  10 active torsions:
REMARK  status: ('A' for Active; 'I' for Inactive)
REMARK    1  A    between atoms: C_1  and  C_2
REMARK    2  A    between atoms: C_12  and  C_14
REMARK    3  A    between atoms: C_14  and  C_16
REMARK    4  A    between atoms: C_14  and  N_20
REMARK    5  A    between atoms: C_16  and  C_17
REMARK    6  A    between atoms: C_17  and  C_18
REMARK    7  A    between atoms: C_17  and  C_19
REMARK    8  A    between atoms: N_20  and  S_21
REMARK    9  A    between atoms: S_21  and  C_24
REMARK   10  A    between atoms: C_33  and  C_35
REMARK                            x       y       z     vdW  Elec       q    Type
REMARK                         _______ _______ _______ _____ _____    ______ ____
ROOT
ATOM      1  C   UNL     1       1.039   1.837   0.482  0.00  0.00    +0.163 C 
ENDROOT
BRANCH   1  13
ATOM      2  C   UNL     1      -8.324   0.457  -2.830  0.00  0.00    +0.044 C 
ATOM      3  C   UNL     1      -6.889   0.533  -2.376  0.00  0.00    -0.049 A 
ATOM      4  C   UNL     1      -6.039  -0.549  -2.554  0.00  0.00    +0.005 A 
ATOM      5  C   UNL     1      -4.730  -0.505  -2.150  0.00  0.00    +0.029 A 
ATOM      6  C   UNL     1      -4.202   0.653  -1.534  0.00  0.00    +0.080 A 
ATOM      7  C   UNL     1      -5.097   1.734  -1.368  0.00  0.00    +0.041 A 
ATOM      8  C   UNL     1      -6.407   1.682  -1.776  0.00  0.00    +0.020 A 
ATOM      9  S   UNL     1      -4.076   2.951  -0.572  0.00  0.00    -0.052 S 
ATOM     10  C   UNL     1      -2.574   1.985  -0.521  0.00  0.00    +0.165 A 
ATOM     11  N   UNL     1      -2.947   0.858  -1.080  0.00  0.00    -0.225 NA
ATOM     12  N   UNL     1      -1.333   2.334  -0.015  0.00  0.00    -0.263 N 
ATOM     13  C   UNL     1      -0.313   1.455  -0.063  0.00  0.00    +0.237 C 
ATOM     14  O   UNL     1      -0.481   0.357  -0.551  0.00  0.00    -0.274 OA
ATOM     15  H   UNL     1      -1.179   3.330   0.428  0.00  0.00    +0.157 HD
ENDBRANCH   1  13
BRANCH   1  16
ATOM     16  N   UNL     1       1.970   0.720   0.306  0.00  0.00    -0.178 NA
ATOM     17  H   UNL     1       2.143   0.013   1.131  0.00  0.00    +0.149 HD
BRANCH  16  18
ATOM     18  S   UNL     1       2.947   0.658  -1.030  0.00  0.00    +0.059 S 
ATOM     19  O   UNL     1       3.771  -0.489  -0.878  0.00  0.00    -0.153 OA
ATOM     20  O   UNL     1       2.103   0.846  -2.158  0.00  0.00    -0.153 OA
BRANCH  18  21
ATOM     21  C   UNL     1       4.014   2.058  -0.960  0.00  0.00    +0.106 A 
ATOM     22  C   UNL     1       3.626   3.255  -1.534  0.00  0.00    +0.030 A 
ATOM     23  C   UNL     1       4.457   4.354  -1.476  0.00  0.00    +0.026 A 
ATOM     24  C   UNL     1       5.701   4.263  -0.849  0.00  0.00    +0.040 A 
ATOM     25  C   UNL     1       6.083   3.058  -0.282  0.00  0.00    -0.023 A 
ATOM     26  C   UNL     1       5.245   1.961  -0.337  0.00  0.00    +0.034 A 
ATOM     27  C   UNL     1       7.458   3.226   0.325  0.00  0.00    +0.056 C 
ATOM     28  C   UNL     1       7.831   4.690   0.040  0.00  0.00    +0.118 C 
ATOM     29  N   UNL     1       6.685   5.244  -0.687  0.00  0.00    -0.271 N 
ATOM     30  C   UNL     1       6.593   6.512  -1.133  0.00  0.00    +0.217 C 
ATOM     31  O   UNL     1       5.600   6.876  -1.726  0.00  0.00    -0.276 OA
ATOM     32  C   UNL     1       7.725   7.478  -0.896  0.00  0.00    +0.109 C 
ENDBRANCH  18  21
ENDBRANCH  16  18
ENDBRANCH   1  16
BRANCH   1  33
ATOM     33  C   UNL     1       0.914   2.167   1.971  0.00  0.00    +0.032 C 
BRANCH  33  34
ATOM     34  C   UNL     1       2.254   2.689   2.492  0.00  0.00    -0.015 C 
ATOM     35  C   UNL     1       2.568   4.034   1.835  0.00  0.00    +0.007 C 
ATOM     36  C   UNL     1       2.176   2.869   4.010  0.00  0.00    +0.007 C 
ENDBRANCH  33  34
ENDBRANCH   1  33
TORSDOF 6
