REMARK  Name = ZINC39894122
REMARK  13 active torsions:
REMARK  status: ('A' for Active; 'I' for Inactive)
REMARK    1  A    between atoms: C_1  and  C_2
REMARK    2  A    between atoms: C_5  and  C_33
REMARK    3  A    between atoms: C_6  and  N_8
REMARK    4  A    between atoms: N_8  and  C_9
REMARK    5  A    between atoms: C_11  and  C_32
REMARK    6  A    between atoms: C_12  and  C_30
REMARK    7  A    between atoms: N_15  and  C_18
REMARK    8  A    between atoms: C_18  and  C_19
REMARK    9  A    between atoms: C_19  and  C_20
REMARK   10  A    between atoms: C_23  and  O_28
REMARK   11  A    between atoms: C_24  and  O_26
REMARK   12  A    between atoms: O_26  and  C_27
REMARK   13  A    between atoms: O_28  and  C_29
REMARK                            x       y       z     vdW  Elec       q    Type
REMARK                         _______ _______ _______ _____ _____    ______ ____
ROOT
ATOM      1  C   UNL     1      -0.043  -2.136   3.554  0.00  0.00    +0.085 C 
ATOM      2  C   UNL     1      -0.088  -2.836   4.756  0.00  0.00    +0.055 C 
ATOM      3  C   UNL     1      -0.020  -4.247   4.764  0.00  0.00    -0.015 C 
ATOM      4  C   UNL     1      -0.067  -4.910   5.982  0.00  0.00    +0.118 C 
ATOM      5  C   UNL     1      -0.186  -4.139   7.220  0.00  0.00    +0.264 C 
ATOM      6  O   UNL     1      -0.228  -4.721   8.289  0.00  0.00    -0.269 OA
ATOM      7  N   UNL     1      -0.250  -2.797   7.192  0.00  0.00    -0.233 N 
ATOM      8  C   UNL     1      -0.202  -2.118   6.032  0.00  0.00    +0.255 C 
ATOM      9  O   UNL     1      -0.257  -0.902   6.039  0.00  0.00    -0.269 OA
ATOM     10  C   UNL     1       0.102  -5.018   3.474  0.00  0.00    +0.046 C 
ENDROOT
BRANCH   1  11
ATOM     11  N   UNL     1       0.326  -2.764   2.422  0.00  0.00    -0.320 N 
ATOM     12  H   UNL     1       0.504  -3.717   2.433  0.00  0.00    +0.152 HD
BRANCH  11  18
ATOM     13  C   UNL     1       0.048   1.515   0.019  0.00  0.00    +0.044 C 
ATOM     14  C   UNL     1       0.324   0.033   0.038  0.00  0.00    -0.049 A 
ATOM     15  C   UNL     1       0.703  -0.614  -1.124  0.00  0.00    +0.004 A 
ATOM     16  C   UNL     1       0.957  -1.973  -1.111  0.00  0.00    +0.005 A 
ATOM     17  C   UNL     1       0.833  -2.689   0.064  0.00  0.00    -0.029 A 
ATOM     18  C   UNL     1       0.453  -2.042   1.233  0.00  0.00    +0.034 A 
ATOM     19  C   UNL     1       0.203  -0.675   1.217  0.00  0.00    +0.026 A 
ATOM     20  C   UNL     1       1.110  -4.170   0.077  0.00  0.00    +0.045 C 
ENDBRANCH  11  18
ENDBRANCH   1  11
BRANCH   4  21
ATOM     21  C   UNL     1      -0.000  -6.340   6.027  0.00  0.00    +0.105 C 
ATOM     22  N   UNL     1       0.052  -7.474   6.063  0.00  0.00    -0.191 NA
ENDBRANCH   4  21
BRANCH   7  23
ATOM     23  C   UNL     1      -0.369  -2.057   8.451  0.00  0.00    +0.121 C 
BRANCH  23  24
ATOM     24  C   UNL     1       1.027  -1.730   8.985  0.00  0.00    +0.054 C 
BRANCH  24  25
ATOM     25  C   UNL     1       0.905  -0.970  10.280  0.00  0.00    -0.042 A 
ATOM     26  C   UNL     1       0.833   0.411  10.265  0.00  0.00    +0.007 A 
ATOM     27  C   UNL     1       0.720   1.113  11.451  0.00  0.00    +0.049 A 
ATOM     28  C   UNL     1       0.679   0.433  12.657  0.00  0.00    +0.161 A 
ATOM     29  C   UNL     1       0.751  -0.957  12.672  0.00  0.00    +0.162 A 
ATOM     30  C   UNL     1       0.859  -1.654  11.480  0.00  0.00    +0.053 A 
BRANCH  29  31
ATOM     31  O   UNL     1       0.711  -1.628  13.854  0.00  0.00    -0.491 OA
ATOM     32  C   UNL     1       0.790  -3.054  13.793  0.00  0.00    +0.277 C 
ENDBRANCH  29  31
BRANCH  28  33
ATOM     33  O   UNL     1       0.569   1.122  13.824  0.00  0.00    -0.491 OA
ATOM     34  C   UNL     1       0.500   2.547  13.733  0.00  0.00    +0.277 C 
ENDBRANCH  28  33
ENDBRANCH  24  25
ENDBRANCH  23  24
ENDBRANCH   7  23
TORSDOF 8
