REMARK  Name = ZINC09725552
REMARK  8 active torsions:
REMARK  status: ('A' for Active; 'I' for Inactive)
REMARK    1  A    between atoms: C_2  and  C_3
REMARK    2  A    between atoms: C_3  and  N_4
REMARK    3  A    between atoms: C_8  and  S_29
REMARK    4  A    between atoms: N_13  and  C_14
REMARK    5  A    between atoms: C_14  and  C_16
REMARK    6  A    between atoms: C_19  and  C_22
REMARK    7  A    between atoms: C_22  and  C_23
REMARK    8  A    between atoms: S_29  and  N_32
REMARK                            x       y       z     vdW  Elec       q    Type
REMARK                         _______ _______ _______ _____ _____    ______ ____
ROOT
ATOM      1  N   UNL     1      -1.980   3.706  -1.100  0.00  0.00    -0.317 N 
ATOM      2  C   UNL     1      -1.381   3.956  -2.320  0.00  0.00    +0.058 A 
ATOM      3  C   UNL     1      -0.032   3.798  -2.676  0.00  0.00    +0.029 A 
ATOM      4  C   UNL     1       0.398   4.091  -3.949  0.00  0.00    +0.030 A 
ATOM      5  C   UNL     1      -0.482   4.544  -4.917  0.00  0.00    +0.106 A 
ATOM      6  C   UNL     1      -1.818   4.703  -4.595  0.00  0.00    +0.045 A 
ATOM      7  C   UNL     1      -2.249   4.411  -3.323  0.00  0.00    +0.041 A 
ATOM      8  S   UNL     1      -3.822   4.470  -2.503  0.00  0.00    -0.052 S 
ATOM      9  C   UNL     1      -3.315   3.914  -0.941  0.00  0.00    +0.167 A 
ATOM     10  N   UNL     1      -4.053   3.734   0.149  0.00  0.00    -0.152 NA
ENDROOT
BRANCH   5  11
ATOM     11  S   UNL     1       0.093   4.912  -6.542  0.00  0.00    +0.056 S 
ATOM     12  O   UNL     1       1.283   4.158  -6.732  0.00  0.00    -0.153 OA
ATOM     13  O   UNL     1      -1.029   4.796  -7.406  0.00  0.00    -0.153 OA
BRANCH  11  14
ATOM     14  N   UNL     1       0.537   6.507  -6.554  0.00  0.00    -0.204 NA
ATOM     15  H   UNL     1       1.245   6.809  -7.144  0.00  0.00    +0.144 HD
ATOM     16  H   UNL     1       0.089   7.140  -5.971  0.00  0.00    +0.144 HD
ENDBRANCH  11  14
ENDBRANCH   5  11
BRANCH  10  17
ATOM     17  C   UNL     1      -5.364   3.993   0.119  0.00  0.00    +0.269 C 
ATOM     18  O   UNL     1      -5.883   4.394  -0.908  0.00  0.00    -0.268 OA
BRANCH  17  19
ATOM     19  C   UNL     1      -6.187   3.792   1.335  0.00  0.00    +0.039 A 
ATOM     20  C   UNL     1      -5.598   3.327   2.510  0.00  0.00    +0.013 A 
ATOM     21  C   UNL     1      -6.369   3.146   3.640  0.00  0.00    +0.005 A 
ATOM     22  C   UNL     1      -7.725   3.416   3.606  0.00  0.00    -0.043 A 
ATOM     23  C   UNL     1      -8.316   3.872   2.441  0.00  0.00    +0.005 A 
ATOM     24  C   UNL     1      -7.555   4.061   1.306  0.00  0.00    +0.013 A 
BRANCH  22  25
ATOM     25  C   UNL     1      -8.562   3.211   4.842  0.00  0.00    +0.070 C 
BRANCH  25  26
ATOM     26  C   UNL     1      -9.097   1.802   4.859  0.00  0.00    -0.043 A 
ATOM     27  C   UNL     1     -10.317   1.519   4.274  0.00  0.00    +0.004 A 
ATOM     28  C   UNL     1     -10.805   0.226   4.284  0.00  0.00    +0.000 A 
ATOM     29  C   UNL     1     -10.079  -0.782   4.891  0.00  0.00    +0.000 A 
ATOM     30  C   UNL     1      -8.861  -0.498   5.481  0.00  0.00    +0.000 A 
ATOM     31  C   UNL     1      -8.370   0.794   5.465  0.00  0.00    +0.004 A 
ENDBRANCH  25  26
ENDBRANCH  22  25
ENDBRANCH  17  19
ENDBRANCH  10  17
BRANCH   1  32
ATOM     32  C   UNL     1      -1.176   3.222   0.025  0.00  0.00    +0.151 C 
BRANCH  32  34
ATOM     33  C   UNL     1      -0.013   1.076   0.008  0.00  0.00    +0.005 C 
ATOM     34  C   UNL     1      -1.156   1.715   0.017  0.00  0.00    -0.013 C 
ENDBRANCH  32  34
ENDBRANCH   1  32
TORSDOF 8
