REMARK  Name = ZINC63269082
REMARK  5 active torsions:
REMARK  status: ('A' for Active; 'I' for Inactive)
REMARK    1  A    between atoms: C_1  and  C_2
REMARK    2  A    between atoms: C_2  and  C_3
REMARK    3  A    between atoms: C_2  and  N_4
REMARK    4  A    between atoms: N_7  and  N_8
REMARK    5  A    between atoms: C_9  and  C_11
REMARK                            x       y       z     vdW  Elec       q    Type
REMARK                         _______ _______ _______ _____ _____    ______ ____
ROOT
ATOM      1  N   UNL     1      -3.940  -1.414   0.052  0.00  0.00    -0.228 N 
ATOM      2  C   UNL     1      -5.205  -1.881   0.061  0.00  0.00    +0.278 C 
ATOM      3  O   UNL     1      -5.449  -2.985  -0.388  0.00  0.00    -0.267 OA
ATOM      4  H   UNL     1      -3.745  -0.534   0.409  0.00  0.00    +0.173 HD
ENDROOT
BRANCH   2   5
ATOM      5  C   UNL     1      -6.288  -1.056   0.614  0.00  0.00    +0.123 A 
ATOM      6  C   UNL     1      -7.597  -1.418   0.684  0.00  0.00    +0.078 A 
ATOM      7  C   UNL     1      -8.308  -0.347   1.280  0.00  0.00    +0.020 A 
ATOM      8  C   UNL     1      -9.657  -0.150   1.603  0.00  0.00    +0.031 A 
ATOM      9  C   UNL     1     -10.053   1.019   2.187  0.00  0.00    +0.042 A 
ATOM     10  C   UNL     1      -9.128   2.019   2.464  0.00  0.00    +0.022 A 
ATOM     11  C   UNL     1      -7.797   1.849   2.156  0.00  0.00    +0.028 A 
ATOM     12  C   UNL     1      -7.370   0.665   1.561  0.00  0.00    +0.049 A 
ATOM     13  N   UNL     1      -6.138   0.210   1.151  0.00  0.00    -0.349 N 
ATOM     14  H   UNL     1      -5.303   0.697   1.224  0.00  0.00    +0.166 HD
ATOM     15 CL   UNL     1     -11.725   1.259   2.585  0.00  0.00    -0.084 Cl
ATOM     16 CL   UNL     1      -8.275  -2.921   0.141  0.00  0.00    -0.081 Cl
ENDBRANCH   2   5
BRANCH   1  20
ATOM     17  N   UNL     1      -1.372  -0.511   0.012  0.00  0.00    -0.296 N 
ATOM     18  C   UNL     1      -1.643  -1.734  -0.485  0.00  0.00    +0.316 C 
ATOM     19  O   UNL     1      -0.747  -2.417  -0.942  0.00  0.00    -0.251 OA
ATOM     20  N   UNL     1      -2.908  -2.201  -0.475  0.00  0.00    -0.218 N 
ATOM     21  H   UNL     1      -2.087   0.033   0.377  0.00  0.00    +0.151 HD
ATOM     22  H   UNL     1      -3.103  -3.081  -0.833  0.00  0.00    +0.174 HD
BRANCH  17  24
ATOM     23  C   UNL     1      -0.019   1.526   0.010  0.00  0.00    +0.027 C 
ATOM     24  C   UNL     1       0.002  -0.004   0.002  0.00  0.00    +0.068 C 
ATOM     25  C   UNL     1       0.742  -0.511   1.242  0.00  0.00    +0.027 C 
ENDBRANCH  17  24
ENDBRANCH   1  20
TORSDOF 3
