REMARK  Name = ZINC23192018
REMARK  7 active torsions:
REMARK  status: ('A' for Active; 'I' for Inactive)
REMARK    1  A    between atoms: C_1  and  C_2
REMARK    2  A    between atoms: C_2  and  N_3
REMARK    3  A    between atoms: C_6  and  C_8
REMARK    4  A    between atoms: C_17  and  N_21
REMARK    5  A    between atoms: N_21  and  C_22
REMARK    6  A    between atoms: C_22  and  C_23
REMARK    7  A    between atoms: C_23  and  N_30
REMARK                            x       y       z     vdW  Elec       q    Type
REMARK                         _______ _______ _______ _____ _____    ______ ____
ROOT
ATOM      1  N   UNL     1      -2.225  -1.229  -0.650  0.00  0.00    -0.268 N 
ATOM      2  C   UNL     1      -2.845  -1.332   0.537  0.00  0.00    +0.043 A 
ATOM      3  C   UNL     1      -4.169  -1.485   0.286  0.00  0.00    +0.004 A 
ATOM      4  C   UNL     1      -4.302  -1.466  -1.112  0.00  0.00    +0.151 A 
ATOM      5  N   UNL     1      -3.086  -1.303  -1.606  0.00  0.00    -0.166 NA
ATOM      6  C   UNL     1      -5.226  -1.642   1.344  0.00  0.00    +0.023 C 
ATOM      7  C   UNL     1      -4.536  -2.003   2.666  0.00  0.00    -0.067 C 
ATOM      8  C   UNL     1      -3.384  -1.028   2.924  0.00  0.00    -0.009 C 
ATOM      9  C   UNL     1      -2.252  -1.290   1.922  0.00  0.00    +0.054 C 
ENDROOT
BRANCH   4  10
ATOM     10  C   UNL     1      -5.556  -1.596  -1.881  0.00  0.00    +0.267 C 
ATOM     11  O   UNL     1      -6.599  -1.841  -1.307  0.00  0.00    -0.268 OA
ATOM     12  N   UNL     1      -5.544  -1.442  -3.220  0.00  0.00    -0.295 N 
ATOM     13  C   UNL     1      -4.269  -1.267  -3.917  0.00  0.00    +0.119 C 
ATOM     14  C   UNL     1      -4.012  -2.475  -4.825  0.00  0.00    +0.088 C 
ATOM     15  S   UNL     1      -5.408  -2.643  -5.977  0.00  0.00    -0.158 S 
ATOM     16  C   UNL     1      -6.853  -2.684  -4.874  0.00  0.00    +0.088 C 
ATOM     17  C   UNL     1      -6.807  -1.460  -3.961  0.00  0.00    +0.119 C 
ENDBRANCH   4  10
BRANCH   7  18
ATOM     18  N   UNL     1      -5.506  -1.916   3.765  0.00  0.00    +0.382 N 
ATOM     19  H   UNL     1      -5.791  -0.956   3.887  0.00  0.00    -0.085 HD
ATOM     20  H   UNL     1      -6.313  -2.481   3.547  0.00  0.00    -0.085 HD
BRANCH  18  21
ATOM     21  C   UNL     1      -4.887  -2.404   5.005  0.00  0.00    -0.060 C 
BRANCH  21  22
ATOM     22  C   UNL     1      -5.883  -2.273   6.159  0.00  0.00    +0.007 C 
ATOM     23  C   UNL     1      -5.138  -2.091   7.453  0.00  0.00    +0.020 C 
ATOM     24  C   UNL     1      -3.719  -2.690   7.405  0.00  0.00    +0.002 C 
ATOM     25  C   UNL     1      -3.671  -4.057   6.697  0.00  0.00    +0.000 C 
ATOM     26  C   UNL     1      -4.828  -4.942   7.074  0.00  0.00    +0.000 C 
ATOM     27  C   UNL     1      -5.946  -4.760   6.028  0.00  0.00    +0.002 C 
ATOM     28  C   UNL     1      -6.732  -3.557   6.258  0.00  0.00    +0.020 C 
BRANCH  22  29
ATOM     29  N   UNL     1      -6.761  -1.119   5.924  0.00  0.00    -0.294 NA
ATOM     30  C   UNL     1      -5.995   0.136   5.932  0.00  0.00    +0.113 C 
ATOM     31  C   UNL     1      -6.936   1.304   5.625  0.00  0.00    +0.175 C 
ATOM     32  O   UNL     1      -8.002   1.315   6.579  0.00  0.00    -0.377 OA
ATOM     33  C   UNL     1      -8.769   0.108   6.598  0.00  0.00    +0.175 C 
ATOM     34  C   UNL     1      -7.847  -1.072   6.914  0.00  0.00    +0.113 C 
ENDBRANCH  22  29
ENDBRANCH  21  22
ENDBRANCH  18  21
ENDBRANCH   7  18
BRANCH   1  36
ATOM     35  C   UNL     1      -0.449   0.440  -0.852  0.00  0.00    +0.029 C 
ATOM     36  C   UNL     1      -0.782  -1.053  -0.831  0.00  0.00    +0.140 C 
ENDBRANCH   1  36
TORSDOF 6
