REMARK  Name = ZINC35665084
REMARK  9 active torsions:
REMARK  status: ('A' for Active; 'I' for Inactive)
REMARK    1  A    between atoms: C_1  and  C_2
REMARK    2  A    between atoms: C_2  and  C_3
REMARK    3  A    between atoms: C_7  and  C_19
REMARK    4  A    between atoms: N_9  and  C_12
REMARK    5  A    between atoms: C_15  and  C_18
REMARK    6  A    between atoms: N_20  and  C_21
REMARK    7  A    between atoms: C_24  and  N_27
REMARK    8  A    between atoms: C_28  and  C_30
REMARK    9  A    between atoms: C_30  and  C_31
REMARK                            x       y       z     vdW  Elec       q    Type
REMARK                         _______ _______ _______ _____ _____    ______ ____
ROOT
ATOM      1  C   UNL     1      -1.775  -0.066  -0.069  0.00  0.00    +0.133 A 
ATOM      2  N   UNL     1      -2.430  -0.215   1.069  0.00  0.00    -0.217 NA
ATOM      3  C   UNL     1      -3.614  -0.817   1.108  0.00  0.00    +0.134 A 
ATOM      4  C   UNL     1      -4.160  -1.297  -0.098  0.00  0.00    +0.082 A 
ATOM      5  C   UNL     1      -5.351  -1.968  -0.451  0.00  0.00    +0.073 A 
ATOM      6  N   UNL     1      -5.344  -2.176  -1.737  0.00  0.00    -0.169 NA
ATOM      7  N   UNL     1      -4.165  -1.662  -2.292  0.00  0.00    -0.214 N 
ATOM      8  C   UNL     1      -3.423  -1.114  -1.284  0.00  0.00    +0.169 A 
ATOM      9  N   UNL     1      -2.246  -0.493  -1.220  0.00  0.00    -0.212 NA
ATOM     10  C   UNL     1      -6.447  -2.374   0.500  0.00  0.00    +0.068 C 
ATOM     11  N   UNL     1      -4.292  -0.968   2.302  0.00  0.00    -0.326 N 
ATOM     12  H   UNL     1      -5.188  -1.339   2.307  0.00  0.00    +0.148 HD
ENDROOT
BRANCH   7  13
ATOM     13  C   UNL     1      -3.808  -1.703  -3.645  0.00  0.00    +0.068 A 
ATOM     14  C   UNL     1      -3.096  -0.653  -4.209  0.00  0.00    +0.028 A 
ATOM     15  C   UNL     1      -2.745  -0.697  -5.545  0.00  0.00    +0.005 A 
ATOM     16  C   UNL     1      -3.103  -1.785  -6.319  0.00  0.00    -0.050 A 
ATOM     17  C   UNL     1      -3.812  -2.832  -5.761  0.00  0.00    +0.005 A 
ATOM     18  C   UNL     1      -4.160  -2.797  -4.425  0.00  0.00    +0.028 A 
ATOM     19  C   UNL     1      -2.719  -1.829  -7.776  0.00  0.00    +0.044 C 
ENDBRANCH   7  13
BRANCH  11  20
ATOM     20  C   UNL     1      -3.657  -0.568   3.560  0.00  0.00    +0.072 C 
ATOM     21  C   UNL     1      -2.786  -1.714   4.079  0.00  0.00    +0.024 C 
ATOM     22  C   UNL     1      -3.656  -2.949   4.316  0.00  0.00    +0.024 C 
ATOM     23  C   UNL     1      -4.736  -2.622   5.350  0.00  0.00    +0.073 C 
ATOM     24  C   UNL     1      -5.607  -1.476   4.831  0.00  0.00    +0.024 C 
ATOM     25  C   UNL     1      -4.737  -0.240   4.594  0.00  0.00    +0.024 C 
BRANCH  23  26
ATOM     26  N   UNL     1      -5.569  -3.805   5.578  0.00  0.00    -0.312 N 
ATOM     27  C   UNL     1      -6.228  -3.950   6.744  0.00  0.00    +0.213 C 
ATOM     28  O   UNL     1      -6.132  -3.102   7.605  0.00  0.00    -0.276 OA
ATOM     29  H   UNL     1      -5.646  -4.483   4.889  0.00  0.00    +0.149 HD
BRANCH  27  30
ATOM     30  C   UNL     1      -7.086  -5.167   6.978  0.00  0.00    +0.092 C 
ATOM     31  C   UNL     1      -7.717  -5.086   8.370  0.00  0.00    +0.013 C 
ENDBRANCH  27  30
ENDBRANCH  23  26
ENDBRANCH  11  20
BRANCH   1  33
ATOM     32  C   UNL     1      -0.637   2.130  -0.244  0.00  0.00    +0.012 C 
ATOM     33  C   UNL     1      -0.436   0.626  -0.048  0.00  0.00    +0.073 C 
ENDBRANCH   1  33
TORSDOF 5
