REMARK  Name = ZINC17574802
REMARK  6 active torsions:
REMARK  status: ('A' for Active; 'I' for Inactive)
REMARK    1  A    between atoms: C_4  and  O_32
REMARK    2  A    between atoms: C_5  and  C_7
REMARK    3  A    between atoms: N_9  and  N_10
REMARK    4  A    between atoms: C_11  and  C_13
REMARK    5  A    between atoms: N_16  and  S_19
REMARK    6  A    between atoms: S_19  and  C_22
REMARK                            x       y       z     vdW  Elec       q    Type
REMARK                         _______ _______ _______ _____ _____    ______ ____
ROOT
ATOM      1  C   UNL     1      -2.482   0.853   0.018  0.00  0.00    +0.079 C 
ATOM      2  C   UNL     1      -2.556  -0.023  -1.235  0.00  0.00    +0.030 C 
ATOM      3  C   UNL     1      -3.857  -0.831  -1.212  0.00  0.00    +0.110 C 
ATOM      4  N   UNL     1      -4.987   0.096  -1.056  0.00  0.00    -0.177 NA
ATOM      5  C   UNL     1      -4.972   1.044   0.066  0.00  0.00    +0.110 C 
ATOM      6  C   UNL     1      -3.658   1.831   0.029  0.00  0.00    +0.030 C 
ENDROOT
BRANCH   1   8
ATOM      7  N   UNL     1      -0.011   0.966   0.007  0.00  0.00    -0.234 N 
ATOM      8  C   UNL     1      -1.187   1.624   0.017  0.00  0.00    +0.232 C 
ATOM      9  O   UNL     1      -1.204   2.837   0.023  0.00  0.00    -0.274 OA
ATOM     10  H   UNL     1       0.002  -0.004   0.002  0.00  0.00    +0.173 HD
BRANCH   7  13
ATOM     11  C   UNL     1       2.369   1.025  -0.015  0.00  0.00    +0.264 C 
ATOM     12  O   UNL     1       2.385  -0.191  -0.022  0.00  0.00    -0.269 OA
ATOM     13  N   UNL     1       1.193   1.683  -0.000  0.00  0.00    -0.230 N 
ATOM     14  H   UNL     1       1.179   2.653   0.005  0.00  0.00    +0.173 HD
BRANCH  11  19
ATOM     15  C   UNL     1       4.809   3.876  -0.024  0.00  0.00    +0.001 A 
ATOM     16  C   UNL     1       6.019   3.200  -0.039  0.00  0.00    +0.004 A 
ATOM     17  C   UNL     1       6.047   1.820  -0.046  0.00  0.00    +0.046 A 
ATOM     18  C   UNL     1       4.862   1.100  -0.038  0.00  0.00    +0.129 A 
ATOM     19  C   UNL     1       3.636   1.780  -0.023  0.00  0.00    +0.079 A 
ATOM     20  C   UNL     1       3.622   3.177  -0.021  0.00  0.00    +0.017 A 
BRANCH  18  21
ATOM     21  O   UNL     1       4.888  -0.256  -0.046  0.00  0.00    -0.506 OA
ATOM     22  H   UNL     1       4.887  -0.645  -0.932  0.00  0.00    +0.292 HD
ENDBRANCH  18  21
ENDBRANCH  11  19
ENDBRANCH   7  13
ENDBRANCH   1   8
BRANCH   4  23
ATOM     23  S   UNL     1      -6.253   0.071  -2.123  0.00  0.00    +0.061 S 
ATOM     24  O   UNL     1      -6.273  -1.228  -2.699  0.00  0.00    -0.153 OA
ATOM     25  O   UNL     1      -7.371   0.619  -1.439  0.00  0.00    -0.153 OA
BRANCH  23  26
ATOM     26  C   UNL     1      -5.859   1.192  -3.424  0.00  0.00    +0.106 A 
ATOM     27  C   UNL     1      -6.236   2.519  -3.334  0.00  0.00    +0.029 A 
ATOM     28  C   UNL     1      -5.921   3.392  -4.355  0.00  0.00    +0.006 A 
ATOM     29  C   UNL     1      -5.238   2.946  -5.479  0.00  0.00    -0.044 A 
ATOM     30  C   UNL     1      -4.864   1.624  -5.570  0.00  0.00    -0.042 A 
ATOM     31  C   UNL     1      -5.178   0.748  -4.538  0.00  0.00    +0.032 A 
ATOM     32  C   UNL     1      -4.114   1.073  -6.754  0.00  0.00    +0.035 C 
ATOM     33  C   UNL     1      -4.228   2.018  -7.949  0.00  0.00    +0.005 C 
ATOM     34  C   UNL     1      -3.843   3.429  -7.489  0.00  0.00    +0.005 C 
ATOM     35  C   UNL     1      -4.939   3.949  -6.562  0.00  0.00    +0.035 C 
ENDBRANCH  23  26
ENDBRANCH   4  23
TORSDOF 6
