REMARK  Name = ZINC10027443
REMARK  6 active torsions:
REMARK  status: ('A' for Active; 'I' for Inactive)
REMARK    1  A    between atoms: C_1  and  C_2
REMARK    2  A    between atoms: C_2  and  C_4
REMARK    3  A    between atoms: C_2  and  N_15
REMARK    4  A    between atoms: C_7  and  N_10
REMARK    5  A    between atoms: C_16  and  C_18
REMARK    6  A    between atoms: C_23  and  N_56
REMARK                            x       y       z     vdW  Elec       q    Type
REMARK                         _______ _______ _______ _____ _____    ______ ____
ROOT
ATOM      1  N   UNL     1      -3.216   4.705   4.499  0.00  0.00    -0.309 N 
ATOM      2  C   UNL     1      -3.210   3.417   4.102  0.00  0.00    +0.216 C 
ATOM      3  O   UNL     1      -3.669   2.558   4.824  0.00  0.00    -0.276 OA
ATOM      4  H   UNL     1      -2.849   5.393   3.921  0.00  0.00    +0.149 HD
ENDROOT
BRANCH   2   5
ATOM      5  C   UNL     1      -2.634   3.045   2.760  0.00  0.00    +0.071 C 
ATOM      6  C   UNL     1      -2.749   1.532   2.556  0.00  0.00    -0.006 C 
ATOM      7  C   UNL     1      -2.108   1.152   1.219  0.00  0.00    -0.078 C 
ATOM      8  C   UNL     1      -0.562   3.012   1.367  0.00  0.00    -0.078 C 
ATOM      9  C   UNL     1      -1.157   3.447   2.708  0.00  0.00    -0.006 C 
ATOM     10  N   UNL     1      -0.682   1.544   1.243  0.00  0.00    +0.383 N 
ATOM     11  H   UNL     1      -0.229   1.103   2.051  0.00  0.00    -0.081 HD
BRANCH  10  12
ATOM     12  C   UNL     1      -0.013   1.086   0.008  0.00  0.00    -0.046 C 
ATOM     13  C   UNL     1       1.442   1.584   0.018  0.00  0.00    +0.009 C 
ATOM     14  C   UNL     1       2.222   0.823  -1.093  0.00  0.00    +0.164 C 
ATOM     15  S   UNL     1       1.533  -0.874  -0.886  0.00  0.00    -0.033 S 
ATOM     16  O   UNL     1       2.366  -1.605   0.003  0.00  0.00    -0.174 OA
ATOM     17  O   UNL     1       1.235  -1.412  -2.167  0.00  0.00    -0.174 OA
ATOM     18  C   UNL     1      -0.041  -0.461  -0.029  0.00  0.00    +0.151 C 
ENDBRANCH  10  12
ENDBRANCH   2   5
BRANCH   1  20
ATOM     19  C   UNL     1      -2.708   4.892   6.884  0.00  0.00    +0.033 C 
ATOM     20  C   UNL     1      -3.777   5.067   5.803  0.00  0.00    +0.100 C 
BRANCH  20  21
ATOM     21  C   UNL     1      -4.230   6.504   5.773  0.00  0.00    -0.027 A 
ATOM     22  C   UNL     1      -3.463   7.457   5.129  0.00  0.00    +0.007 A 
ATOM     23  C   UNL     1      -3.879   8.773   5.095  0.00  0.00    +0.028 A 
ATOM     24  C   UNL     1      -5.063   9.142   5.720  0.00  0.00    +0.067 A 
ATOM     25  C   UNL     1      -5.829   8.184   6.371  0.00  0.00    +0.028 A 
ATOM     26  C   UNL     1      -5.410   6.868   6.396  0.00  0.00    +0.007 A 
BRANCH  24  27
ATOM     27  N   UNL     1      -5.485  10.479   5.692  0.00  0.00    -0.220 N 
ATOM     28  C   UNL     1      -4.851  11.514   5.109  0.00  0.00    +0.225 A 
ATOM     29  N   UNL     1      -5.568  12.591   5.305  0.00  0.00    -0.222 NA
ATOM     30  C   UNL     1      -6.656  12.287   6.011  0.00  0.00    +0.245 A 
ATOM     31  N   UNL     1      -6.650  11.006   6.272  0.00  0.00    -0.154 NA
ENDBRANCH  24  27
ENDBRANCH  20  21
ENDBRANCH   1  20
TORSDOF 5
