REMARK  Name = ZINC21226597
REMARK  7 active torsions:
REMARK  status: ('A' for Active; 'I' for Inactive)
REMARK    1  A    between atoms: C_1  and  C_2
REMARK    2  A    between atoms: C_2  and  O_3
REMARK    3  A    between atoms: O_3  and  C_4
REMARK    4  A    between atoms: C_9  and  C_10
REMARK    5  A    between atoms: C_15  and  C_20
REMARK    6  A    between atoms: C_24  and  O_26
REMARK    7  A    between atoms: O_26  and  C_27
REMARK                            x       y       z     vdW  Elec       q    Type
REMARK                         _______ _______ _______ _____ _____    ______ ____
ROOT
ATOM      1  C   UNL     1      -1.463  -1.562  -1.243  0.00  0.00    +0.139 C 
ATOM      2  C   UNL     1      -0.461  -2.675  -1.431  0.00  0.00    +0.037 C 
ATOM      3  C   UNL     1       0.697  -2.816  -0.761  0.00  0.00    +0.017 C 
ATOM      4  C   UNL     1       1.611  -3.997  -1.041  0.00  0.00    +0.059 C 
ATOM      5  C   UNL     1       1.506  -4.399  -2.512  0.00  0.00    +0.032 C 
ATOM      6  C   UNL     1       0.046  -4.777  -2.790  0.00  0.00    +0.088 C 
ATOM      7  C   UNL     1      -0.827  -3.615  -2.423  0.00  0.00    +0.163 C 
ATOM      8  O   UNL     1      -1.889  -3.476  -2.998  0.00  0.00    -0.292 OA
ATOM      9  N   UNL     1       1.138  -1.965   0.199  0.00  0.00    -0.316 N 
ATOM     10  C   UNL     1       1.136  -0.580   0.096  0.00  0.00    +0.052 A 
ATOM     11  C   UNL     1       2.304   0.164   0.104  0.00  0.00    +0.025 A 
ATOM     12  C   UNL     1       2.228   1.546   0.091  0.00  0.00    +0.002 A 
ATOM     13  C   UNL     1       0.998   2.178   0.071  0.00  0.00    +0.002 A 
ATOM     14  C   UNL     1      -0.170   1.436   0.045  0.00  0.00    +0.025 A 
ATOM     15  C   UNL     1      -0.097   0.053   0.041  0.00  0.00    +0.049 A 
ATOM     16  N   UNL     1      -1.239  -0.739  -0.073  0.00  0.00    -0.331 N 
ATOM     17  H   UNL     1       1.535  -2.362   1.145  0.00  0.00    +0.152 HD
ATOM     18  H   UNL     1      -1.976  -0.733   0.744  0.00  0.00    +0.147 HD
ENDROOT
BRANCH   1  24
ATOM     19  C   UNL     1      -2.471   0.202  -2.712  0.00  0.00    +0.126 A 
ATOM     20  C   UNL     1      -2.436   1.016  -3.836  0.00  0.00    +0.046 A 
ATOM     21  C   UNL     1      -1.361   0.949  -4.701  0.00  0.00    +0.004 A 
ATOM     22  C   UNL     1      -0.322   0.073  -4.449  0.00  0.00    +0.001 A 
ATOM     23  C   UNL     1      -0.353  -0.736  -3.328  0.00  0.00    +0.009 A 
ATOM     24  C   UNL     1      -1.427  -0.677  -2.462  0.00  0.00    +0.019 A 
BRANCH  19  25
ATOM     25  O   UNL     1      -3.527   0.265  -1.859  0.00  0.00    -0.492 OA
BRANCH  25  27
ATOM     26  C   UNL     1      -5.660   1.123  -1.113  0.00  0.00    +0.048 C 
ATOM     27  C   UNL     1      -4.565   1.193  -2.180  0.00  0.00    +0.225 C 
ENDBRANCH  25  27
ENDBRANCH  19  25
ENDBRANCH   1  24
BRANCH   5  28
ATOM     28  C   UNL     1       2.401  -5.581  -2.782  0.00  0.00    -0.040 A 
ATOM     29  C   UNL     1       2.201  -6.768  -2.101  0.00  0.00    +0.004 A 
ATOM     30  C   UNL     1       3.020  -7.855  -2.348  0.00  0.00    +0.004 A 
ATOM     31  C   UNL     1       4.039  -7.757  -3.276  0.00  0.00    +0.045 A 
ATOM     32  C   UNL     1       4.240  -6.568  -3.960  0.00  0.00    +0.120 A 
ATOM     33  C   UNL     1       3.415  -5.480  -3.715  0.00  0.00    +0.049 A 
BRANCH  32  34
ATOM     34  O   UNL     1       5.242  -6.470  -4.874  0.00  0.00    -0.495 OA
ATOM     35  C   UNL     1       6.049  -7.631  -5.080  0.00  0.00    +0.277 C 
ENDBRANCH  32  34
ENDBRANCH   5  28
TORSDOF 5
