REMARK  Name = ZINC22961262
REMARK  11 active torsions:
REMARK  status: ('A' for Active; 'I' for Inactive)
REMARK    1  A    between atoms: C_1  and  C_2
REMARK    2  A    between atoms: C_3  and  C_16
REMARK    3  A    between atoms: C_4  and  C_15
REMARK    4  A    between atoms: N_5  and  C_7
REMARK    5  A    between atoms: C_7  and  C_8
REMARK    6  A    between atoms: C_16  and  N_17
REMARK    7  A    between atoms: N_17  and  C_18
REMARK    8  A    between atoms: N_17  and  C_19
REMARK    9  A    between atoms: C_19  and  N_20
REMARK   10  A    between atoms: N_23  and  C_27
REMARK   11  A    between atoms: C_24  and  C_26
REMARK                            x       y       z     vdW  Elec       q    Type
REMARK                         _______ _______ _______ _____ _____    ______ ____
ROOT
ATOM      1  C   UNL     1       3.543   5.189   4.123  0.00  0.00    +0.068 C 
ATOM      2  C   UNL     1       2.463   4.773   3.158  0.00  0.00    +0.062 A 
ATOM      3  C   UNL     1       1.090   4.755   3.423  0.00  0.00    -0.021 A 
ATOM      4  C   UNL     1       0.456   4.329   2.305  0.00  0.00    +0.038 A 
ATOM      5  N   UNL     1       1.396   4.077   1.370  0.00  0.00    -0.264 N 
ATOM      6  N   UNL     1       2.648   4.367   1.928  0.00  0.00    -0.176 NA
ATOM      7  C   UNL     1      -1.032   4.163   2.136  0.00  0.00    +0.065 C 
ENDROOT
BRANCH   5   8
ATOM      8  C   UNL     1       1.150   3.592   0.010  0.00  0.00    +0.180 C 
BRANCH   8   9
ATOM      9  C   UNL     1       1.171   2.086   0.002  0.00  0.00    -0.008 A 
ATOM     10  C   UNL     1      -0.017   1.378   0.010  0.00  0.00    +0.007 A 
ATOM     11  C   UNL     1       0.002  -0.004   0.002  0.00  0.00    +0.000 A 
ATOM     12  C   UNL     1       1.208  -0.680  -0.013  0.00  0.00    +0.001 A 
ATOM     13  C   UNL     1       2.396   0.027  -0.021  0.00  0.00    +0.020 A 
ATOM     14  C   UNL     1       2.378   1.410  -0.013  0.00  0.00    +0.046 A 
ATOM     15 CL   UNL     1       3.870   2.298  -0.023  0.00  0.00    -0.083 Cl
ENDBRANCH   8   9
ENDBRANCH   5   8
BRANCH   3  16
ATOM     16  C   UNL     1       0.431   5.147   4.720  0.00  0.00    -0.037 C 
BRANCH  16  17
ATOM     17  N   UNL     1       0.115   6.582   4.695  0.00  0.00    +0.394 N 
ATOM     18  C   UNL     1       1.341   7.391   4.667  0.00  0.00    -0.093 C 
ATOM     19  H   UNL     1      -0.447   6.788   3.772  0.00  0.00    -0.079 HD
BRANCH  17  20
ATOM     20  C   UNL     1      -0.735   6.953   5.834  0.00  0.00    +0.072 C 
BRANCH  20  21
ATOM     21  N   UNL     1      -1.225   8.322   5.652  0.00  0.00    -0.258 N 
ATOM     22  C   UNL     1      -0.623   9.451   6.082  0.00  0.00    +0.176 A 
ATOM     23  S   UNL     1       0.853   9.547   6.944  0.00  0.00    -0.011 S 
ATOM     24  N   UNL     1      -1.398  10.488   5.707  0.00  0.00    -0.310 N 
ATOM     25  C   UNL     1      -2.494   9.992   5.045  0.00  0.00    +0.129 A 
ATOM     26  N   UNL     1      -2.408   8.702   5.003  0.00  0.00    -0.158 NA
ATOM     27  C   UNL     1      -3.614  10.816   4.464  0.00  0.00    +0.088 C 
ATOM     28  C   UNL     1      -1.121  11.903   5.966  0.00  0.00    +0.152 C 
ENDBRANCH  20  21
ENDBRANCH  17  20
ENDBRANCH  16  17
ENDBRANCH   3  16
TORSDOF 6
