REMARK  Name = ZINC45454627
REMARK  12 active torsions:
REMARK  status: ('A' for Active; 'I' for Inactive)
REMARK    1  A    between atoms: C_1  and  C_2
REMARK    2  A    between atoms: N_5  and  C_11
REMARK    3  A    between atoms: C_7  and  C_10
REMARK    4  A    between atoms: C_11  and  C_12
REMARK    5  A    between atoms: C_12  and  C_13
REMARK    6  A    between atoms: C_13  and  N_14
REMARK    7  A    between atoms: C_20  and  N_23
REMARK    8  A    between atoms: C_24  and  O_26
REMARK    9  A    between atoms: O_26  and  C_27
REMARK   10  A    between atoms: C_27  and  C_28
REMARK   11  A    between atoms: C_27  and  C_29
REMARK   12  A    between atoms: C_27  and  C_30
REMARK                            x       y       z     vdW  Elec       q    Type
REMARK                         _______ _______ _______ _____ _____    ______ ____
ROOT
ATOM      1  N   UNL     1      -4.042  -6.105  -0.349  0.00  0.00    -0.299 N 
ATOM      2  C   UNL     1      -5.176  -6.831  -0.414  0.00  0.00    +0.302 C 
ATOM      3  O   UNL     1      -6.253  -6.293  -0.242  0.00  0.00    -0.253 OA
ATOM      4  N   UNL     1      -5.116  -8.152  -0.670  0.00  0.00    -0.286 N 
ATOM      5  C   UNL     1      -3.820  -8.838  -0.765  0.00  0.00    +0.111 C 
ATOM      6  C   UNL     1      -3.756  -9.588  -2.100  0.00  0.00    +0.041 C 
ATOM      7  C   UNL     1      -4.968 -10.515  -2.218  0.00  0.00    +0.079 C 
ATOM      8  C   UNL     1      -6.253  -9.684  -2.192  0.00  0.00    +0.041 C 
ATOM      9  C   UNL     1      -6.345  -8.936  -0.854  0.00  0.00    +0.111 C 
ATOM     10  H   UNL     1      -3.180  -6.545  -0.413  0.00  0.00    +0.150 HD
ENDROOT
BRANCH   7  11
ATOM     11  N   UNL     1      -4.893 -11.259  -3.478  0.00  0.00    -0.278 N 
ATOM     12  C   UNL     1      -5.514 -12.449  -3.596  0.00  0.00    +0.401 C 
ATOM     13  O   UNL     1      -6.136 -12.905  -2.658  0.00  0.00    -0.226 OA
ATOM     14  H   UNL     1      -4.396 -10.894  -4.227  0.00  0.00    +0.152 HD
BRANCH  12  15
ATOM     15  O   UNL     1      -5.445 -13.132  -4.755  0.00  0.00    -0.445 OA
BRANCH  15  16
ATOM     16  C   UNL     1      -6.127 -14.387  -4.809  0.00  0.00    +0.107 C 
ATOM     17  C   UNL     1      -7.619 -14.168  -4.549  0.00  0.00    +0.055 C 
ATOM     18  C   UNL     1      -5.937 -15.011  -6.193  0.00  0.00    +0.055 C 
ATOM     19  C   UNL     1      -5.556 -15.325  -3.744  0.00  0.00    +0.055 C 
ENDBRANCH  15  16
ENDBRANCH  12  15
ENDBRANCH   7  11
BRANCH   1  20
ATOM     20  C   UNL     1      -4.112  -4.651  -0.181  0.00  0.00    +0.107 C 
BRANCH  20  21
ATOM     21  C   UNL     1      -2.695  -4.074  -0.138  0.00  0.00    +0.034 C 
BRANCH  21  22
ATOM     22  C   UNL     1      -2.768  -2.556   0.037  0.00  0.00    +0.086 C 
BRANCH  22  26
ATOM     23  C   UNL     1      -0.019   1.527   0.001  0.00  0.00    +0.039 C 
ATOM     24  C   UNL     1       0.002  -0.003  -0.006  0.00  0.00    +0.130 C 
ATOM     25  C   UNL     1      -1.434  -0.534   0.008  0.00  0.00    +0.115 C 
ATOM     26  N   UNL     1      -1.408  -2.002   0.079  0.00  0.00    -0.297 NA
ATOM     27  C   UNL     1      -0.692  -2.453   1.282  0.00  0.00    +0.115 C 
ATOM     28  C   UNL     1       0.736  -1.902   1.255  0.00  0.00    +0.130 C 
ATOM     29  O   UNL     1       0.692  -0.476   1.154  0.00  0.00    -0.371 OA
ATOM     30  C   UNL     1       1.483  -2.477   0.050  0.00  0.00    +0.039 C 
ENDBRANCH  22  26
ENDBRANCH  21  22
ENDBRANCH  20  21
ENDBRANCH   1  20
TORSDOF 7
