REMARK  Name = ZINC09762113
REMARK  5 active torsions:
REMARK  status: ('A' for Active; 'I' for Inactive)
REMARK    1  A    between atoms: C_7  and  C_12
REMARK    2  A    between atoms: C_12  and  C_13
REMARK    3  A    between atoms: N_15  and  N_16
REMARK    4  A    between atoms: C_17  and  C_18
REMARK    5  A    between atoms: C_23  and  O_24
REMARK                            x       y       z     vdW  Elec       q    Type
REMARK                         _______ _______ _______ _____ _____    ______ ____
ROOT
ATOM      1  C   UNL     1       7.187  -0.020  -0.066  0.00  0.00    +0.237 C 
ATOM      2  O   UNL     1       7.170   1.193  -0.059  0.00  0.00    -0.274 OA
ATOM      3  N   UNL     1       6.029  -0.710  -0.058  0.00  0.00    -0.207 N 
ATOM      4  H   UNL     1       6.043  -1.680  -0.063  0.00  0.00    +0.177 HD
ENDROOT
BRANCH   3   5
ATOM      5  N   UNL     1       4.807  -0.026  -0.043  0.00  0.00    -0.188 NA
ATOM      6  C   UNL     1       3.692  -0.691  -0.036  0.00  0.00    +0.142 C 
BRANCH   6   7
ATOM      7  C   UNL     1       2.405   0.028  -0.021  0.00  0.00    +0.038 A 
ATOM      8  C   UNL     1       1.203  -0.683  -0.013  0.00  0.00    +0.033 A 
ATOM      9  C   UNL     1       0.002  -0.004   0.002  0.00  0.00    +0.043 A 
ATOM     10  C   UNL     1      -0.017   1.381   0.010  0.00  0.00    +0.039 A 
ATOM     11  C   UNL     1       1.167   2.096   0.002  0.00  0.00    +0.061 A 
ATOM     12  C   UNL     1       2.382   1.429  -0.013  0.00  0.00    +0.139 A 
ATOM     13 BR   UNL     1       1.128   3.987   0.013  0.00  0.00    -0.046 Br
ATOM     14 CL   UNL     1      -1.491  -0.889   0.012  0.00  0.00    -0.083 Cl
BRANCH  12  15
ATOM     15  O   UNL     1       3.545   2.131  -0.020  0.00  0.00    -0.505 OA
ATOM     16  H   UNL     1       3.873   2.339  -0.905  0.00  0.00    +0.292 HD
ENDBRANCH  12  15
ENDBRANCH   6   7
ENDBRANCH   3   5
BRANCH   1  17
ATOM     17  C   UNL     1       8.503  -0.755  -0.082  0.00  0.00    +0.133 C 
BRANCH  17  24
ATOM     18  C   UNL     1      10.025   0.954   3.505  0.00  0.00    +0.001 A 
ATOM     19  C   UNL     1      11.073   1.873   3.481  0.00  0.00    +0.001 A 
ATOM     20  C   UNL     1      11.643   2.254   2.305  0.00  0.00    +0.009 A 
ATOM     21  C   UNL     1      11.171   1.714   1.097  0.00  0.00    -0.004 A 
ATOM     22  C   UNL     1      10.106   0.780   1.121  0.00  0.00    -0.013 A 
ATOM     23  C   UNL     1       9.542   0.410   2.355  0.00  0.00    +0.009 A 
ATOM     24  C   UNL     1       9.634   0.240  -0.087  0.00  0.00    -0.031 A 
ATOM     25  C   UNL     1      10.209   0.617  -1.263  0.00  0.00    +0.006 A 
ATOM     26  C   UNL     1      11.251   1.540  -1.289  0.00  0.00    +0.016 A 
ATOM     27  C   UNL     1      11.735   2.084  -0.137  0.00  0.00    +0.026 A 
ATOM     28 BR   UNL     1      13.157   3.328  -0.198  0.00  0.00    -0.050 Br
ENDBRANCH  17  24
ENDBRANCH   1  17
TORSDOF 5
