REMARK  Name = ZINC36029913
REMARK  8 active torsions:
REMARK  status: ('A' for Active; 'I' for Inactive)
REMARK    1  A    between atoms: C_1  and  C_2
REMARK    2  A    between atoms: C_2  and  C_3
REMARK    3  A    between atoms: C_2  and  C_4
REMARK    4  A    between atoms: C_4  and  C_5
REMARK    5  A    between atoms: N_9  and  C_26
REMARK    6  A    between atoms: N_14  and  S_17
REMARK    7  A    between atoms: S_17  and  C_20
REMARK    8  A    between atoms: C_26  and  C_27
REMARK                            x       y       z     vdW  Elec       q    Type
REMARK                         _______ _______ _______ _____ _____    ______ ____
ROOT
ATOM      1  C   UNL     1      -2.843  -3.751   2.152  0.00  0.00    +0.019 C 
ATOM      2  C   UNL     1      -3.814  -4.355   1.161  0.00  0.00    +0.201 C 
ATOM      3  O   UNL     1      -4.737  -5.093   1.434  0.00  0.00    -0.277 OA
ATOM      4  N   UNL     1      -3.481  -3.933  -0.077  0.00  0.00    -0.309 N 
ATOM      5  C   UNL     1      -2.308  -3.060   0.004  0.00  0.00    +0.006 C 
ATOM      6  N   UNL     1      -2.194  -2.638   1.418  0.00  0.00    +0.401 N 
ATOM      7  C   UNL     1      -1.051  -3.824  -0.407  0.00  0.00    +0.023 C 
ATOM      8  C   UNL     1      -1.193  -4.292  -1.859  0.00  0.00    +0.109 C 
ATOM      9  N   UNL     1      -1.506  -3.130  -2.702  0.00  0.00    -0.177 NA
ATOM     10  C   UNL     1      -2.654  -2.285  -2.344  0.00  0.00    +0.109 C 
ATOM     11  C   UNL     1      -2.499  -1.834  -0.888  0.00  0.00    +0.023 C 
ATOM     12  H   UNL     1      -2.689  -1.772   1.572  0.00  0.00    -0.082 HD
ATOM     13  H   UNL     1      -1.226  -2.550   1.688  0.00  0.00    -0.082 HD
ENDROOT
BRANCH   9  14
ATOM     14  S   UNL     1      -0.581  -2.778  -4.030  0.00  0.00    +0.061 S 
ATOM     15  O   UNL     1      -0.746  -1.389  -4.282  0.00  0.00    -0.153 OA
ATOM     16  O   UNL     1       0.693  -3.365  -3.805  0.00  0.00    -0.153 OA
BRANCH  14  17
ATOM     17  C   UNL     1      -1.293  -3.627  -5.400  0.00  0.00    +0.105 A 
ATOM     18  C   UNL     1      -0.884  -4.912  -5.704  0.00  0.00    +0.028 A 
ATOM     19  C   UNL     1      -1.442  -5.578  -6.779  0.00  0.00    +0.002 A 
ATOM     20  C   UNL     1      -2.409  -4.959  -7.550  0.00  0.00    +0.000 A 
ATOM     21  C   UNL     1      -2.818  -3.674  -7.245  0.00  0.00    +0.002 A 
ATOM     22  C   UNL     1      -2.263  -3.010  -6.167  0.00  0.00    +0.028 A 
ENDBRANCH  14  17
ENDBRANCH   9  14
BRANCH   1  23
ATOM     23  C   UNL     1      -3.592  -3.217   3.374  0.00  0.00    -0.004 C 
BRANCH  23  25
ATOM     24  C   UNL     1      -3.340  -2.012   5.549  0.00  0.00    +0.007 C 
ATOM     25  C   UNL     1      -2.587  -2.657   4.384  0.00  0.00    -0.018 C 
ATOM     26  C   UNL     1      -1.708  -3.793   4.911  0.00  0.00    +0.007 C 
ENDBRANCH  23  25
ENDBRANCH   1  23
BRANCH   4  27
ATOM     27  C   UNL     1      -4.184  -4.294  -1.310  0.00  0.00    +0.141 C 
BRANCH  27  28
ATOM     28  C   UNL     1      -5.330  -3.341  -1.532  0.00  0.00    -0.030 A 
ATOM     29  C   UNL     1      -6.035  -2.844  -0.452  0.00  0.00    +0.008 A 
ATOM     30  C   UNL     1      -7.086  -1.970  -0.654  0.00  0.00    +0.038 A 
ATOM     31  C   UNL     1      -7.433  -1.591  -1.940  0.00  0.00    +0.123 A 
ATOM     32  C   UNL     1      -6.726  -2.089  -3.022  0.00  0.00    +0.038 A 
ATOM     33  C   UNL     1      -5.673  -2.959  -2.816  0.00  0.00    +0.008 A 
ATOM     34  F   UNL     1      -8.460  -0.737  -2.139  0.00  0.00    -0.205 F 
ENDBRANCH  27  28
ENDBRANCH   4  27
TORSDOF 6
