REMARK  Name = ZINC12876759
REMARK  7 active torsions:
REMARK  status: ('A' for Active; 'I' for Inactive)
REMARK    1  A    between atoms: C_1  and  O_2
REMARK    2  A    between atoms: O_2  and  C_3
REMARK    3  A    between atoms: C_6  and  C_9
REMARK    4  A    between atoms: C_9  and  N_10
REMARK    5  A    between atoms: C_15  and  C_32
REMARK    6  A    between atoms: C_32  and  C_33
REMARK    7  A    between atoms: C_33  and  C_34
REMARK                            x       y       z     vdW  Elec       q    Type
REMARK                         _______ _______ _______ _____ _____    ______ ____
ROOT
ATOM      1  N   UNL     1       4.532   2.232  -1.355  0.00  0.00    -0.237 N 
ATOM      2  C   UNL     1       5.327   3.183  -0.852  0.00  0.00    +0.224 C 
ATOM      3  O   UNL     1       6.491   3.034  -0.547  0.00  0.00    -0.275 OA
ATOM      4  C   UNL     1       4.549   4.473  -0.722  0.00  0.00    +0.073 C 
ATOM      5  C   UNL     1       4.357   4.805   0.773  0.00  0.00    -0.057 C 
ATOM      6  C   UNL     1       2.231   4.212   0.004  0.00  0.00    +0.050 C 
ATOM      7  C   UNL     1       3.132   4.089  -1.232  0.00  0.00    +0.088 C 
ATOM      8  C   UNL     1       3.266   2.633  -1.619  0.00  0.00    +0.225 C 
ATOM      9  O   UNL     1       2.382   1.947  -2.084  0.00  0.00    -0.275 OA
ATOM     10  C   UNL     1       1.156   3.163   0.008  0.00  0.00    -0.026 A 
ATOM     11  C   UNL     1       1.175   1.785   0.000  0.00  0.00    +0.004 A 
ATOM     12  C   UNL     1      -0.013   1.076   0.008  0.00  0.00    +0.002 A 
ATOM     13  C   UNL     1      -1.219   1.753   0.017  0.00  0.00    +0.022 A 
ATOM     14  C   UNL     1      -1.243   3.133   0.030  0.00  0.00    +0.062 A 
ATOM     15  C   UNL     1      -0.051   3.855   0.023  0.00  0.00    +0.054 A 
ATOM     16  N   UNL     1       0.182   5.232   0.029  0.00  0.00    -0.285 N 
ATOM     17  C   UNL     1       1.497   5.525   0.020  0.00  0.00    +0.211 C 
ATOM     18  O   UNL     1       1.993   6.632   0.025  0.00  0.00    -0.277 OA
ATOM     19 CL   UNL     1      -2.763   3.971   0.048  0.00  0.00    -0.082 Cl
ATOM     20  H   UNL     1      -0.521   5.901   0.039  0.00  0.00    +0.155 HD
ATOM     21  N   UNL     1       3.129   4.094   1.139  0.00  0.00    +0.394 N 
ATOM     22  H   UNL     1       2.707   4.522   1.972  0.00  0.00    -0.083 HD
ATOM     23  H   UNL     1       3.335   3.106   1.328  0.00  0.00    -0.083 HD
ENDROOT
BRANCH   1  24
ATOM     24  C   UNL     1       4.993   0.865  -1.607  0.00  0.00    +0.151 C 
BRANCH  24  28
ATOM     25  C   UNL     1       4.347  -1.521   1.879  0.00  0.00    +0.120 A 
ATOM     26  C   UNL     1       3.360  -1.427   0.908  0.00  0.00    +0.046 A 
ATOM     27  C   UNL     1       3.571  -0.655  -0.218  0.00  0.00    +0.009 A 
ATOM     28  C   UNL     1       4.765   0.023  -0.378  0.00  0.00    -0.029 A 
ATOM     29  C   UNL     1       5.753  -0.073   0.585  0.00  0.00    +0.009 A 
ATOM     30  C   UNL     1       5.544  -0.840   1.716  0.00  0.00    +0.046 A 
BRANCH  25  32
ATOM     31  C   UNL     1       5.201  -2.331   3.945  0.00  0.00    +0.277 C 
ATOM     32  O   UNL     1       4.141  -2.280   2.987  0.00  0.00    -0.495 OA
ENDBRANCH  25  32
ENDBRANCH  24  28
ENDBRANCH   1  24
BRANCH   5  33
ATOM     33  C   UNL     1       5.553   4.308   1.587  0.00  0.00    -0.006 C 
BRANCH  33  34
ATOM     34  C   UNL     1       5.402   4.756   3.042  0.00  0.00    +0.094 C 
BRANCH  34  35
ATOM     35  C   UNL     1       6.580   4.267   3.843  0.00  0.00    +0.210 C 
ATOM     36  O   UNL     1       7.455   3.623   3.304  0.00  0.00    -0.276 OA
ATOM     37  N   UNL     1       6.662   4.545   5.160  0.00  0.00    -0.329 N 
ATOM     38  H   UNL     1       5.962   5.060   5.591  0.00  0.00    +0.145 HD
ATOM     39  H   UNL     1       7.420   4.230   5.676  0.00  0.00    +0.145 HD
ENDBRANCH  34  35
ENDBRANCH  33  34
ENDBRANCH   5  33
TORSDOF 6
