REMARK  Name = ZINC39534241
REMARK  9 active torsions:
REMARK  status: ('A' for Active; 'I' for Inactive)
REMARK    1  A    between atoms: C_4  and  O_7
REMARK    2  A    between atoms: O_7  and  S_8
REMARK    3  A    between atoms: S_8  and  C_11
REMARK    4  A    between atoms: C_14  and  C_17
REMARK    5  A    between atoms: C_17  and  C_19
REMARK    6  A    between atoms: C_17  and  N_22
REMARK    7  A    between atoms: C_19  and  N_20
REMARK    8  A    between atoms: C_26  and  C_29
REMARK    9  A    between atoms: C_34  and  O_35
REMARK                            x       y       z     vdW  Elec       q    Type
REMARK                         _______ _______ _______ _____ _____    ______ ____
ROOT
ATOM      1  C   UNL     1       0.894  -5.504   3.593  0.00  0.00    +0.103 C 
ENDROOT
BRANCH   1   2
ATOM      2  N   UNL     1       1.760  -6.620   3.996  0.00  0.00    -0.297 NA
ATOM      3  C   UNL     1       2.123  -7.450   2.839  0.00  0.00    +0.066 C 
ATOM      4  C   UNL     1       3.071  -8.563   3.290  0.00  0.00    -0.066 C 
ATOM      5  N   UNL     1       2.411  -9.383   4.315  0.00  0.00    +0.385 N 
ATOM      6  C   UNL     1       2.077  -8.545   5.475  0.00  0.00    -0.023 C 
ATOM      7  C   UNL     1       1.121  -7.432   5.041  0.00  0.00    +0.074 C 
ATOM      8  H   UNL     1       1.567  -9.781   3.934  0.00  0.00    -0.085 HD
ATOM      9  H   UNL     1       3.032 -10.124   4.604  0.00  0.00    -0.085 HD
BRANCH   6  10
ATOM     10  C   UNL     1       1.417  -9.391   6.532  0.00  0.00    -0.019 A 
ATOM     11  C   UNL     1       0.850 -10.604   6.193  0.00  0.00    +0.005 A 
ATOM     12  C   UNL     1       0.243 -11.381   7.162  0.00  0.00    +0.000 A 
ATOM     13  C   UNL     1       0.203 -10.946   8.474  0.00  0.00    +0.004 A 
ATOM     14  C   UNL     1       0.769  -9.734   8.819  0.00  0.00    +0.045 A 
ATOM     15  C   UNL     1       1.383  -8.955   7.849  0.00  0.00    +0.118 A 
BRANCH  15  16
ATOM     16  O   UNL     1       1.945  -7.765   8.186  0.00  0.00    -0.507 OA
ATOM     17  H   UNL     1       1.339  -7.013   8.130  0.00  0.00    +0.292 HD
ENDBRANCH  15  16
ENDBRANCH   6  10
ENDBRANCH   1   2
BRANCH   1  21
ATOM     18  C   UNL     1       3.244  -2.502   1.665  0.00  0.00    +0.128 A 
ATOM     19  C   UNL     1       1.913  -2.261   1.950  0.00  0.00    +0.031 A 
ATOM     20  C   UNL     1       1.153  -3.232   2.574  0.00  0.00    +0.007 A 
ATOM     21  C   UNL     1       1.723  -4.445   2.912  0.00  0.00    -0.029 A 
ATOM     22  C   UNL     1       3.053  -4.687   2.625  0.00  0.00    +0.007 A 
ATOM     23  C   UNL     1       3.813  -3.718   1.998  0.00  0.00    +0.031 A 
BRANCH  18  24
ATOM     24  S   UNL     1       4.213  -1.264   0.870  0.00  0.00    +0.151 S 
ATOM     25  O   UNL     1       5.568  -1.535   1.200  0.00  0.00    -0.131 OA
ATOM     26  O   UNL     1       3.594  -0.018   1.156  0.00  0.00    -0.131 OA
BRANCH  24  27
ATOM     27  O   UNL     1       4.079  -1.482  -0.631  0.00  0.00    -0.342 OA
BRANCH  27  31
ATOM     28  C   UNL     1       0.457  -0.266  -2.187  0.00  0.00    +0.000 A 
ATOM     29  C   UNL     1       1.515   0.622  -2.125  0.00  0.00    +0.004 A 
ATOM     30  C   UNL     1       2.729   0.217  -1.605  0.00  0.00    +0.048 A 
ATOM     31  C   UNL     1       2.886  -1.082  -1.143  0.00  0.00    +0.157 A 
ATOM     32  C   UNL     1       1.823  -1.971  -1.206  0.00  0.00    +0.048 A 
ATOM     33  C   UNL     1       0.611  -1.561  -1.728  0.00  0.00    +0.004 A 
ENDBRANCH  27  31
ENDBRANCH  24  27
ENDBRANCH  18  24
ENDBRANCH   1  21
BRANCH   1  34
ATOM     34  C   UNL     1      -0.177  -6.013   2.626  0.00  0.00    +0.140 C 
BRANCH  34  35
ATOM     35  N   UNL     1      -0.963  -7.069   3.278  0.00  0.00    -0.157 NA
ATOM     36  F   UNL     1      -1.884  -7.524   2.481  0.00  0.00    -0.136 F 
ATOM     37  H   UNL     1      -1.365  -6.738   4.143  0.00  0.00    +0.159 HD
ENDBRANCH  34  35
ENDBRANCH   1  34
TORSDOF 9
