REMARK  Name = ZINC39661254
REMARK  8 active torsions:
REMARK  status: ('A' for Active; 'I' for Inactive)
REMARK    1  A    between atoms: C_1  and  C_2
REMARK    2  A    between atoms: C_2  and  C_3
REMARK    3  A    between atoms: C_3  and  C_4
REMARK    4  A    between atoms: C_4  and  C_5
REMARK    5  A    between atoms: C_5  and  C_6
REMARK    6  A    between atoms: C_6  and  C_7
REMARK    7  A    between atoms: C_11  and  C_20
REMARK    8  A    between atoms: N_22  and  C_23
REMARK                            x       y       z     vdW  Elec       q    Type
REMARK                         _______ _______ _______ _____ _____    ______ ____
ROOT
ATOM      1  C   UNL     1      -4.361  -4.660  -0.009  0.00  0.00    +0.216 C 
ATOM      2  O   UNL     1      -5.307  -3.903   0.045  0.00  0.00    -0.276 OA
ATOM      3  N   UNL     1      -4.562  -5.992   0.013  0.00  0.00    -0.300 N 
ATOM      4  C   UNL     1      -3.541  -7.066  -0.037  0.00  0.00    +0.121 C 
ATOM      5  C   UNL     1      -4.055  -8.139   0.949  0.00  0.00    +0.100 C 
ATOM      6  C   UNL     1      -5.573  -7.905   1.027  0.00  0.00    -0.004 C 
ATOM      7  C   UNL     1      -5.853  -6.715   0.098  0.00  0.00    +0.115 C 
ATOM      8  C   UNL     1      -5.981  -7.558   2.456  0.00  0.00    -0.010 C 
ATOM      9  C   UNL     1      -7.502  -7.386   2.520  0.00  0.00    -0.082 C 
ATOM     10  N   UNL     1      -8.155  -8.629   2.091  0.00  0.00    +0.379 N 
ATOM     11  C   UNL     1      -7.831  -8.906   0.686  0.00  0.00    -0.082 C 
ATOM     12  C   UNL     1      -6.325  -9.142   0.545  0.00  0.00    -0.010 C 
ATOM     13  H   UNL     1      -7.832  -9.392   2.666  0.00  0.00    -0.086 HD
ATOM     14  H   UNL     1      -9.154  -8.534   2.192  0.00  0.00    -0.086 HD
ENDROOT
BRANCH   5  15
ATOM     15  C   UNL     1      -3.762  -9.520   0.421  0.00  0.00    +0.219 C 
ATOM     16  O   UNL     1      -3.749  -9.722  -0.775  0.00  0.00    -0.275 OA
ATOM     17  N   UNL     1      -3.513 -10.530   1.278  0.00  0.00    -0.304 N 
ATOM     18  H   UNL     1      -3.523 -10.368   2.234  0.00  0.00    +0.149 HD
BRANCH  17  19
ATOM     19  C   UNL     1      -3.227 -11.872   0.765  0.00  0.00    +0.151 C 
ATOM     20  C   UNL     1      -2.362 -12.620   1.781  0.00  0.00    +0.042 C 
ATOM     21  C   UNL     1      -2.552 -14.135   1.537  0.00  0.00    +0.079 C 
ATOM     22  S   UNL     1      -4.266 -14.195   0.887  0.00  0.00    -0.086 S 
ATOM     23  C   UNL     1      -4.532 -12.586   0.502  0.00  0.00    +0.209 C 
ATOM     24  O   UNL     1      -5.564 -12.095   0.095  0.00  0.00    -0.283 OA
ENDBRANCH  17  19
ENDBRANCH   5  15
BRANCH   1  25
ATOM     25  C   UNL     1      -2.960  -4.111  -0.099  0.00  0.00    +0.096 C 
BRANCH  25  26
ATOM     26  C   UNL     1      -3.012  -2.582  -0.106  0.00  0.00    +0.009 C 
BRANCH  26  27
ATOM     27  C   UNL     1      -1.590  -2.024  -0.198  0.00  0.00    +0.000 C 
BRANCH  27  28
ATOM     28  C   UNL     1      -1.641  -0.495  -0.205  0.00  0.00    -0.000 C 
BRANCH  28  30
ATOM     29  C   UNL     1      -0.271   1.592  -0.303  0.00  0.00    +0.004 C 
ATOM     30  C   UNL     1      -0.220   0.063  -0.297  0.00  0.00    -0.003 C 
ENDBRANCH  28  30
ENDBRANCH  27  28
ENDBRANCH  26  27
ENDBRANCH  25  26
ENDBRANCH   1  25
TORSDOF 7
