REMARK  Name = ZINC11872434
REMARK  10 active torsions:
REMARK  status: ('A' for Active; 'I' for Inactive)
REMARK    1  A    between atoms: C_1  and  C_2
REMARK    2  A    between atoms: C_2  and  C_3
REMARK    3  A    between atoms: C_3  and  N_49
REMARK    4  A    between atoms: C_9  and  C_13
REMARK    5  A    between atoms: C_13  and  C_15
REMARK    6  A    between atoms: C_13  and  N_18
REMARK    7  A    between atoms: C_15  and  C_16
REMARK    8  A    between atoms: C_15  and  C_17
REMARK    9  A    between atoms: N_18  and  S_19
REMARK   10  A    between atoms: S_19  and  C_22
REMARK                            x       y       z     vdW  Elec       q    Type
REMARK                         _______ _______ _______ _____ _____    ______ ____
ROOT
ATOM      1  C   UNL     1       0.110  -0.173   0.350  0.00  0.00    -0.071 C 
ATOM      2  C   UNL     1       1.382  -0.600   1.089  0.00  0.00    +0.058 C 
ATOM      3  C   UNL     1       2.517  -0.674   0.101  0.00  0.00    +0.132 A 
ATOM      4  N   UNL     1       3.397  -1.623  -0.032  0.00  0.00    -0.134 NA
ATOM      5  N   UNL     1       4.223  -1.315  -0.971  0.00  0.00    -0.133 NA
ATOM      6  C   UNL     1       3.899  -0.156  -1.482  0.00  0.00    +0.152 A 
ATOM      7  N   UNL     1       2.800   0.274  -0.827  0.00  0.00    -0.315 N 
ATOM      8  C   UNL     1       2.037   1.499  -1.065  0.00  0.00    +0.106 C 
ATOM      9  C   UNL     1       1.343   1.921   0.233  0.00  0.00    -0.057 C 
ATOM     10  N   UNL     1       0.003   1.302   0.348  0.00  0.00    +0.381 N 
ATOM     11  H   UNL     1      -0.426   1.603   1.231  0.00  0.00    -0.082 HD
ENDROOT
BRANCH  10  12
ATOM     12  C   UNL     1      -0.851   1.741  -0.770  0.00  0.00    -0.079 C 
BRANCH  12  14
ATOM     13  C   UNL     1      -3.198   1.769  -1.626  0.00  0.00    +0.002 C 
ATOM     14  C   UNL     1      -2.288   1.297  -0.490  0.00  0.00    -0.022 C 
ENDBRANCH  12  14
ENDBRANCH  10  12
BRANCH   6  15
ATOM     15  C   UNL     1       4.617   0.564  -2.594  0.00  0.00    +0.146 C 
BRANCH  15  16
ATOM     16  C   UNL     1       4.298  -0.111  -3.929  0.00  0.00    +0.009 C 
ATOM     17  C   UNL     1       2.800   0.006  -4.215  0.00  0.00    +0.009 C 
ATOM     18  C   UNL     1       5.086   0.573  -5.048  0.00  0.00    +0.009 C 
ENDBRANCH  15  16
BRANCH  15  19
ATOM     19  N   UNL     1       6.062   0.514  -2.355  0.00  0.00    -0.184 NA
ATOM     20  H   UNL     1       6.573  -0.263  -2.631  0.00  0.00    +0.148 HD
BRANCH  19  21
ATOM     21  S   UNL     1       6.822   1.784  -1.612  0.00  0.00    +0.027 S 
ATOM     22  O   UNL     1       8.185   1.391  -1.528  0.00  0.00    -0.158 OA
ATOM     23  O   UNL     1       6.444   2.926  -2.369  0.00  0.00    -0.158 OA
ATOM     24  C   UNL     1       6.090   1.861   0.045  0.00  0.00    +0.214 C 
ENDBRANCH  19  21
ENDBRANCH  15  19
ENDBRANCH   6  15
TORSDOF 6
