REMARK  Name = ZINC22561453
REMARK  16 active torsions:
REMARK  status: ('A' for Active; 'I' for Inactive)
REMARK    1  A    between atoms: C_1  and  C_2
REMARK    2  A    between atoms: C_2  and  C_4
REMARK    3  A    between atoms: C_2  and  N_30
REMARK    4  A    between atoms: C_7  and  S_16
REMARK    5  A    between atoms: N_8  and  C_9
REMARK    6  A    between atoms: S_16  and  C_17
REMARK    7  A    between atoms: C_17  and  C_19
REMARK    8  A    between atoms: C_17  and  C_20
REMARK    9  A    between atoms: N_22  and  C_23
REMARK   10  A    between atoms: C_23  and  C_24
REMARK   11  A    between atoms: C_23  and  C_25
REMARK   12  A    between atoms: C_23  and  C_27
REMARK   13  A    between atoms: C_27  and  C_28
REMARK   14  A    between atoms: C_27  and  C_29
REMARK   15  A    between atoms: N_30  and  C_31
REMARK   16  A    between atoms: N_30  and  C_32
REMARK                            x       y       z     vdW  Elec       q    Type
REMARK                         _______ _______ _______ _____ _____    ______ ____
ROOT
ATOM      1  C   UNL     1       0.707  -0.490  -1.238  0.00  0.00    +0.125 A 
ATOM      2  N   UNL     1       0.230  -0.486  -2.450  0.00  0.00    -0.135 NA
ATOM      3  N   UNL     1       1.094  -0.971  -3.268  0.00  0.00    -0.122 NA
ATOM      4  C   UNL     1       2.182  -1.314  -2.618  0.00  0.00    +0.197 A 
ATOM      5  N   UNL     1       1.972  -1.012  -1.300  0.00  0.00    -0.275 N 
ENDROOT
BRANCH   5   6
ATOM      6  C   UNL     1       2.865  -1.202  -0.235  0.00  0.00    +0.050 A 
ATOM      7  C   UNL     1       3.364  -0.107   0.457  0.00  0.00    +0.028 A 
ATOM      8  C   UNL     1       4.242  -0.296   1.506  0.00  0.00    +0.022 A 
ATOM      9  C   UNL     1       4.625  -1.576   1.867  0.00  0.00    +0.041 A 
ATOM     10  C   UNL     1       4.129  -2.669   1.179  0.00  0.00    +0.022 A 
ATOM     11  C   UNL     1       3.246  -2.485   0.133  0.00  0.00    +0.028 A 
ATOM     12 CL   UNL     1       5.730  -1.810   3.185  0.00  0.00    -0.084 Cl
ENDBRANCH   5   6
BRANCH   1  14
ATOM     13  C   UNL     1      -0.019   1.526   0.010  0.00  0.00    -0.005 C 
ATOM     14  C   UNL     1       0.002  -0.004   0.002  0.00  0.00    -0.003 C 
BRANCH  14  15
ATOM     15  N   UNL     1      -1.376  -0.512   0.012  0.00  0.00    +0.382 N 
ATOM     16  C   UNL     1      -1.356  -1.981   0.004  0.00  0.00    -0.096 C 
ATOM     17  C   UNL     1      -2.064  -0.039   1.221  0.00  0.00    -0.096 C 
ATOM     18  H   UNL     1      -1.864  -0.178  -0.805  0.00  0.00    -0.082 HD
ENDBRANCH  14  15
ENDBRANCH   1  14
BRANCH   4  19
ATOM     19  S   UNL     1       3.638  -2.022  -3.312  0.00  0.00    -0.073 S 
BRANCH  19  20
ATOM     20  C   UNL     1       3.264  -2.148  -5.083  0.00  0.00    +0.137 C 
ATOM     21  C   UNL     1       2.117  -3.138  -5.292  0.00  0.00    +0.029 C 
BRANCH  20  22
ATOM     22  C   UNL     1       4.486  -2.631  -5.821  0.00  0.00    +0.227 C 
ATOM     23  O   UNL     1       5.327  -3.283  -5.240  0.00  0.00    -0.275 OA
ATOM     24  N   UNL     1       4.643  -2.338  -7.128  0.00  0.00    -0.296 N 
ATOM     25  H   UNL     1       3.970  -1.817  -7.592  0.00  0.00    +0.150 HD
BRANCH  24  26
ATOM     26  C   UNL     1       5.831  -2.808  -7.845  0.00  0.00    +0.121 C 
ATOM     27  C   UNL     1       5.883  -4.336  -7.800  0.00  0.00    +0.048 C 
BRANCH  26  28
ATOM     28  C   UNL     1       5.763  -2.343  -9.302  0.00  0.00    +0.020 C 
ATOM     29  C   UNL     1       7.059  -2.725 -10.019  0.00  0.00    +0.010 C 
ATOM     30  C   UNL     1       4.578  -3.014  -9.997  0.00  0.00    +0.010 C 
ENDBRANCH  26  28
BRANCH  26  31
ATOM     31  C   UNL     1       7.038  -2.257  -7.209  0.00  0.00    +0.088 C 
ATOM     32  N   UNL     1       7.970  -1.831  -6.719  0.00  0.00    -0.194 NA
ENDBRANCH  26  31
ENDBRANCH  24  26
ENDBRANCH  20  22
ENDBRANCH  19  20
ENDBRANCH   4  19
TORSDOF 9
