REMARK  Name = ZINC36485151
REMARK  16 active torsions:
REMARK  status: ('A' for Active; 'I' for Inactive)
REMARK    1  A    between atoms: C_1  and  C_2
REMARK    2  A    between atoms: C_3  and  C_4
REMARK    3  A    between atoms: C_4  and  C_6
REMARK    4  A    between atoms: C_4  and  N_17
REMARK    5  A    between atoms: N_8  and  C_9
REMARK    6  A    between atoms: C_9  and  C_10
REMARK    7  A    between atoms: C_9  and  C_11
REMARK    8  A    between atoms: C_9  and  C_12
REMARK    9  A    between atoms: C_12  and  C_13
REMARK   10  A    between atoms: C_13  and  C_14
REMARK   11  A    between atoms: C_13  and  C_15
REMARK   12  A    between atoms: C_13  and  C_16
REMARK   13  A    between atoms: N_17  and  C_18
REMARK   14  A    between atoms: C_25  and  C_27
REMARK   15  A    between atoms: C_31  and  O_34
REMARK   16  A    between atoms: C_32  and  O_33
REMARK                            x       y       z     vdW  Elec       q    Type
REMARK                         _______ _______ _______ _____ _____    ______ ____
ROOT
ATOM      1  N   UNL     1       2.119   0.318   2.323  0.00  0.00    -0.252 N 
ATOM      2  C   UNL     1       1.398   0.767   3.369  0.00  0.00    +0.255 C 
ATOM      3  O   UNL     1       1.561   0.283   4.472  0.00  0.00    -0.269 OA
ENDROOT
BRANCH   1   4
ATOM      4  C   UNL     1       1.967   0.907   1.064  0.00  0.00    +0.039 A 
ATOM      5  C   UNL     1       1.315   0.220   0.048  0.00  0.00    +0.023 A 
ATOM      6  C   UNL     1       1.166   0.805  -1.195  0.00  0.00    +0.003 A 
ATOM      7  C   UNL     1       1.665   2.073  -1.429  0.00  0.00    +0.020 A 
ATOM      8  C   UNL     1       2.316   2.760  -0.419  0.00  0.00    +0.043 A 
ATOM      9  C   UNL     1       2.462   2.183   0.829  0.00  0.00    +0.043 A 
ATOM     10 CL   UNL     1       2.941   4.352  -0.717  0.00  0.00    -0.083 Cl
ENDBRANCH   1   4
BRANCH   2  11
ATOM     11  C   UNL     1       0.411   1.846   3.175  0.00  0.00    +0.082 A 
ATOM     12  C   UNL     1      -0.314   1.929   1.982  0.00  0.00    +0.017 A 
ATOM     13  C   UNL     1      -1.235   2.938   1.805  0.00  0.00    +0.005 A 
ATOM     14  C   UNL     1      -1.448   3.875   2.804  0.00  0.00    +0.049 A 
ATOM     15  C   UNL     1      -0.738   3.806   3.990  0.00  0.00    +0.159 A 
ATOM     16  C   UNL     1       0.191   2.788   4.187  0.00  0.00    +0.171 A 
BRANCH  16  17
ATOM     17  O   UNL     1       0.885   2.714   5.351  0.00  0.00    -0.503 OA
ATOM     18  H   UNL     1       1.716   3.208   5.346  0.00  0.00    +0.292 HD
ENDBRANCH  16  17
BRANCH  15  19
ATOM     19  O   UNL     1      -0.953   4.729   4.966  0.00  0.00    -0.503 OA
ATOM     20  H   UNL     1      -1.645   4.483   5.595  0.00  0.00    +0.292 HD
ENDBRANCH  15  19
ENDBRANCH   2  11
BRANCH   1  21
ATOM     21  C   UNL     1       3.062  -0.788   2.504  0.00  0.00    +0.190 C 
BRANCH  21  22
ATOM     22  C   UNL     1       4.435  -0.356   2.060  0.00  0.00    +0.238 C 
ATOM     23  O   UNL     1       4.609   0.766   1.633  0.00  0.00    -0.273 OA
ATOM     24  N   UNL     1       5.470  -1.216   2.136  0.00  0.00    -0.308 N 
ATOM     25  H   UNL     1       5.331  -2.113   2.478  0.00  0.00    +0.149 HD
BRANCH  24  26
ATOM     26  C   UNL     1       6.806  -0.795   1.704  0.00  0.00    +0.030 C 
ATOM     27  C   UNL     1       6.801  -0.557   0.193  0.00  0.00    +0.031 C 
ATOM     28  C   UNL     1       7.190   0.500   2.423  0.00  0.00    +0.031 C 
BRANCH  26  29
ATOM     29  C   UNL     1       7.820  -1.888   2.045  0.00  0.00    +0.031 C 
BRANCH  29  30
ATOM     30  C   UNL     1       7.320  -2.691   3.248  0.00  0.00    -0.036 C 
ATOM     31  C   UNL     1       6.302  -3.732   2.779  0.00  0.00    +0.010 C 
ATOM     32  C   UNL     1       8.501  -3.397   3.917  0.00  0.00    +0.010 C 
ATOM     33  C   UNL     1       6.656  -1.746   4.252  0.00  0.00    +0.010 C 
ENDBRANCH  29  30
ENDBRANCH  26  29
ENDBRANCH  24  26
ENDBRANCH  21  22
BRANCH  21  36
ATOM     34  C   UNL     1       2.273  -3.180   3.773  0.00  0.00    +0.035 C 
ATOM     35  C   UNL     1       2.304  -3.097   2.269  0.00  0.00    -0.032 C 
ATOM     36  C   UNL     1       2.616  -1.969   1.681  0.00  0.00    +0.000 C 
ENDBRANCH  21  36
ENDBRANCH   1  21
TORSDOF 10
