REMARK  Name = ZINC49113902
REMARK  11 active torsions:
REMARK  status: ('A' for Active; 'I' for Inactive)
REMARK    1  A    between atoms: C_1  and  C_2
REMARK    2  A    between atoms: C_3  and  C_28
REMARK    3  A    between atoms: C_4  and  C_19
REMARK    4  A    between atoms: C_6  and  C_10
REMARK    5  A    between atoms: C_7  and  C_9
REMARK    6  A    between atoms: C_10  and  O_12
REMARK    7  A    between atoms: O_12  and  C_13
REMARK    8  A    between atoms: C_13  and  C_14
REMARK    9  A    between atoms: C_23  and  N_25
REMARK   10  A    between atoms: C_28  and  O_30
REMARK   11  A    between atoms: O_30  and  C_31
REMARK                            x       y       z     vdW  Elec       q    Type
REMARK                         _______ _______ _______ _____ _____    ______ ____
ROOT
ATOM      1  C   UNL     1       0.129   1.484   0.339  0.00  0.00    +0.061 C 
ATOM      2  C   UNL     1       0.074  -0.012   0.163  0.00  0.00    +0.016 C 
ATOM      3  C   UNL     1      -1.117  -0.634   0.136  0.00  0.00    +0.065 C 
ATOM      4  C   UNL     1      -1.220  -2.122  -0.046  0.00  0.00    +0.096 C 
ATOM      5  C   UNL     1       0.105  -2.781   0.208  0.00  0.00    +0.065 C 
ATOM      6  C   UNL     1       1.248  -2.073   0.232  0.00  0.00    +0.016 C 
ATOM      7  N   UNL     1       1.237  -0.719   0.026  0.00  0.00    -0.321 N 
ATOM      8  C   UNL     1       2.556  -2.778   0.482  0.00  0.00    +0.061 C 
ATOM      9  H   UNL     1       2.057  -0.259  -0.212  0.00  0.00    +0.152 HD
ENDROOT
BRANCH   4  10
ATOM     10  C   UNL     1      -1.660  -2.420  -1.456  0.00  0.00    -0.033 A 
ATOM     11  C   UNL     1      -0.885  -2.007  -2.524  0.00  0.00    +0.005 A 
ATOM     12  C   UNL     1      -1.288  -2.281  -3.817  0.00  0.00    +0.003 A 
ATOM     13  C   UNL     1      -2.466  -2.968  -4.043  0.00  0.00    +0.033 A 
ATOM     14  C   UNL     1      -3.241  -3.382  -2.976  0.00  0.00    +0.126 A 
ATOM     15  C   UNL     1      -2.835  -3.112  -1.682  0.00  0.00    +0.037 A 
BRANCH  14  16
ATOM     16  N   UNL     1      -4.502  -4.118  -3.218  0.00  0.00    +0.056 N 
ATOM     17  O   UNL     1      -4.856  -4.356  -4.349  0.00  0.00    -0.126 OA
ATOM     18  O   UNL     1      -5.179  -4.479  -2.284  0.00  0.00    -0.126 OA
ENDBRANCH  14  16
ENDBRANCH   4  10
BRANCH   5  19
ATOM     19  C   UNL     1       0.153  -4.178   0.427  0.00  0.00    +0.338 C 
ATOM     20  O   UNL     1      -0.227  -4.641   1.486  0.00  0.00    -0.245 OA
BRANCH  19  21
ATOM     21  O   UNL     1       0.618  -4.997  -0.539  0.00  0.00    -0.456 OA
BRANCH  21  22
ATOM     22  C   UNL     1       0.637  -6.396  -0.250  0.00  0.00    +0.275 C 
BRANCH  22  23
ATOM     23  C   UNL     1       1.185  -7.147  -1.437  0.00  0.00    +0.027 A 
ATOM     24  C   UNL     1       2.467  -7.483  -1.716  0.00  0.00    +0.014 A 
ATOM     25  C   UNL     1       2.739  -8.182  -2.877  0.00  0.00    +0.008 A 
ATOM     26  C   UNL     1       1.715  -8.511  -3.702  0.00  0.00    +0.045 A 
ATOM     27  S   UNL     1       0.310  -7.832  -2.834  0.00  0.00    -0.098 S 
ENDBRANCH  22  23
ENDBRANCH  21  22
ENDBRANCH  19  21
ENDBRANCH   5  19
BRANCH   3  28
ATOM     28  C   UNL     1      -2.300   0.129   0.282  0.00  0.00    +0.337 C 
ATOM     29  O   UNL     1      -2.231   1.334   0.430  0.00  0.00    -0.245 OA
BRANCH  28  30
ATOM     30  O   UNL     1      -3.503  -0.481   0.257  0.00  0.00    -0.465 OA
ATOM     31  C   UNL     1      -4.655   0.350   0.410  0.00  0.00    +0.280 C 
ENDBRANCH  28  30
ENDBRANCH   3  28
TORSDOF 8
