REMARK  Name = ZINC50398196
REMARK  2 active torsions:
REMARK  status: ('A' for Active; 'I' for Inactive)
REMARK    1  A    between atoms: C_3  and  N_9
REMARK    2  A    between atoms: C_15  and  C_18
REMARK                            x       y       z     vdW  Elec       q    Type
REMARK                         _______ _______ _______ _____ _____    ______ ____
ROOT
ATOM      1  N   UNL     1       3.500   1.918  -1.292  0.00  0.00    -0.288 N 
ATOM      2  C   UNL     1       4.188   2.169  -2.424  0.00  0.00    +0.303 C 
ATOM      3  O   UNL     1       3.628   2.110  -3.502  0.00  0.00    -0.253 OA
ATOM      4  N   UNL     1       5.496   2.486  -2.361  0.00  0.00    -0.286 N 
ATOM      5  C   UNL     1       6.231   2.876  -3.572  0.00  0.00    +0.110 C 
ATOM      6  C   UNL     1       6.914   4.224  -3.322  0.00  0.00    +0.034 C 
ATOM      7  C   UNL     1       7.781   4.127  -2.064  0.00  0.00    +0.105 C 
ATOM      8  C   UNL     1       6.898   3.802  -0.857  0.00  0.00    +0.034 C 
ATOM      9  C   UNL     1       6.213   2.454  -1.079  0.00  0.00    +0.110 C 
ATOM     10  H   UNL     1       3.961   1.894  -0.440  0.00  0.00    +0.151 HD
ENDROOT
BRANCH   1  13
ATOM     11  C   UNL     1      -0.019   1.528   0.010  0.00  0.00    +0.021 C 
ATOM     12  C   UNL     1       1.427   2.038  -0.001  0.00  0.00    +0.033 C 
ATOM     13  C   UNL     1       2.055   1.682  -1.351  0.00  0.00    +0.160 C 
ATOM     14  C   UNL     1       1.800   0.236  -1.668  0.00  0.00    +0.233 C 
ATOM     15  O   UNL     1       2.484  -0.294  -2.517  0.00  0.00    -0.274 OA
ATOM     16  N   UNL     1       0.862  -0.495  -1.065  0.00  0.00    -0.314 N 
ATOM     17  C   UNL     1       0.001  -0.002   0.003  0.00  0.00    +0.104 C 
ATOM     18  H   UNL     1       0.745  -1.413  -1.356  0.00  0.00    +0.149 HD
ENDBRANCH   1  13
BRANCH   7  19
ATOM     19  C   UNL     1       8.481   5.441  -1.834  0.00  0.00    +0.359 C 
ATOM     20  O   UNL     1       8.757   5.795  -0.700  0.00  0.00    -0.246 OA
ATOM     21  O   UNL     1       8.772   6.151  -2.782  0.00  0.00    -0.246 OA
ENDBRANCH   7  19
TORSDOF 2
