REMARK  Name = ZINC64245151
REMARK  5 active torsions:
REMARK  status: ('A' for Active; 'I' for Inactive)
REMARK    1  A    between atoms: C_1  and  C_2
REMARK    2  A    between atoms: C_4  and  C_23
REMARK    3  A    between atoms: N_11  and  S_12
REMARK    4  A    between atoms: S_12  and  C_15
REMARK    5  A    between atoms: C_18  and  N_20
REMARK                            x       y       z     vdW  Elec       q    Type
REMARK                         _______ _______ _______ _____ _____    ______ ____
ROOT
ATOM      1  C   UNL     1      -0.249   1.476   0.113  0.00  0.00    +0.030 C 
ATOM      2  C   UNL     1      -0.097  -0.045   0.069  0.00  0.00    +0.096 C 
ATOM      3  C   UNL     1       0.460  -0.473  -1.296  0.00  0.00    +0.041 C 
ATOM      4  C   UNL     1       0.538  -1.999  -1.341  0.00  0.00    +0.108 C 
ATOM      5  C   UNL     1       1.265  -2.526  -0.132  0.00  0.00    -0.013 A 
ATOM      6  C   UNL     1       1.816  -3.796  -0.183  0.00  0.00    +0.006 A 
ATOM      7  C   UNL     1       2.487  -4.308   0.911  0.00  0.00    +0.000 A 
ATOM      8  C   UNL     1       2.612  -3.556   2.064  0.00  0.00    +0.002 A 
ATOM      9  C   UNL     1       2.067  -2.289   2.123  0.00  0.00    +0.025 A 
ATOM     10  C   UNL     1       1.393  -1.770   1.022  0.00  0.00    +0.055 A 
ATOM     11  N   UNL     1       0.856  -0.480   1.099  0.00  0.00    -0.199 N 
ENDROOT
BRANCH   4  12
ATOM     12  C   UNL     1       1.270  -2.423  -2.588  0.00  0.00    +0.218 C 
ATOM     13  O   UNL     1       2.196  -1.758  -3.003  0.00  0.00    -0.275 OA
ATOM     14  N   UNL     1       0.898  -3.542  -3.241  0.00  0.00    -0.329 N 
ATOM     15  H   UNL     1       0.206  -4.112  -2.870  0.00  0.00    +0.145 HD
ATOM     16  H   UNL     1       1.321  -3.777  -4.081  0.00  0.00    +0.145 HD
ENDBRANCH   4  12
BRANCH  11  17
ATOM     17  S   UNL     1       1.287   0.539   2.331  0.00  0.00    +0.081 S 
ATOM     18  O   UNL     1       2.536   0.075   2.823  0.00  0.00    -0.149 OA
ATOM     19  O   UNL     1       1.103   1.862   1.846  0.00  0.00    -0.149 OA
BRANCH  17  20
ATOM     20  C   UNL     1       0.117   0.311   3.629  0.00  0.00    +0.148 A 
ATOM     21  C   UNL     1       0.160  -0.551   4.674  0.00  0.00    +0.039 A 
ATOM     22  C   UNL     1      -0.882  -0.555   5.582  0.00  0.00    +0.042 A 
ATOM     23  C   UNL     1      -1.916   0.303   5.400  0.00  0.00    +0.165 A 
ATOM     24  S   UNL     1      -1.426   1.161   3.913  0.00  0.00    -0.044 S 
BRANCH  23  25
ATOM     25  N   UNL     1      -3.133   0.485   6.224  0.00  0.00    +0.063 N 
ATOM     26  O   UNL     1      -3.299  -0.190   7.214  0.00  0.00    -0.126 OA
ATOM     27  O   UNL     1      -3.960   1.308   5.907  0.00  0.00    -0.126 OA
ENDBRANCH  23  25
ENDBRANCH  17  20
ENDBRANCH  11  17
TORSDOF 4
