REMARK  Name = ZINC21706994
REMARK  12 active torsions:
REMARK  status: ('A' for Active; 'I' for Inactive)
REMARK    1  A    between atoms: C_1  and  C_2
REMARK    2  A    between atoms: C_4  and  C_35
REMARK    3  A    between atoms: C_5  and  S_9
REMARK    4  A    between atoms: C_6  and  C_8
REMARK    5  A    between atoms: S_9  and  N_12
REMARK    6  A    between atoms: N_12  and  C_13
REMARK    7  A    between atoms: C_16  and  C_19
REMARK    8  A    between atoms: C_25  and  C_28
REMARK    9  A    between atoms: N_30  and  C_31
REMARK   10  A    between atoms: C_31  and  C_32
REMARK   11  A    between atoms: C_32  and  C_33
REMARK   12  A    between atoms: C_32  and  C_34
REMARK                            x       y       z     vdW  Elec       q    Type
REMARK                         _______ _______ _______ _____ _____    ______ ____
ROOT
ATOM      1  C   UNL     1       1.450  -5.161   0.395  0.00  0.00    +0.048 A 
ATOM      2  C   UNL     1       1.506  -3.959   1.096  0.00  0.00    +0.025 A 
ATOM      3  C   UNL     1       2.633  -3.632   1.813  0.00  0.00    +0.015 A 
ATOM      4  C   UNL     1       3.723  -4.507   1.838  0.00  0.00    +0.037 A 
ATOM      5  C   UNL     1       3.664  -5.712   1.133  0.00  0.00    +0.015 A 
ATOM      6  C   UNL     1       2.531  -6.037   0.422  0.00  0.00    +0.025 A 
ENDROOT
BRANCH   4   7
ATOM      7  C   UNL     1       4.934  -4.158   2.606  0.00  0.00    +0.247 C 
ATOM      8  O   UNL     1       5.463  -4.990   3.317  0.00  0.00    -0.270 OA
ATOM      9  N   UNL     1       5.454  -2.918   2.518  0.00  0.00    -0.297 N 
ATOM     10  C   UNL     1       4.772  -1.874   1.741  0.00  0.00    +0.108 C 
ATOM     11  C   UNL     1       5.763  -1.282   0.733  0.00  0.00    +0.020 C 
ATOM     12  C   UNL     1       7.012  -0.800   1.475  0.00  0.00    +0.016 C 
ATOM     13  C   UNL     1       7.682  -1.985   2.174  0.00  0.00    +0.092 C 
ATOM     14  C   UNL     1       6.710  -2.583   3.202  0.00  0.00    +0.120 C 
BRANCH  13  15
ATOM     15  C   UNL     1       8.929  -1.514   2.877  0.00  0.00    +0.218 C 
ATOM     16  O   UNL     1       9.251  -0.346   2.825  0.00  0.00    -0.275 OA
ATOM     17  N   UNL     1       9.688  -2.392   3.564  0.00  0.00    -0.315 N 
ATOM     18  H   UNL     1       9.431  -3.326   3.606  0.00  0.00    +0.149 HD
BRANCH  17  19
ATOM     19  C   UNL     1      10.900  -1.934   4.247  0.00  0.00    +0.107 C 
BRANCH  19  20
ATOM     20  C   UNL     1      11.570  -3.119   4.945  0.00  0.00    -0.000 C 
ATOM     21  C   UNL     1      12.899  -2.668   5.553  0.00  0.00    +0.009 C 
ATOM     22  C   UNL     1      10.654  -3.643   6.053  0.00  0.00    +0.009 C 
ENDBRANCH  19  20
ENDBRANCH  17  19
ENDBRANCH  13  15
ENDBRANCH   4   7
BRANCH   1  23
ATOM     23  N   UNL     1       0.309  -5.489  -0.329  0.00  0.00    -0.216 N 
ATOM     24  H   UNL     1       0.389  -5.816  -1.239  0.00  0.00    +0.174 HD
BRANCH  23  25
ATOM     25  S   UNL     1      -1.187  -5.321   0.362  0.00  0.00    +0.073 S 
ATOM     26  O   UNL     1      -1.110  -5.920   1.648  0.00  0.00    -0.150 OA
ATOM     27  O   UNL     1      -2.134  -5.733  -0.615  0.00  0.00    -0.150 OA
BRANCH  25  32
ATOM     28  C   UNL     1      -2.084   0.578   1.256  0.00  0.00    +0.044 C 
ATOM     29  C   UNL     1      -1.860  -0.896   1.032  0.00  0.00    -0.050 A 
ATOM     30  C   UNL     1      -1.459  -1.701   2.082  0.00  0.00    +0.008 A 
ATOM     31  C   UNL     1      -1.254  -3.052   1.877  0.00  0.00    -0.023 A 
ATOM     32  C   UNL     1      -1.450  -3.599   0.623  0.00  0.00    +0.114 A 
ATOM     33  C   UNL     1      -1.852  -2.794  -0.427  0.00  0.00    -0.023 A 
ATOM     34  C   UNL     1      -2.061  -1.443  -0.221  0.00  0.00    +0.008 A 
ATOM     35  C   UNL     1      -2.065  -3.390  -1.794  0.00  0.00    +0.046 C 
ATOM     36  C   UNL     1      -0.815  -3.929   3.022  0.00  0.00    +0.046 C 
ENDBRANCH  25  32
ENDBRANCH  23  25
ENDBRANCH   1  23
TORSDOF 7
