REMARK  Name = ZINC60042930
REMARK  9 active torsions:
REMARK  status: ('A' for Active; 'I' for Inactive)
REMARK    1  A    between atoms: C_1  and  C_2
REMARK    2  A    between atoms: C_3  and  S_23
REMARK    3  A    between atoms: C_4  and  C_22
REMARK    4  A    between atoms: N_5  and  C_7
REMARK    5  A    between atoms: C_7  and  C_8
REMARK    6  A    between atoms: C_8  and  C_10
REMARK    7  A    between atoms: C_8  and  O_21
REMARK    8  A    between atoms: C_10  and  N_11
REMARK    9  A    between atoms: S_23  and  N_26
REMARK                            x       y       z     vdW  Elec       q    Type
REMARK                         _______ _______ _______ _____ _____    ______ ____
ROOT
ATOM      1  C   UNL     1      -0.018   1.503   0.010  0.00  0.00    +0.069 C 
ATOM      2  C   UNL     1       0.002  -0.004   0.002  0.00  0.00    +0.087 A 
ATOM      3  C   UNL     1       0.008  -0.818  -1.135  0.00  0.00    +0.152 A 
ATOM      4  C   UNL     1       0.028  -2.107  -0.725  0.00  0.00    +0.063 A 
ATOM      5  N   UNL     1       0.034  -2.109   0.625  0.00  0.00    -0.264 N 
ATOM      6  N   UNL     1       0.023  -0.777   1.058  0.00  0.00    -0.174 NA
ATOM      7  C   UNL     1       0.040  -3.323  -1.615  0.00  0.00    +0.067 C 
ENDROOT
BRANCH   3   8
ATOM      8  S   UNL     1      -0.009  -0.263  -2.808  0.00  0.00    +0.078 S 
ATOM      9  O   UNL     1      -0.549  -1.324  -3.583  0.00  0.00    -0.150 OA
ATOM     10  O   UNL     1      -0.578   1.039  -2.797  0.00  0.00    -0.150 OA
BRANCH   8  11
ATOM     11  N   UNL     1       1.569  -0.086  -3.280  0.00  0.00    -0.202 N 
ATOM     12  C   UNL     1       2.356   1.141  -3.136  0.00  0.00    +0.136 C 
ATOM     13  C   UNL     1       3.739   0.803  -3.716  0.00  0.00    +0.058 C 
ATOM     14  C   UNL     1       3.624  -0.639  -4.158  0.00  0.00    -0.023 A 
ATOM     15  C   UNL     1       2.344  -1.087  -3.869  0.00  0.00    +0.054 A 
ATOM     16  C   UNL     1       1.999  -2.402  -4.185  0.00  0.00    +0.025 A 
ATOM     17  C   UNL     1       2.923  -3.242  -4.771  0.00  0.00    +0.002 A 
ATOM     18  C   UNL     1       4.198  -2.786  -5.050  0.00  0.00    +0.000 A 
ATOM     19  C   UNL     1       4.544  -1.482  -4.749  0.00  0.00    +0.005 A 
ENDBRANCH   8  11
ENDBRANCH   3   8
BRANCH   5  20
ATOM     20  C   UNL     1       0.055  -3.295   1.485  0.00  0.00    +0.173 C 
BRANCH  20  21
ATOM     21  C   UNL     1       1.504  -3.688   1.777  0.00  0.00    +0.119 C 
BRANCH  21  22
ATOM     22  O   UNL     1       2.143  -4.090   0.564  0.00  0.00    -0.392 OA
ATOM     23  H   UNL     1       1.724  -4.846   0.131  0.00  0.00    +0.210 HD
ENDBRANCH  21  22
BRANCH  21  24
ATOM     24  C   UNL     1       1.527  -4.848   2.774  0.00  0.00    -0.045 C 
BRANCH  24  25
ATOM     25  N   UNL     1       2.916  -5.146   3.147  0.00  0.00    +0.384 N 
ATOM     26  C   UNL     1       2.948  -6.329   4.020  0.00  0.00    -0.074 C 
ATOM     27  C   UNL     1       4.397  -6.804   4.145  0.00  0.00    +0.017 C 
ATOM     28  C   UNL     1       5.282  -5.646   4.528  0.00  0.00    -0.048 A 
ATOM     29  C   UNL     1       6.548  -5.913   5.025  0.00  0.00    +0.004 A 
ATOM     30  C   UNL     1       7.388  -4.878   5.383  0.00  0.00    +0.000 A 
ATOM     31  C   UNL     1       6.964  -3.569   5.246  0.00  0.00    +0.000 A 
ATOM     32  C   UNL     1       5.703  -3.303   4.753  0.00  0.00    +0.002 A 
ATOM     33  C   UNL     1       4.857  -4.341   4.394  0.00  0.00    -0.061 A 
ATOM     34  C   UNL     1       3.486  -4.005   3.869  0.00  0.00    -0.043 C 
ATOM     35  H   UNL     1       3.458  -5.324   2.315  0.00  0.00    -0.081 HD
ENDBRANCH  24  25
ENDBRANCH  21  24
ENDBRANCH  20  21
ENDBRANCH   5  20
TORSDOF 7
