REMARK  Name = ZINC39589172
REMARK  8 active torsions:
REMARK  status: ('A' for Active; 'I' for Inactive)
REMARK    1  A    between atoms: C_1  and  C_2
REMARK    2  A    between atoms: C_2  and  C_4
REMARK    3  A    between atoms: C_2  and  O_15
REMARK    4  A    between atoms: N_6  and  C_7
REMARK    5  A    between atoms: C_12  and  C_13
REMARK    6  A    between atoms: O_15  and  C_16
REMARK    7  A    between atoms: C_16  and  C_18
REMARK    8  A    between atoms: C_20  and  C_28
REMARK                            x       y       z     vdW  Elec       q    Type
REMARK                         _______ _______ _______ _____ _____    ______ ____
ROOT
ATOM      1  C   UNL     1      -1.934  -0.655  -1.300  0.00  0.00    +0.341 C 
ATOM      2  O   UNL     1      -1.320  -0.408  -2.318  0.00  0.00    -0.245 OA
ENDROOT
BRANCH   1   3
ATOM      3  C   UNL     1      -3.319  -1.165  -1.377  0.00  0.00    +0.070 A 
ATOM      4  C   UNL     1      -4.082  -1.357  -0.235  0.00  0.00    +0.044 A 
ATOM      5  C   UNL     1      -5.395  -1.844  -0.356  0.00  0.00    +0.079 A 
ATOM      6  N   UNL     1      -5.935  -2.128  -1.526  0.00  0.00    -0.246 NA
ATOM      7  C   UNL     1      -5.272  -1.972  -2.674  0.00  0.00    +0.072 A 
ATOM      8  C   UNL     1      -3.942  -1.482  -2.664  0.00  0.00    +0.014 A 
ATOM      9  C   UNL     1      -3.253  -1.316  -3.870  0.00  0.00    +0.011 A 
ATOM     10  C   UNL     1      -3.870  -1.624  -5.046  0.00  0.00    +0.001 A 
ATOM     11  C   UNL     1      -5.179  -2.101  -5.062  0.00  0.00    +0.002 A 
ATOM     12  C   UNL     1      -5.874  -2.284  -3.907  0.00  0.00    +0.028 A 
BRANCH   5  13
ATOM     13  C   UNL     1      -6.197  -2.045   0.866  0.00  0.00    +0.038 A 
ATOM     14  C   UNL     1      -7.481  -2.508   0.991  0.00  0.00    +0.017 A 
ATOM     15  C   UNL     1      -8.027  -2.613   2.249  0.00  0.00    +0.008 A 
ATOM     16  C   UNL     1      -7.280  -2.255   3.327  0.00  0.00    +0.046 A 
ATOM     17  S   UNL     1      -5.744  -1.754   2.568  0.00  0.00    -0.095 S 
ENDBRANCH   5  13
ENDBRANCH   1   3
BRANCH   1  18
ATOM     18  O   UNL     1      -1.353  -0.465  -0.099  0.00  0.00    -0.449 OA
BRANCH  18  20
ATOM     19  C   UNL     1      -0.034   1.560  -0.071  0.00  0.00    +0.062 C 
ATOM     20  C   UNL     1      -0.012   0.030  -0.099  0.00  0.00    +0.259 C 
BRANCH  20  21
ATOM     21  C   UNL     1       0.713  -0.484   1.118  0.00  0.00    +0.258 C 
ATOM     22  O   UNL     1       0.114  -1.128   1.953  0.00  0.00    -0.271 OA
ATOM     23  N   UNL     1       2.026  -0.228   1.278  0.00  0.00    -0.281 N 
ATOM     24  H   UNL     1       2.523   0.217   0.574  0.00  0.00    +0.155 HD
BRANCH  23  25
ATOM     25  C   UNL     1       2.671  -0.603   2.456  0.00  0.00    +0.051 A 
ATOM     26  C   UNL     1       1.947  -0.750   3.631  0.00  0.00    +0.024 A 
ATOM     27  C   UNL     1       2.587  -1.121   4.796  0.00  0.00    +0.002 A 
ATOM     28  C   UNL     1       3.954  -1.349   4.804  0.00  0.00    +0.001 A 
ATOM     29  C   UNL     1       4.689  -1.207   3.647  0.00  0.00    +0.021 A 
ATOM     30  C   UNL     1       4.054  -0.838   2.458  0.00  0.00    +0.073 A 
BRANCH  30  31
ATOM     31  C   UNL     1       4.811  -0.695   1.252  0.00  0.00    +0.101 C 
ATOM     32  N   UNL     1       5.412  -0.581   0.294  0.00  0.00    -0.191 NA
ENDBRANCH  30  31
ENDBRANCH  23  25
ENDBRANCH  20  21
ENDBRANCH  18  20
ENDBRANCH   1  18
TORSDOF 7
