REMARK  Name = ZINC08606629
REMARK  13 active torsions:
REMARK  status: ('A' for Active; 'I' for Inactive)
REMARK    1  A    between atoms: C_1  and  C_2
REMARK    2  A    between atoms: C_4  and  C_38
REMARK    3  A    between atoms: C_5  and  C_9
REMARK    4  A    between atoms: C_6  and  O_8
REMARK    5  A    between atoms: N_17  and  C_32
REMARK    6  A    between atoms: C_18  and  C_20
REMARK    7  A    between atoms: C_22  and  O_30
REMARK    8  A    between atoms: C_23  and  O_28
REMARK    9  A    between atoms: C_24  and  O_26
REMARK   10  A    between atoms: O_26  and  C_27
REMARK   11  A    between atoms: O_28  and  C_29
REMARK   12  A    between atoms: O_30  and  C_31
REMARK   13  A    between atoms: C_32  and  C_33
REMARK                            x       y       z     vdW  Elec       q    Type
REMARK                         _______ _______ _______ _____ _____    ______ ____
ROOT
ATOM      1  C   UNL     1      -0.749  -3.744  -0.112  0.00  0.00    +0.102 A 
ATOM      2  C   UNL     1      -0.383  -4.660   0.880  0.00  0.00    +0.035 A 
ATOM      3  C   UNL     1      -0.158  -5.855   0.224  0.00  0.00    +0.126 A 
ATOM      4  N   UNL     1      -0.393  -5.611  -1.099  0.00  0.00    -0.272 N 
ATOM      5  H   UNL     1      -0.316  -6.268  -1.809  0.00  0.00    +0.189 HD
ATOM      6  N   UNL     1      -0.739  -4.384  -1.264  0.00  0.00    -0.173 NA
ATOM      7  C   UNL     1       0.232  -6.865   1.214  0.00  0.00    +0.266 C 
ATOM      8  O   UNL     1       0.498  -8.023   0.957  0.00  0.00    -0.268 OA
ATOM      9  N   UNL     1       0.252  -6.328   2.447  0.00  0.00    -0.278 N 
ATOM     10  C   UNL     1      -0.127  -4.913   2.340  0.00  0.00    +0.142 C 
ENDROOT
BRANCH   1  15
ATOM     11  C   UNL     1      -2.080   1.806   0.689  0.00  0.00    +0.044 C 
ATOM     12  C   UNL     1      -1.734   0.354   0.482  0.00  0.00    -0.047 A 
ATOM     13  C   UNL     1      -0.806  -0.002  -0.480  0.00  0.00    +0.007 A 
ATOM     14  C   UNL     1      -0.483  -1.329  -0.677  0.00  0.00    -0.037 A 
ATOM     15  C   UNL     1      -1.093  -2.315   0.096  0.00  0.00    +0.047 A 
ATOM     16  C   UNL     1      -2.030  -1.952   1.067  0.00  0.00    +0.127 A 
ATOM     17  C   UNL     1      -2.341  -0.615   1.258  0.00  0.00    +0.049 A 
ATOM     18  C   UNL     1       0.528  -1.712  -1.727  0.00  0.00    +0.044 C 
BRANCH  16  19
ATOM     19  O   UNL     1      -2.629  -2.906   1.826  0.00  0.00    -0.506 OA
ATOM     20  H   UNL     1      -2.207  -3.050   2.684  0.00  0.00    +0.292 HD
ENDBRANCH  16  19
ENDBRANCH   1  15
BRANCH  10  21
ATOM     21  C   UNL     1       0.996  -4.035   2.830  0.00  0.00    -0.015 A 
ATOM     22  C   UNL     1       2.294  -4.289   2.430  0.00  0.00    +0.055 A 
ATOM     23  C   UNL     1       3.330  -3.484   2.879  0.00  0.00    +0.165 A 
ATOM     24  C   UNL     1       3.061  -2.421   3.732  0.00  0.00    +0.204 A 
ATOM     25  C   UNL     1       1.754  -2.168   4.132  0.00  0.00    +0.165 A 
ATOM     26  C   UNL     1       0.723  -2.975   3.674  0.00  0.00    +0.055 A 
BRANCH  25  27
ATOM     27  O   UNL     1       1.486  -1.129   4.967  0.00  0.00    -0.491 OA
ATOM     28  C   UNL     1       0.120  -0.929   5.336  0.00  0.00    +0.277 C 
ENDBRANCH  25  27
BRANCH  24  29
ATOM     29  O   UNL     1       4.075  -1.628   4.176  0.00  0.00    -0.488 OA
ATOM     30  C   UNL     1       4.400  -0.485   3.382  0.00  0.00    +0.277 C 
ENDBRANCH  24  29
BRANCH  23  31
ATOM     31  O   UNL     1       4.607  -3.735   2.485  0.00  0.00    -0.491 OA
ATOM     32  C   UNL     1       4.796  -4.765   1.512  0.00  0.00    +0.277 C 
ENDBRANCH  23  31
ENDBRANCH  10  21
BRANCH   9  33
ATOM     33  C   UNL     1       0.594  -7.033   3.685  0.00  0.00    +0.183 C 
BRANCH  33  34
ATOM     34  C   UNL     1       2.091  -7.050   3.857  0.00  0.00    +0.122 A 
ATOM     35  C   UNL     1       2.808  -6.183   4.594  0.00  0.00    +0.046 A 
ATOM     36  C   UNL     1       4.164  -6.566   4.473  0.00  0.00    +0.041 A 
ATOM     37  C   UNL     1       4.194  -7.644   3.670  0.00  0.00    +0.195 A 
ATOM     38  O   UNL     1       2.936  -7.936   3.304  0.00  0.00    -0.466 OA
ENDBRANCH  33  34
ENDBRANCH   9  33
TORSDOF 8
