REMARK  Name = ZINC49563247
REMARK  4 active torsions:
REMARK  status: ('A' for Active; 'I' for Inactive)
REMARK    1  A    between atoms: C_3  and  S_9
REMARK    2  A    between atoms: C_4  and  N_8
REMARK    3  A    between atoms: S_9  and  N_12
REMARK    4  A    between atoms: N_12  and  C_13
REMARK                            x       y       z     vdW  Elec       q    Type
REMARK                         _______ _______ _______ _____ _____    ______ ____
ROOT
ATOM      1  S   UNL     1       3.698   2.375   0.095  0.00  0.00    +0.060 S 
ATOM      2  O   UNL     1       4.459   1.903  -1.008  0.00  0.00    -0.153 OA
ATOM      3  O   UNL     1       3.243   3.718   0.186  0.00  0.00    -0.153 OA
ENDROOT
BRANCH   1   6
ATOM      4  C   UNL     1       0.951  -0.462  -0.648  0.00  0.00    +0.017 A 
ATOM      5  C   UNL     1       2.073   0.344  -0.728  0.00  0.00    +0.031 A 
ATOM      6  C   UNL     1       2.268   1.351   0.196  0.00  0.00    +0.126 A 
ATOM      7  C   UNL     1       1.337   1.556   1.207  0.00  0.00    +0.052 A 
ATOM      8  C   UNL     1       0.211   0.746   1.284  0.00  0.00    +0.040 A 
ATOM      9  C   UNL     1       0.021  -0.261   0.356  0.00  0.00    +0.020 A 
ATOM     10 BR   UNL     1      -1.511  -1.364   0.460  0.00  0.00    -0.050 Br
BRANCH   7  11
ATOM     11  N   UNL     1       1.532   2.574   2.143  0.00  0.00    -0.356 N 
ATOM     12  H   UNL     1       2.285   3.178   2.052  0.00  0.00    +0.142 HD
ATOM     13  H   UNL     1       0.915   2.676   2.884  0.00  0.00    +0.142 HD
ENDBRANCH   7  11
ENDBRANCH   1   6
BRANCH   1  14
ATOM     14  N   UNL     1       4.603   2.089   1.452  0.00  0.00    -0.188 NA
ATOM     15  H   UNL     1       4.770   2.805   2.084  0.00  0.00    +0.148 HD
BRANCH  14  16
ATOM     16  C   UNL     1       5.153   0.753   1.696  0.00  0.00    +0.061 C 
ATOM     17  C   UNL     1       6.670   0.708   1.365  0.00  0.00    +0.000 C 
ATOM     18  C   UNL     1       7.297  -0.167   2.478  0.00  0.00    -0.077 C 
ATOM     19  N   UNL     1       6.178  -0.643   3.292  0.00  0.00    +0.383 N 
ATOM     20  C   UNL     1       5.144   0.422   3.199  0.00  0.00    -0.050 C 
ATOM     21  C   UNL     1       3.830  -0.174   3.685  0.00  0.00    -0.014 C 
ATOM     22  C   UNL     1       4.010  -0.543   5.166  0.00  0.00    -0.003 C 
ATOM     23  C   UNL     1       5.206  -1.477   5.345  0.00  0.00    -0.019 C 
ATOM     24  C   UNL     1       6.467  -0.878   4.699  0.00  0.00    -0.078 C 
ATOM     25  H   UNL     1       5.806  -1.487   2.884  0.00  0.00    -0.081 HD
ENDBRANCH  14  16
ENDBRANCH   1  14
TORSDOF 4
