REMARK  Name = ZINC53230301
REMARK  11 active torsions:
REMARK  status: ('A' for Active; 'I' for Inactive)
REMARK    1  A    between atoms: C_1  and  C_2
REMARK    2  A    between atoms: C_2  and  N_3
REMARK    3  A    between atoms: N_6  and  C_7
REMARK    4  A    between atoms: C_7  and  C_8
REMARK    5  A    between atoms: C_8  and  C_9
REMARK    6  A    between atoms: C_9  and  N_10
REMARK    7  A    between atoms: N_10  and  C_11
REMARK    8  A    between atoms: N_10  and  C_12
REMARK    9  A    between atoms: C_13  and  C_15
REMARK   10  A    between atoms: N_33  and  C_35
REMARK   11  A    between atoms: C_35  and  C_36
REMARK                            x       y       z     vdW  Elec       q    Type
REMARK                         _______ _______ _______ _____ _____    ______ ____
ROOT
ATOM      1  C   UNL     1       0.334   1.358  -2.740  0.00  0.00    +0.090 C 
ATOM      2  C   UNL     1       0.044   2.646  -3.516  0.00  0.00    +0.023 C 
ATOM      3  C   UNL     1       0.021   3.828  -2.543  0.00  0.00    +0.038 C 
ATOM      4  C   UNL     1      -0.222   5.099  -3.299  0.00  0.00    -0.033 A 
ATOM      5  C   UNL     1      -0.929   5.274  -4.446  0.00  0.00    +0.004 A 
ATOM      6  C   UNL     1      -1.054   6.543  -5.010  0.00  0.00    +0.002 A 
ATOM      7  C   UNL     1      -0.493   7.694  -4.474  0.00  0.00    +0.026 A 
ATOM      8  C   UNL     1       0.239   7.548  -3.298  0.00  0.00    +0.047 A 
ATOM      9  C   UNL     1       0.345   6.258  -2.764  0.00  0.00    +0.006 A 
ATOM     10  C   UNL     1       1.159   6.329  -1.551  0.00  0.00    -0.021 A 
ATOM     11  C   UNL     1       1.480   7.606  -1.413  0.00  0.00    +0.087 A 
ATOM     12  N   UNL     1       0.936   8.353  -2.448  0.00  0.00    -0.360 N 
ATOM     13  H   UNL     1       1.039   9.312  -2.553  0.00  0.00    +0.165 HD
ATOM     14  C   UNL     1       1.437   5.056  -0.793  0.00  0.00    +0.056 C 
ATOM     15  C   UNL     1       1.356   3.902  -1.802  0.00  0.00    +0.069 C 
ATOM     16  N   UNL     1       1.590   2.645  -1.078  0.00  0.00    -0.294 NA
ATOM     17  C   UNL     1       1.665   1.504  -2.000  0.00  0.00    +0.097 C 
ENDROOT
BRANCH   1  22
ATOM     18  N   UNL     1       0.775  -1.902  -5.350  0.00  0.00    -0.299 N 
ATOM     19  C   UNL     1       0.330  -2.100  -4.094  0.00  0.00    +0.309 C 
ATOM     20  O   UNL     1       0.112  -3.228  -3.697  0.00  0.00    -0.252 OA
ATOM     21  N   UNL     1       0.128  -1.048  -3.276  0.00  0.00    -0.226 N 
ATOM     22  C   UNL     1       0.416   0.199  -3.699  0.00  0.00    +0.227 C 
ATOM     23  O   UNL     1       0.741   0.388  -4.852  0.00  0.00    -0.275 OA
ATOM     24  H   UNL     1       1.024  -1.011  -5.642  0.00  0.00    +0.150 HD
BRANCH  18  26
ATOM     25  C   UNL     1       1.522  -2.561  -7.584  0.00  0.00    +0.024 C 
ATOM     26  C   UNL     1       0.882  -3.032  -6.276  0.00  0.00    +0.102 C 
ENDBRANCH  18  26
BRANCH  21  27
ATOM     27  C   UNL     1      -0.405  -1.259  -1.928  0.00  0.00    +0.116 C 
BRANCH  27  28
ATOM     28  C   UNL     1       0.722  -1.716  -1.000  0.00  0.00    +0.001 C 
BRANCH  28  29
ATOM     29  C   UNL     1       0.209  -1.761   0.441  0.00  0.00    -0.078 C 
BRANCH  29  30
ATOM     30  N   UNL     1       1.291  -2.200   1.332  0.00  0.00    +0.376 N 
ATOM     31  C   UNL     1       0.836  -2.130   2.727  0.00  0.00    -0.097 C 
ATOM     32  C   UNL     1       1.662  -3.584   1.008  0.00  0.00    -0.097 C 
ATOM     33  H   UNL     1       2.093  -1.600   1.209  0.00  0.00    -0.083 HD
ENDBRANCH  29  30
ENDBRANCH  28  29
ENDBRANCH  27  28
ENDBRANCH  21  27
ENDBRANCH   1  22
BRANCH  16  34
ATOM     34  C   UNL     1       2.798   2.732  -0.248  0.00  0.00    +0.111 C 
BRANCH  34  35
ATOM     35  C   UNL     1       3.981   3.076  -1.117  0.00  0.00    -0.019 C 
ATOM     36  C   UNL     1       4.654   4.179  -0.900  0.00  0.00    +0.005 C 
ENDBRANCH  34  35
ENDBRANCH  16  34
TORSDOF 8
