REMARK  Name = ZINC66598965
REMARK  8 active torsions:
REMARK  status: ('A' for Active; 'I' for Inactive)
REMARK    1  A    between atoms: C_1  and  C_2
REMARK    2  A    between atoms: C_2  and  C_3
REMARK    3  A    between atoms: C_2  and  C_4
REMARK    4  A    between atoms: C_4  and  C_6
REMARK    5  A    between atoms: C_4  and  N_15
REMARK    6  A    between atoms: N_18  and  C_19
REMARK    7  A    between atoms: C_19  and  C_20
REMARK    8  A    between atoms: C_20  and  C_25
REMARK                            x       y       z     vdW  Elec       q    Type
REMARK                         _______ _______ _______ _____ _____    ______ ____
ROOT
ATOM      1  C   UNL     1      -1.433  -0.534   0.013  0.00  0.00    +0.145 C 
ENDROOT
BRANCH   1   2
ATOM      2  C   UNL     1      -2.162  -0.034  -1.208  0.00  0.00    +0.158 A 
ATOM      3  N   UNL     1      -2.015  -0.475  -2.431  0.00  0.00    -0.132 NA
ATOM      4  N   UNL     1      -2.788   0.168  -3.233  0.00  0.00    -0.129 NA
ATOM      5  C   UNL     1      -3.481   1.067  -2.553  0.00  0.00    +0.161 A 
ATOM      6  N   UNL     1      -3.098   0.953  -1.239  0.00  0.00    -0.285 N 
ATOM      7  C   UNL     1      -3.651   1.756  -0.285  0.00  0.00    +0.094 A 
ATOM      8  C   UNL     1      -4.584   2.672  -0.618  0.00  0.00    +0.018 A 
ATOM      9  C   UNL     1      -4.999   2.811  -1.954  0.00  0.00    +0.005 A 
ATOM     10  C   UNL     1      -4.450   2.022  -2.916  0.00  0.00    +0.048 A 
ENDBRANCH   1   2
BRANCH   1  11
ATOM     11  N   UNL     1      -1.413  -1.998   0.005  0.00  0.00    -0.289 N 
ATOM     12  C   UNL     1      -1.292  -2.677   1.163  0.00  0.00    +0.300 C 
ATOM     13  O   UNL     1      -1.198  -2.074   2.214  0.00  0.00    -0.253 OA
ATOM     14  N   UNL     1      -1.273  -4.025   1.155  0.00  0.00    -0.299 N 
ATOM     15  H   UNL     1      -1.488  -2.480  -0.834  0.00  0.00    +0.151 HD
ATOM     16  H   UNL     1      -1.348  -4.506   0.317  0.00  0.00    +0.150 HD
BRANCH  14  17
ATOM     17  C   UNL     1      -1.141  -4.763   2.414  0.00  0.00    +0.112 C 
BRANCH  17  18
ATOM     18  C   UNL     1      -1.147  -6.265   2.128  0.00  0.00    -0.016 C 
ATOM     19  C   UNL     1      -2.497  -6.679   1.506  0.00  0.00    +0.008 C 
ATOM     20  C   UNL     1      -2.786  -8.072   2.118  0.00  0.00    +0.001 C 
ATOM     21  C   UNL     1      -2.279  -7.918   3.574  0.00  0.00    +0.001 C 
ATOM     22  C   UNL     1      -1.009  -7.053   3.442  0.00  0.00    +0.008 C 
ATOM     23  C   UNL     1      -0.001  -6.623   1.179  0.00  0.00    +0.013 C 
ENDBRANCH  17  18
ENDBRANCH  14  17
ENDBRANCH   1  11
BRANCH   1  25
ATOM     24  C   UNL     1      -0.019   1.526   0.010  0.00  0.00    +0.009 C 
ATOM     25  C   UNL     1       0.002  -0.004   0.002  0.00  0.00    +0.011 C 
ATOM     26  C   UNL     1       0.742  -0.511   1.242  0.00  0.00    +0.009 C 
ENDBRANCH   1  25
TORSDOF 5
