REMARK  Name = ZINC40284492
REMARK  5 active torsions:
REMARK  status: ('A' for Active; 'I' for Inactive)
REMARK    1  A    between atoms: C_1  and  O_2
REMARK    2  A    between atoms: O_2  and  C_3
REMARK    3  A    between atoms: C_3  and  C_5
REMARK    4  A    between atoms: C_10  and  N_11
REMARK    5  A    between atoms: C_23  and  C_25
REMARK                            x       y       z     vdW  Elec       q    Type
REMARK                         _______ _______ _______ _____ _____    ______ ____
ROOT
ATOM      1  N   UNL     1       1.778  -1.435  -3.279  0.00  0.00    -0.269 N 
ATOM      2  C   UNL     1       2.123  -2.120  -4.387  0.00  0.00    +0.307 C 
ATOM      3  O   UNL     1       1.891  -3.312  -4.462  0.00  0.00    -0.252 OA
ATOM      4  N   UNL     1       2.724  -1.485  -5.412  0.00  0.00    -0.272 N 
ATOM      5  C   UNL     1       2.917  -0.028  -5.387  0.00  0.00    +0.116 C 
ATOM      6  C   UNL     1       4.420   0.281  -5.364  0.00  0.00    +0.076 C 
ATOM      7  C   UNL     1       5.111  -0.586  -6.386  0.00  0.00    +0.066 A 
ATOM      8  C   UNL     1       4.576  -1.703  -6.925  0.00  0.00    +0.064 A 
ATOM      9  N   UNL     1       5.492  -2.209  -7.794  0.00  0.00    -0.346 N 
ATOM     10  H   UNL     1       5.395  -3.010  -8.333  0.00  0.00    +0.167 HD
ATOM     11  C   UNL     1       6.564  -1.384  -7.764  0.00  0.00    +0.197 A 
ATOM     12  N   UNL     1       6.325  -0.416  -6.918  0.00  0.00    -0.240 NA
ATOM     13  C   UNL     1       3.210  -2.234  -6.586  0.00  0.00    +0.159 C 
ATOM     14  H   UNL     1       1.902  -0.474  -3.245  0.00  0.00    +0.156 HD
ENDROOT
BRANCH  13  15
ATOM     15  C   UNL     1       2.278  -2.024  -7.751  0.00  0.00    +0.014 A 
ATOM     16  C   UNL     1       2.627  -1.155  -8.767  0.00  0.00    +0.010 A 
ATOM     17  C   UNL     1       1.773  -0.961  -9.836  0.00  0.00    +0.020 A 
ATOM     18  C   UNL     1       0.567  -1.639  -9.891  0.00  0.00    +0.044 A 
ATOM     19  C   UNL     1       0.217  -2.510  -8.876  0.00  0.00    +0.058 A 
ATOM     20  C   UNL     1       1.075  -2.707  -7.807  0.00  0.00    +0.130 A 
ATOM     21  F   UNL     1       0.736  -3.562  -6.817  0.00  0.00    -0.205 F 
ATOM     22 CL   UNL     1      -0.505  -1.395 -11.234  0.00  0.00    -0.083 Cl
ENDBRANCH  13  15
BRANCH   1  28
ATOM     23  C   UNL     1       1.433  -1.605  -0.886  0.00  0.00    +0.083 A 
ATOM     24  C   UNL     1       0.887  -2.286   0.206  0.00  0.00    +0.055 A 
ATOM     25  C   UNL     1       0.172  -3.448   0.004  0.00  0.00    +0.124 A 
ATOM     26  C   UNL     1      -0.008  -3.945  -1.280  0.00  0.00    +0.040 A 
ATOM     27  C   UNL     1       0.526  -3.283  -2.366  0.00  0.00    +0.027 A 
ATOM     28  C   UNL     1       1.244  -2.108  -2.182  0.00  0.00    +0.049 A 
ATOM     29  F   UNL     1      -0.355  -4.106   1.060  0.00  0.00    -0.205 F 
BRANCH  23  30
ATOM     30  C   UNL     1       2.197  -0.362  -0.678  0.00  0.00    +0.341 C 
ATOM     31  O   UNL     1       2.762   0.168  -1.615  0.00  0.00    -0.245 OA
BRANCH  30  33
ATOM     32  C   UNL     1       3.029   1.390   0.680  0.00  0.00    +0.280 C 
ATOM     33  O   UNL     1       2.271   0.186   0.551  0.00  0.00    -0.464 OA
ENDBRANCH  30  33
ENDBRANCH  23  30
ENDBRANCH   1  28
TORSDOF 4
