REMARK  Name = ZINC18096674
REMARK  9 active torsions:
REMARK  status: ('A' for Active; 'I' for Inactive)
REMARK    1  A    between atoms: C_1  and  C_2
REMARK    2  A    between atoms: C_2  and  C_3
REMARK    3  A    between atoms: C_3  and  C_4
REMARK    4  A    between atoms: C_8  and  N_10
REMARK    5  A    between atoms: C_11  and  N_19
REMARK    6  A    between atoms: N_12  and  C_13
REMARK    7  A    between atoms: C_20  and  C_22
REMARK    8  A    between atoms: C_22  and  C_24
REMARK    9  A    between atoms: C_22  and  N_25
REMARK                            x       y       z     vdW  Elec       q    Type
REMARK                         _______ _______ _______ _____ _____    ______ ____
ROOT
ATOM      1  N   UNL     1       2.499  -4.381  -0.889  0.00  0.00    -0.176 NA
ATOM      2  C   UNL     1       2.752  -3.996   0.354  0.00  0.00    +0.234 C 
ATOM      3  N   UNL     1       3.419  -4.835   1.210  0.00  0.00    -0.324 N 
ATOM      4  H   UNL     1       3.631  -5.740   0.934  0.00  0.00    +0.169 HD
ENDROOT
BRANCH   1   9
ATOM      5  C   UNL     1       2.200  -1.245  -2.482  0.00  0.00    +0.050 A 
ATOM      6  C   UNL     1       1.767  -1.595  -3.730  0.00  0.00    +0.093 A 
ATOM      7  C   UNL     1       1.573  -2.954  -4.029  0.00  0.00    +0.253 A 
ATOM      8  N   UNL     1       1.821  -3.873  -3.071  0.00  0.00    -0.291 N 
ATOM      9  C   UNL     1       2.253  -3.466  -1.838  0.00  0.00    +0.234 A 
ATOM     10  N   UNL     1       2.437  -2.181  -1.570  0.00  0.00    -0.217 NA
ATOM     11  O   UNL     1       1.188  -3.298  -5.135  0.00  0.00    -0.268 OA
ATOM     12  H   UNL     1       1.694  -4.816  -3.257  0.00  0.00    +0.172 HD
BRANCH   5  13
ATOM     13  C   UNL     1       2.414   0.207  -2.141  0.00  0.00    +0.055 C 
BRANCH  13  15
ATOM     14  C   UNL     1       1.588   2.109  -0.747  0.00  0.00    +0.004 C 
ATOM     15  C   UNL     1       1.283   0.690  -1.231  0.00  0.00    +0.003 C 
ENDBRANCH  13  15
ENDBRANCH   5  13
ENDBRANCH   1   9
BRANCH   3  16
ATOM     16  C   UNL     1       3.793  -4.384   2.480  0.00  0.00    +0.042 A 
ATOM     17  C   UNL     1       3.685  -5.229   3.577  0.00  0.00    +0.026 A 
ATOM     18  C   UNL     1       4.056  -4.781   4.830  0.00  0.00    +0.002 A 
ATOM     19  C   UNL     1       4.535  -3.494   4.992  0.00  0.00    +0.000 A 
ATOM     20  C   UNL     1       4.644  -2.651   3.901  0.00  0.00    +0.002 A 
ATOM     21  C   UNL     1       4.280  -3.094   2.645  0.00  0.00    +0.026 A 
ENDBRANCH   3  16
BRANCH   2  22
ATOM     22  N   UNL     1       2.353  -2.779   0.777  0.00  0.00    -0.175 NA
ATOM     23  C   UNL     1       1.264  -2.659   1.489  0.00  0.00    +0.270 C 
ATOM     24  O   UNL     1       0.546  -3.749   1.808  0.00  0.00    -0.269 OA
BRANCH  23  25
ATOM     25  C   UNL     1       0.812  -1.298   1.952  0.00  0.00    +0.172 C 
ATOM     26  C   UNL     1       1.714  -0.822   3.092  0.00  0.00    +0.039 C 
BRANCH  25  27
ATOM     27  N   UNL     1      -0.572  -1.377   2.425  0.00  0.00    -0.222 N 
ATOM     28  C   UNL     1      -0.971  -2.089   3.495  0.00  0.00    +0.254 C 
ATOM     29  O   UNL     1      -0.252  -2.758   4.210  0.00  0.00    -0.270 OA
ATOM     30  C   UNL     1      -2.431  -1.921   3.654  0.00  0.00    +0.049 A 
ATOM     31  C   UNL     1      -3.368  -2.402   4.554  0.00  0.00    +0.014 A 
ATOM     32  C   UNL     1      -4.699  -2.042   4.419  0.00  0.00    +0.001 A 
ATOM     33  C   UNL     1      -5.098  -1.206   3.393  0.00  0.00    +0.001 A 
ATOM     34  C   UNL     1      -4.172  -0.716   2.486  0.00  0.00    +0.014 A 
ATOM     35  C   UNL     1      -2.838  -1.068   2.608  0.00  0.00    +0.049 A 
ATOM     36  C   UNL     1      -1.610  -0.743   1.851  0.00  0.00    +0.254 C 
ATOM     37  O   UNL     1      -1.550  -0.026   0.874  0.00  0.00    -0.270 OA
ENDBRANCH  25  27
ENDBRANCH  23  25
ENDBRANCH   2  22
TORSDOF 7
