REMARK  Name = ZINC21098880
REMARK  7 active torsions:
REMARK  status: ('A' for Active; 'I' for Inactive)
REMARK    1  A    between atoms: C_1  and  C_2
REMARK    2  A    between atoms: C_5  and  C_8
REMARK    3  A    between atoms: C_10  and  S_13
REMARK    4  A    between atoms: S_13  and  C_14
REMARK    5  A    between atoms: C_14  and  C_15
REMARK    6  A    between atoms: C_20  and  C_28
REMARK    7  A    between atoms: C_23  and  C_27
REMARK                            x       y       z     vdW  Elec       q    Type
REMARK                         _______ _______ _______ _____ _____    ______ ____
ROOT
ATOM      1  C   UNL     1      -2.684   1.190   0.022  0.00  0.00    +0.130 C 
ENDROOT
BRANCH   1   2
ATOM      2  C   UNL     1      -4.052   1.823   0.032  0.00  0.00    +0.030 A 
ATOM      3  C   UNL     1      -4.627   2.104   1.220  0.00  0.00    +0.073 A 
ATOM      4  C   UNL     1      -5.910   2.699   1.263  0.00  0.00    +0.190 A 
ATOM      5  O   UNL     1      -6.448   2.961   2.326  0.00  0.00    -0.287 OA
ATOM      6  C   UNL     1      -6.576   2.989  -0.019  0.00  0.00    +0.048 A 
ATOM      7  C   UNL     1      -7.842   3.573  -0.066  0.00  0.00    -0.038 A 
ATOM      8  C   UNL     1      -8.425   3.828  -1.276  0.00  0.00    +0.004 A 
ATOM      9  C   UNL     1      -7.769   3.508  -2.457  0.00  0.00    +0.005 A 
ATOM     10  C   UNL     1      -6.518   2.930  -2.432  0.00  0.00    -0.026 A 
ATOM     11  C   UNL     1      -5.906   2.663  -1.211  0.00  0.00    +0.054 A 
ATOM     12  N   UNL     1      -4.655   2.091  -1.151  0.00  0.00    -0.357 N 
ATOM     13  H   UNL     1      -4.144   1.852  -2.095  0.00  0.00    +0.166 HD
ATOM     14  C   UNL     1      -5.817   2.588  -3.721  0.00  0.00    +0.046 C 
ATOM     15  C   UNL     1      -8.563   3.923   1.210  0.00  0.00    +0.044 C 
ENDBRANCH   1   2
BRANCH   1  16
ATOM     16  S   UNL     1      -1.421   2.486  -0.004  0.00  0.00    -0.080 S 
BRANCH  16  19
ATOM     17  C   UNL     1       2.113   0.819  -0.040  0.00  0.00    +0.182 A 
ATOM     18  N   UNL     1       1.324   1.946  -0.036  0.00  0.00    -0.201 NA
ATOM     19  C   UNL     1       0.035   1.494  -0.012  0.00  0.00    +0.185 A 
ATOM     20  N   UNL     1       0.084   0.181   0.003  0.00  0.00    -0.253 N 
ATOM     21  N   UNL     1       1.306  -0.216  -0.009  0.00  0.00    -0.152 NA
ATOM     22  H   UNL     1      -0.733  -0.556   0.024  0.00  0.00    +0.191 HD
BRANCH  17  27
ATOM     23  C   UNL     1       7.864   0.671  -0.167  0.00  0.00    +0.044 C 
ATOM     24  C   UNL     1       6.358   0.710  -0.133  0.00  0.00    -0.050 A 
ATOM     25  C   UNL     1       5.639  -0.472  -0.113  0.00  0.00    +0.004 A 
ATOM     26  C   UNL     1       4.260  -0.443  -0.082  0.00  0.00    +0.012 A 
ATOM     27  C   UNL     1       3.590   0.781  -0.072  0.00  0.00    +0.021 A 
ATOM     28  C   UNL     1       4.322   1.970  -0.099  0.00  0.00    +0.012 A 
ATOM     29  C   UNL     1       5.700   1.927  -0.124  0.00  0.00    +0.004 A 
ENDBRANCH  17  27
ENDBRANCH  16  19
ENDBRANCH   1  16
TORSDOF 4
