REMARK  Name = ZINC35664446
REMARK  12 active torsions:
REMARK  status: ('A' for Active; 'I' for Inactive)
REMARK    1  A    between atoms: C_1  and  C_2
REMARK    2  A    between atoms: C_2  and  C_3
REMARK    3  A    between atoms: C_3  and  N_4
REMARK    4  A    between atoms: N_11  and  C_14
REMARK    5  A    between atoms: C_14  and  C_15
REMARK    6  A    between atoms: C_16  and  C_31
REMARK    7  A    between atoms: C_17  and  C_26
REMARK    8  A    between atoms: N_22  and  C_23
REMARK    9  A    between atoms: C_23  and  C_24
REMARK   10  A    between atoms: C_31  and  O_33
REMARK   11  A    between atoms: O_33  and  C_34
REMARK   12  A    between atoms: C_34  and  C_35
REMARK                            x       y       z     vdW  Elec       q    Type
REMARK                         _______ _______ _______ _____ _____    ______ ____
ROOT
ATOM      1  C   UNL     1       0.117  -6.977  -6.449  0.00  0.00    +0.011 C 
ATOM      2  C   UNL     1       0.065  -8.151  -7.114  0.00  0.00    +0.076 C 
ATOM      3  C   UNL     1       0.981  -8.325  -8.309  0.00  0.00    +0.144 C 
ATOM      4  N   UNL     1       1.859  -7.192  -8.648  0.00  0.00    -0.288 N 
ATOM      5  C   UNL     1       1.796  -6.082  -7.886  0.00  0.00    +0.307 C 
ATOM      6  O   UNL     1       2.517  -5.142  -8.158  0.00  0.00    -0.252 OA
ATOM      7  N   UNL     1       0.963  -5.980  -6.843  0.00  0.00    -0.257 N 
ATOM      8  H   UNL     1       2.467  -7.244  -9.401  0.00  0.00    +0.151 HD
ENDROOT
BRANCH   3   9
ATOM      9  C   UNL     1       0.124  -8.624  -9.512  0.00  0.00    -0.015 A 
ATOM     10  C   UNL     1      -0.030  -9.923  -9.958  0.00  0.00    +0.013 A 
ATOM     11  C   UNL     1      -0.808 -10.158 -11.043  0.00  0.00    +0.045 A 
ATOM     12  S   UNL     1      -1.353  -8.512 -11.469  0.00  0.00    -0.105 S 
ATOM     13  C   UNL     1      -0.512  -7.623 -10.169  0.00  0.00    +0.051 A 
ENDBRANCH   3   9
BRANCH   2  14
ATOM     14  C   UNL     1      -0.814  -9.183  -6.710  0.00  0.00    +0.339 C 
ATOM     15  O   UNL     1      -1.630  -8.977  -5.831  0.00  0.00    -0.245 OA
BRANCH  14  16
ATOM     16  O   UNL     1      -0.749 -10.395  -7.300  0.00  0.00    -0.462 OA
BRANCH  16  17
ATOM     17  C   UNL     1      -1.667 -11.389  -6.842  0.00  0.00    +0.229 C 
ATOM     18  C   UNL     1      -1.443 -12.687  -7.622  0.00  0.00    +0.048 C 
ENDBRANCH  16  17
ENDBRANCH  14  16
ENDBRANCH   2  14
BRANCH   1  19
ATOM     19  C   UNL     1      -0.777  -6.762  -5.255  0.00  0.00    -0.026 C 
BRANCH  19  27
ATOM     20  N   UNL     1      -5.784  -7.780  -6.966  0.00  0.00    -0.299 N 
ATOM     21  C   UNL     1      -5.842  -6.706  -6.155  0.00  0.00    +0.302 C 
ATOM     22  O   UNL     1      -6.774  -6.576  -5.384  0.00  0.00    -0.253 OA
ATOM     23  N   UNL     1      -4.868  -5.776  -6.197  0.00  0.00    -0.287 N 
ATOM     24  C   UNL     1      -4.893  -4.673  -5.214  0.00  0.00    +0.107 C 
ATOM     25  C   UNL     1      -3.480  -4.376  -4.680  0.00  0.00    +0.000 C 
ATOM     26  C   UNL     1      -2.739  -5.677  -4.465  0.00  0.00    -0.077 C 
ATOM     27  N   UNL     1      -1.959  -5.990  -5.661  0.00  0.00    +0.384 N 
ATOM     28  C   UNL     1      -2.653  -6.725  -6.648  0.00  0.00    -0.059 C 
ATOM     29  C   UNL     1      -3.830  -5.897  -7.200  0.00  0.00    +0.091 C 
ATOM     30  H   UNL     1      -5.080  -7.849  -7.630  0.00  0.00    +0.150 HD
ATOM     31  H   UNL     1      -1.644  -5.125  -6.072  0.00  0.00    -0.081 HD
BRANCH  20  32
ATOM     32  C   UNL     1      -6.783  -8.845  -6.845  0.00  0.00    +0.105 C 
BRANCH  32  34
ATOM     33  C   UNL     1      -7.534 -11.050  -7.748  0.00  0.00    +0.005 C 
ATOM     34  C   UNL     1      -6.490  -9.938  -7.875  0.00  0.00    +0.015 C 
ENDBRANCH  32  34
ENDBRANCH  20  32
ENDBRANCH  19  27
ENDBRANCH   1  19
BRANCH   7  35
ATOM     35  C   UNL     1       0.962  -4.730  -6.078  0.00  0.00    +0.141 C 
BRANCH  35  36
ATOM     36  C   UNL     1       2.053  -4.777  -5.040  0.00  0.00    -0.015 C 
ATOM     37  C   UNL     1       2.952  -3.825  -4.990  0.00  0.00    +0.005 C 
ENDBRANCH  35  36
ENDBRANCH   7  35
TORSDOF 10
