REMARK  Name = ZINC63139721
REMARK  9 active torsions:
REMARK  status: ('A' for Active; 'I' for Inactive)
REMARK    1  A    between atoms: C_1  and  O_2
REMARK    2  A    between atoms: O_2  and  C_3
REMARK    3  A    between atoms: C_6  and  C_9
REMARK    4  A    between atoms: C_9  and  C_10
REMARK    5  A    between atoms: C_10  and  N_11
REMARK    6  A    between atoms: C_31  and  C_33
REMARK    7  A    between atoms: C_36  and  C_39
REMARK    8  A    between atoms: C_39  and  O_41
REMARK    9  A    between atoms: O_41  and  C_42
REMARK                            x       y       z     vdW  Elec       q    Type
REMARK                         _______ _______ _______ _____ _____    ______ ____
ROOT
ATOM      1  N   UNL     1      -6.739  -3.548  -1.396  0.00  0.00    -0.291 N 
ATOM      2  C   UNL     1      -6.839  -5.019  -1.391  0.00  0.00    +0.203 C 
ATOM      3  C   UNL     1      -7.864  -5.428  -0.354  0.00  0.00    +0.234 C 
ATOM      4  O   UNL     1      -7.663  -6.348   0.409  0.00  0.00    -0.274 OA
ATOM      5  N   UNL     1      -9.033  -4.707  -0.320  0.00  0.00    -0.279 N 
ATOM      6  C   UNL     1      -9.168  -3.691  -1.342  0.00  0.00    +0.167 C 
ATOM      7  C   UNL     1      -7.915  -2.853  -1.386  0.00  0.00    +0.237 C 
ATOM      8  O   UNL     1      -7.949  -1.641  -1.416  0.00  0.00    -0.274 OA
ATOM      9  C   UNL     1     -10.419  -2.851  -1.355  0.00  0.00    +0.065 C 
ATOM     10  C   UNL     1     -11.219  -3.106  -0.107  0.00  0.00    -0.034 C 
ATOM     11  C   UNL     1     -11.891  -2.296   0.700  0.00  0.00    -0.001 A 
ATOM     12  C   UNL     1     -12.140  -0.846   0.648  0.00  0.00    +0.010 A 
ATOM     13  C   UNL     1     -12.877  -0.327   1.665  0.00  0.00    +0.001 A 
ATOM     14  C   UNL     1     -13.386  -1.096   2.717  0.00  0.00    +0.002 A 
ATOM     15  C   UNL     1     -13.209  -2.435   2.842  0.00  0.00    +0.026 A 
ATOM     16  C   UNL     1     -12.453  -3.096   1.830  0.00  0.00    +0.043 A 
ATOM     17  N   UNL     1     -12.144  -4.350   1.697  0.00  0.00    -0.375 N 
ATOM     18  C   UNL     1     -11.372  -4.516   0.459  0.00  0.00    +0.131 C 
ATOM     19  C   UNL     1      -9.965  -5.012   0.756  0.00  0.00    +0.133 C 
ATOM     20  H   UNL     1     -12.383  -5.060   2.314  0.00  0.00    +0.160 HD
ENDROOT
BRANCH  19  21
ATOM     21  C   UNL     1      -9.978  -6.501   0.987  0.00  0.00    -0.025 A 
ATOM     22  C   UNL     1      -9.928  -7.366  -0.092  0.00  0.00    +0.006 A 
ATOM     23  C   UNL     1      -9.940  -8.730   0.113  0.00  0.00    +0.015 A 
ATOM     24  C   UNL     1     -10.002  -9.237   1.412  0.00  0.00    +0.059 A 
ATOM     25  C   UNL     1     -10.052  -8.359   2.496  0.00  0.00    +0.015 A 
ATOM     26  C   UNL     1     -10.034  -6.997   2.278  0.00  0.00    +0.006 A 
BRANCH  24  27
ATOM     27  C   UNL     1     -10.015 -10.697   1.638  0.00  0.00    +0.339 C 
ATOM     28  O   UNL     1      -9.972 -11.459   0.693  0.00  0.00    -0.245 OA
BRANCH  27  29
ATOM     29  O   UNL     1     -10.075 -11.184   2.893  0.00  0.00    -0.464 OA
ATOM     30  C   UNL     1     -10.085 -12.605   3.038  0.00  0.00    +0.280 C 
ENDBRANCH  27  29
ENDBRANCH  24  27
ENDBRANCH  19  21
BRANCH   1  31
ATOM     31  C   UNL     1      -5.443  -2.865  -1.405  0.00  0.00    +0.113 C 
BRANCH  31  32
ATOM     32  C   UNL     1      -4.981  -2.629   0.035  0.00  0.00    +0.054 C 
BRANCH  32  36
ATOM     33  C   UNL     1      -1.200  -0.637   0.010  0.00  0.00    +0.120 A 
ATOM     34  C   UNL     1      -2.375   0.101   0.019  0.00  0.00    +0.046 A 
ATOM     35  C   UNL     1      -3.596  -0.545   0.027  0.00  0.00    +0.007 A 
ATOM     36  C   UNL     1      -3.648  -1.927   0.026  0.00  0.00    -0.046 A 
ATOM     37  C   UNL     1      -2.479  -2.665   0.017  0.00  0.00    +0.007 A 
ATOM     38  C   UNL     1      -1.255  -2.024   0.003  0.00  0.00    +0.046 A 
BRANCH  33  40
ATOM     39  C   UNL     1      -0.017   1.425   0.010  0.00  0.00    +0.277 C 
ATOM     40  O   UNL     1       0.002  -0.004   0.002  0.00  0.00    -0.495 OA
ENDBRANCH  33  40
ENDBRANCH  32  36
ENDBRANCH  31  32
ENDBRANCH   1  31
TORSDOF 7
