REMARK  Name = ZINC50248917
REMARK  8 active torsions:
REMARK  status: ('A' for Active; 'I' for Inactive)
REMARK    1  A    between atoms: C_1  and  C_2
REMARK    2  A    between atoms: C_3  and  C_21
REMARK    3  A    between atoms: C_5  and  N_9
REMARK    4  A    between atoms: C_6  and  C_7
REMARK    5  A    between atoms: C_10  and  C_12
REMARK    6  A    between atoms: C_12  and  N_13
REMARK    7  A    between atoms: C_16  and  C_19
REMARK    8  A    between atoms: C_19  and  N_20
REMARK                            x       y       z     vdW  Elec       q    Type
REMARK                         _______ _______ _______ _____ _____    ______ ____
ROOT
ATOM      1  N   UNL     1       0.056  -3.353   1.393  0.00  0.00    -0.257 N 
ATOM      2  C   UNL     1       0.070  -4.543   0.762  0.00  0.00    +0.203 C 
ATOM      3  O   UNL     1       0.066  -4.588  -0.450  0.00  0.00    -0.277 OA
ATOM      4  H   UNL     1       0.060  -3.317   2.362  0.00  0.00    +0.158 HD
ENDROOT
BRANCH   1   9
ATOM      5  C   UNL     1      -0.018   1.503   0.010  0.00  0.00    +0.049 C 
ATOM      6  C   UNL     1       0.002  -0.004   0.002  0.00  0.00    +0.010 A 
ATOM      7  C   UNL     1       0.008  -0.804  -1.074  0.00  0.00    +0.109 A 
ATOM      8  O   UNL     1       0.028  -2.088  -0.680  0.00  0.00    -0.445 OA
ATOM      9  C   UNL     1       0.036  -2.180   0.657  0.00  0.00    +0.210 A 
ATOM     10  C   UNL     1       0.026  -0.894   1.173  0.00  0.00    +0.115 A 
ATOM     11  C   UNL     1      -0.006  -0.334  -2.506  0.00  0.00    +0.086 C 
BRANCH  10  12
ATOM     12  C   UNL     1       0.034  -0.513   2.554  0.00  0.00    +0.105 C 
ATOM     13  N   UNL     1       0.040  -0.211   3.648  0.00  0.00    -0.191 NA
ENDBRANCH  10  12
ENDBRANCH   1   9
BRANCH   2  14
ATOM     14  C   UNL     1       0.092  -5.820   1.563  0.00  0.00    +0.019 C 
BRANCH  14  15
ATOM     15  N   UNL     1       0.104  -6.971   0.650  0.00  0.00    +0.386 N 
ATOM     16  C   UNL     1      -1.206  -7.104  -0.037  0.00  0.00    -0.078 C 
ATOM     17  C   UNL     1      -1.262  -8.579  -0.486  0.00  0.00    -0.019 C 
ATOM     18  C   UNL     1      -0.306  -9.325   0.467  0.00  0.00    -0.047 C 
ATOM     19  C   UNL     1       0.247  -8.238   1.412  0.00  0.00    -0.077 C 
ATOM     20  H   UNL     1       0.850  -6.878  -0.024  0.00  0.00    -0.081 HD
BRANCH  18  21
ATOM     21  C   UNL     1      -1.069 -10.386   1.262  0.00  0.00    -0.085 C 
BRANCH  21  22
ATOM     22  N   UNL     1      -1.542 -11.436   0.350  0.00  0.00    +0.378 N 
ATOM     23  H   UNL     1      -2.153 -11.030  -0.342  0.00  0.00    -0.090 HD
ATOM     24  H   UNL     1      -0.751 -11.864  -0.109  0.00  0.00    -0.090 HD
ATOM     25  H   UNL     1      -2.045 -12.136   0.875  0.00  0.00    -0.090 HD
ENDBRANCH  21  22
ENDBRANCH  18  21
ENDBRANCH  14  15
ENDBRANCH   2  14
TORSDOF 6
