REMARK  Name = ZINC63709373
REMARK  6 active torsions:
REMARK  status: ('A' for Active; 'I' for Inactive)
REMARK    1  A    between atoms: C_1  and  C_2
REMARK    2  A    between atoms: C_7  and  N_8
REMARK    3  A    between atoms: N_15  and  C_29
REMARK    4  A    between atoms: C_16  and  S_18
REMARK    5  A    between atoms: S_18  and  C_19
REMARK    6  A    between atoms: C_19  and  C_20
REMARK                            x       y       z     vdW  Elec       q    Type
REMARK                         _______ _______ _______ _____ _____    ______ ____
ROOT
ATOM      1  N   UNL     1      -0.163  -0.092   2.155  0.00  0.00    -0.264 N 
ATOM      2  C   UNL     1      -1.357   0.290   2.885  0.00  0.00    +0.221 C 
ATOM      3  C   UNL     1      -0.986   1.544   3.748  0.00  0.00    +0.182 C 
ATOM      4  C   UNL     1      -2.079   1.754   4.706  0.00  0.00    +0.243 C 
ATOM      5  O   UNL     1      -1.896   2.045   5.869  0.00  0.00    -0.273 OA
ATOM      6  N   UNL     1      -3.331   1.589   4.159  0.00  0.00    -0.218 N 
ATOM      7  C   UNL     1      -3.443   1.365   2.793  0.00  0.00    +0.165 C 
ATOM      8  N   UNL     1      -2.522   0.733   2.121  0.00  0.00    -0.238 NA
ATOM      9  S   UNL     1       0.633   0.946   4.311  0.00  0.00    -0.086 S 
ATOM     10  C   UNL     1       1.028   0.017   2.820  0.00  0.00    +0.116 C 
ATOM     11  S   UNL     1       2.554  -0.594   2.340  0.00  0.00    -0.028 S 
ENDROOT
BRANCH   1  18
ATOM     12  C   UNL     1       0.027   1.816   0.052  0.00  0.00    +0.045 C 
ATOM     13  C   UNL     1      -0.138   0.343  -0.220  0.00  0.00    -0.029 A 
ATOM     14  C   UNL     1      -0.195  -0.118  -1.521  0.00  0.00    +0.005 A 
ATOM     15  C   UNL     1      -0.346  -1.469  -1.772  0.00  0.00    +0.000 A 
ATOM     16  C   UNL     1      -0.441  -2.364  -0.722  0.00  0.00    +0.002 A 
ATOM     17  C   UNL     1      -0.385  -1.910   0.581  0.00  0.00    +0.024 A 
ATOM     18  C   UNL     1      -0.227  -0.554   0.837  0.00  0.00    +0.040 A 
ENDBRANCH   1  18
BRANCH   6  19
ATOM     19  C   UNL     1      -4.474   1.646   4.968  0.00  0.00    +0.043 A 
ATOM     20  C   UNL     1      -4.847   2.844   5.561  0.00  0.00    +0.024 A 
ATOM     21  C   UNL     1      -5.974   2.897   6.357  0.00  0.00    +0.002 A 
ATOM     22  C   UNL     1      -6.731   1.759   6.564  0.00  0.00    +0.000 A 
ATOM     23  C   UNL     1      -6.362   0.564   5.974  0.00  0.00    +0.002 A 
ATOM     24  C   UNL     1      -5.239   0.505   5.172  0.00  0.00    +0.024 A 
ENDBRANCH   6  19
BRANCH   7  25
ATOM     25  S   UNL     1      -4.870   1.958   1.947  0.00  0.00    -0.086 S 
BRANCH  25  26
ATOM     26  C   UNL     1      -4.601   1.455   0.225  0.00  0.00    +0.124 C 
BRANCH  26  27
ATOM     27  C   UNL     1      -5.783   1.914  -0.631  0.00  0.00    +0.184 C 
ATOM     28  N   UNL     1      -5.957   3.367  -0.513  0.00  0.00    -0.363 N 
ATOM     29  C   UNL     1      -7.142   3.580  -0.020  0.00  0.00    +0.060 A 
ATOM     30  C   UNL     1      -7.877   4.806   0.321  0.00  0.00    +0.027 A 
ATOM     31  C   UNL     1      -9.122   4.716   0.829  0.00  0.00    +0.002 A 
ATOM     32  C   UNL     1      -9.762   3.484   1.052  0.00  0.00    +0.002 A 
ATOM     33  C   UNL     1      -9.178   2.301   0.775  0.00  0.00    +0.027 A 
ATOM     34  C   UNL     1      -7.820   2.276   0.216  0.00  0.00    +0.060 A 
ATOM     35  N   UNL     1      -7.027   1.307  -0.140  0.00  0.00    -0.363 N 
ATOM     36  H   UNL     1      -5.306   4.044  -0.758  0.00  0.00    +0.162 HD
ATOM     37  H   UNL     1      -7.222   0.358  -0.091  0.00  0.00    +0.162 HD
ENDBRANCH  26  27
ENDBRANCH  25  26
ENDBRANCH   7  25
TORSDOF 5
