REMARK  Name = ZINC39747869
REMARK  15 active torsions:
REMARK  status: ('A' for Active; 'I' for Inactive)
REMARK    1  A    between atoms: C_1  and  C_2
REMARK    2  A    between atoms: C_2  and  C_3
REMARK    3  A    between atoms: C_4  and  C_36
REMARK    4  A    between atoms: C_9  and  C_11
REMARK    5  A    between atoms: C_11  and  C_13
REMARK    6  A    between atoms: C_11  and  S_14
REMARK    7  A    between atoms: S_14  and  C_15
REMARK    8  A    between atoms: C_18  and  C_22
REMARK    9  A    between atoms: N_19  and  C_20
REMARK   10  A    between atoms: C_20  and  C_21
REMARK   11  A    between atoms: C_22  and  C_24
REMARK   12  A    between atoms: C_22  and  N_27
REMARK   13  A    between atoms: C_24  and  C_25
REMARK   14  A    between atoms: C_24  and  C_26
REMARK   15  A    between atoms: C_28  and  C_30
REMARK                            x       y       z     vdW  Elec       q    Type
REMARK                         _______ _______ _______ _____ _____    ______ ____
ROOT
ATOM      1  C   UNL     1      -8.454  -3.817  -4.062  0.00  0.00    +0.192 A 
ATOM      2  N   UNL     1      -8.165  -3.390  -5.269  0.00  0.00    -0.122 NA
ATOM      3  N   UNL     1      -8.998  -3.880  -6.116  0.00  0.00    -0.132 NA
ATOM      4  C   UNL     1      -9.861  -4.641  -5.505  0.00  0.00    +0.155 A 
ATOM      5  N   UNL     1      -9.542  -4.633  -4.176  0.00  0.00    -0.305 N 
ENDROOT
BRANCH   5   6
ATOM      6  C   UNL     1     -10.227  -5.350  -3.097  0.00  0.00    +0.122 C 
ATOM      7  C   UNL     1     -11.337  -4.466  -2.523  0.00  0.00    +0.027 C 
ENDBRANCH   5   6
BRANCH   1   8
ATOM      8  S   UNL     1      -7.595  -3.417  -2.576  0.00  0.00    -0.074 S 
BRANCH   8   9
ATOM      9  C   UNL     1      -6.271  -2.304  -3.121  0.00  0.00    +0.137 C 
ATOM     10  C   UNL     1      -6.883  -1.013  -3.669  0.00  0.00    +0.029 C 
BRANCH   9  17
ATOM     11  C   UNL     1      -1.412  -0.526   0.013  0.00  0.00    +0.053 A 
ATOM     12  C   UNL     1      -2.067  -0.772   1.174  0.00  0.00    +0.011 A 
ATOM     13  S   UNL     1      -3.639  -1.349   0.553  0.00  0.00    -0.057 S 
ATOM     14  C   UNL     1      -3.302  -1.218  -1.091  0.00  0.00    +0.165 A 
ATOM     15  N   UNL     1      -2.070  -0.758  -1.108  0.00  0.00    -0.229 NA
ATOM     16  N   UNL     1      -4.127  -1.518  -2.168  0.00  0.00    -0.264 N 
ATOM     17  C   UNL     1      -5.375  -1.978  -1.953  0.00  0.00    +0.232 C 
ATOM     18  O   UNL     1      -5.778  -2.131  -0.819  0.00  0.00    -0.274 OA
ATOM     19  C   UNL     1      -1.597  -0.606   2.596  0.00  0.00    +0.053 C 
ATOM     20  H   UNL     1      -3.805  -1.395  -3.075  0.00  0.00    +0.157 HD
BRANCH  11  22
ATOM     21  C   UNL     1      -0.019   1.526   0.010  0.00  0.00    +0.010 C 
ATOM     22  C   UNL     1       0.002  -0.004   0.002  0.00  0.00    +0.053 C 
ENDBRANCH  11  22
ENDBRANCH   9  17
ENDBRANCH   8   9
ENDBRANCH   1   8
BRANCH   4  23
ATOM     23  C   UNL     1     -10.997  -5.396  -6.146  0.00  0.00    +0.144 C 
BRANCH  23  24
ATOM     24  N   UNL     1     -11.690  -4.522  -7.097  0.00  0.00    -0.301 N 
ATOM     25  C   UNL     1     -12.980  -4.755  -7.410  0.00  0.00    +0.245 C 
ATOM     26  O   UNL     1     -13.569  -5.690  -6.903  0.00  0.00    -0.270 OA
ATOM     27  H   UNL     1     -11.220  -3.776  -7.501  0.00  0.00    +0.150 HD
BRANCH  25  28
ATOM     28  C   UNL     1     -13.679  -3.873  -8.368  0.00  0.00    +0.037 A 
ATOM     29  C   UNL     1     -13.003  -2.802  -8.956  0.00  0.00    +0.013 A 
ATOM     30  C   UNL     1     -13.661  -1.983  -9.851  0.00  0.00    +0.001 A 
ATOM     31  C   UNL     1     -14.987  -2.221 -10.165  0.00  0.00    +0.000 A 
ATOM     32  C   UNL     1     -15.662  -3.281  -9.586  0.00  0.00    +0.001 A 
ATOM     33  C   UNL     1     -15.015  -4.111  -8.694  0.00  0.00    +0.013 A 
ENDBRANCH  25  28
ENDBRANCH  23  24
BRANCH  23  34
ATOM     34  C   UNL     1     -10.446  -6.617  -6.885  0.00  0.00    +0.011 C 
ATOM     35  C   UNL     1      -9.723  -7.530  -5.893  0.00  0.00    +0.009 C 
ATOM     36  C   UNL     1     -11.599  -7.384  -7.536  0.00  0.00    +0.009 C 
ENDBRANCH  23  34
ENDBRANCH   4  23
TORSDOF 9
