REMARK  Name = ZINC63908923
REMARK  5 active torsions:
REMARK  status: ('A' for Active; 'I' for Inactive)
REMARK    1  A    between atoms: C_1  and  C_2
REMARK    2  A    between atoms: C_8  and  N_10
REMARK    3  A    between atoms: N_10  and  C_11
REMARK    4  A    between atoms: C_11  and  C_12
REMARK    5  A    between atoms: C_12  and  C_13
REMARK                            x       y       z     vdW  Elec       q    Type
REMARK                         _______ _______ _______ _____ _____    ______ ____
ROOT
ATOM      1  C   UNL     1       5.065  -0.652   3.498  0.00  0.00    +0.122 C 
ATOM      2  N   UNL     1       4.440  -1.488   4.292  0.00  0.00    -0.161 NA
ATOM      3  C   UNL     1       5.030  -2.067   5.343  0.00  0.00    +0.271 C 
ATOM      4  O   UNL     1       4.420  -2.844   6.058  0.00  0.00    -0.268 OA
ATOM      5  C   UNL     1       6.465  -1.732   5.613  0.00  0.00    +0.071 C 
ATOM      6  C   UNL     1       7.231  -2.143   6.640  0.00  0.00    -0.042 C 
ATOM      7  C   UNL     1       6.700  -2.922   7.840  0.00  0.00    +0.033 C 
ATOM      8  C   UNL     1       7.100  -2.131   9.093  0.00  0.00    +0.004 C 
ATOM      9  C   UNL     1       8.601  -1.851   9.084  0.00  0.00    +0.002 C 
ATOM     10  C   UNL     1       8.982  -0.963   7.896  0.00  0.00    +0.019 C 
ATOM     11  C   UNL     1       8.698  -1.730   6.602  0.00  0.00    +0.079 C 
ATOM     12  S   UNL     1       8.736  -0.584   5.172  0.00  0.00    -0.097 S 
ATOM     13  C   UNL     1       7.054  -0.787   4.641  0.00  0.00    +0.111 C 
ATOM     14  N   UNL     1       6.334  -0.309   3.654  0.00  0.00    -0.228 NA
ENDROOT
BRANCH   1  15
ATOM     15  C   UNL     1       4.301  -0.055   2.345  0.00  0.00    +0.054 C 
BRANCH  15  16
ATOM     16  C   UNL     1       2.865  -0.584   2.356  0.00  0.00    -0.075 C 
BRANCH  16  17
ATOM     17  N   UNL     1       2.120  -0.002   1.231  0.00  0.00    +0.381 N 
ATOM     18  H   UNL     1       2.567  -0.259   0.363  0.00  0.00    -0.086 HD
ATOM     19  H   UNL     1       2.109   1.003   1.319  0.00  0.00    -0.086 HD
BRANCH  17  26
ATOM     20  C   UNL     1      -0.019   1.526   0.010  0.00  0.00    +0.006 C 
ATOM     21  C   UNL     1       0.002  -0.004   0.002  0.00  0.00    -0.028 C 
ATOM     22  C   UNL     1      -1.433  -0.534   0.013  0.00  0.00    +0.002 C 
ATOM     23  C   UNL     1      -2.149  -0.040   1.272  0.00  0.00    +0.000 C 
ATOM     24  C   UNL     1      -1.409  -0.547   2.511  0.00  0.00    -0.002 C 
ATOM     25  C   UNL     1       0.026  -0.018   2.500  0.00  0.00    -0.016 C 
ATOM     26  C   UNL     1       0.742  -0.511   1.242  0.00  0.00    -0.069 C 
ENDBRANCH  17  26
ENDBRANCH  16  17
ENDBRANCH  15  16
ENDBRANCH   1  15
TORSDOF 4
