REMARK  Name = ZINC31046711
REMARK  12 active torsions:
REMARK  status: ('A' for Active; 'I' for Inactive)
REMARK    1  A    between atoms: C_1  and  C_2
REMARK    2  A    between atoms: C_2  and  C_3
REMARK    3  A    between atoms: C_2  and  C_4
REMARK    4  A    between atoms: C_4  and  C_5
REMARK    5  A    between atoms: C_5  and  C_7
REMARK    6  A    between atoms: C_5  and  N_15
REMARK    7  A    between atoms: C_10  and  O_13
REMARK    8  A    between atoms: O_13  and  C_14
REMARK    9  A    between atoms: C_16  and  C_18
REMARK   10  A    between atoms: N_23  and  C_25
REMARK   11  A    between atoms: C_25  and  C_26
REMARK   12  A    between atoms: C_28  and  C_31
REMARK                            x       y       z     vdW  Elec       q    Type
REMARK                         _______ _______ _______ _____ _____    ______ ____
ROOT
ATOM      1  C   UNL     1       1.145   2.398   0.116  0.00  0.00    +0.058 C 
ATOM      2  C   UNL     1       1.142   3.254   1.386  0.00  0.00    +0.009 C 
ATOM      3  C   UNL     1       2.418   4.100   1.425  0.00  0.00    -0.018 C 
ATOM      4  C   UNL     1       3.638   3.177   1.370  0.00  0.00    -0.078 C 
ATOM      5  N   UNL     1       3.595   2.380   0.137  0.00  0.00    +0.386 N 
ATOM      6  C   UNL     1       2.402   1.525   0.098  0.00  0.00    -0.065 C 
ATOM      7  H   UNL     1       3.534   3.078  -0.711  0.00  0.00    -0.081 HD
ENDROOT
BRANCH   1   9
ATOM      8  N   UNL     1      -1.307   2.074   0.107  0.00  0.00    -0.308 N 
ATOM      9  C   UNL     1      -0.079   1.519   0.099  0.00  0.00    +0.215 C 
ATOM     10  O   UNL     1       0.042   0.312   0.073  0.00  0.00    -0.276 OA
ATOM     11  H   UNL     1      -1.418   3.163   0.218  0.00  0.00    +0.149 HD
BRANCH   8  12
ATOM     12  C   UNL     1      -2.494   1.227  -0.033  0.00  0.00    +0.103 C 
BRANCH  12  13
ATOM     13  C   UNL     1      -3.611   2.027  -0.652  0.00  0.00    -0.027 A 
ATOM     14  C   UNL     1      -3.814   3.340  -0.271  0.00  0.00    +0.009 A 
ATOM     15  C   UNL     1      -4.833   4.077  -0.841  0.00  0.00    +0.046 A 
ATOM     16  C   UNL     1      -5.662   3.494  -1.789  0.00  0.00    +0.120 A 
ATOM     17  C   UNL     1      -5.461   2.175  -2.166  0.00  0.00    +0.046 A 
ATOM     18  C   UNL     1      -4.436   1.444  -1.597  0.00  0.00    +0.009 A 
BRANCH  16  19
ATOM     19  O   UNL     1      -6.670   4.216  -2.348  0.00  0.00    -0.495 OA
ATOM     20  C   UNL     1      -6.818   5.569  -1.913  0.00  0.00    +0.277 C 
ENDBRANCH  16  19
ENDBRANCH  12  13
BRANCH  12  21
ATOM     21  C   UNL     1      -2.929   0.727   1.346  0.00  0.00    +0.030 C 
BRANCH  21  23
ATOM     22  C   UNL     1      -3.640  -1.497   0.457  0.00  0.00    +0.007 C 
ATOM     23  C   UNL     1      -4.106  -0.238   1.191  0.00  0.00    -0.015 C 
ATOM     24  C   UNL     1      -4.638  -0.620   2.573  0.00  0.00    +0.007 C 
ENDBRANCH  21  23
ENDBRANCH  12  21
ENDBRANCH   8  12
ENDBRANCH   1   9
BRANCH   5  25
ATOM     25  C   UNL     1       4.819   1.583  -0.018  0.00  0.00    +0.022 C 
BRANCH  25  26
ATOM     26  C   UNL     1       4.887   0.549   1.076  0.00  0.00    +0.211 A 
ATOM     27  N   UNL     1       4.401  -0.667   1.028  0.00  0.00    -0.193 NA
ATOM     28  C   UNL     1       4.696  -1.223   2.225  0.00  0.00    +0.202 A 
ATOM     29  N   UNL     1       5.337  -0.322   2.922  0.00  0.00    -0.056 NA
ATOM     30  O   UNL     1       5.459   0.697   2.275  0.00  0.00    -0.340 OA
BRANCH  28  31
ATOM     31  C   UNL     1       4.355  -2.599   2.665  0.00  0.00    +0.023 A 
ATOM     32  C   UNL     1       3.658  -3.453   1.812  0.00  0.00    +0.013 A 
ATOM     33  C   UNL     1       3.350  -4.733   2.223  0.00  0.00    +0.021 A 
ATOM     34  C   UNL     1       3.720  -5.166   3.486  0.00  0.00    +0.041 A 
ATOM     35  C   UNL     1       4.406  -4.319   4.339  0.00  0.00    +0.021 A 
ATOM     36  C   UNL     1       4.725  -3.039   3.934  0.00  0.00    +0.013 A 
ATOM     37 CL   UNL     1       3.321  -6.775   4.000  0.00  0.00    -0.084 Cl
ENDBRANCH  28  31
ENDBRANCH  25  26
ENDBRANCH   5  25
TORSDOF 9
