REMARK  Name = ZINC66665021
REMARK  11 active torsions:
REMARK  status: ('A' for Active; 'I' for Inactive)
REMARK    1  A    between atoms: C_1  and  C_2
REMARK    2  A    between atoms: C_2  and  N_3
REMARK    3  A    between atoms: N_3  and  C_4
REMARK    4  A    between atoms: C_4  and  C_5
REMARK    5  A    between atoms: N_7  and  C_8
REMARK    6  A    between atoms: C_8  and  C_9
REMARK    7  A    between atoms: C_8  and  C_10
REMARK    8  A    between atoms: C_11  and  C_13
REMARK    9  A    between atoms: C_13  and  N_14
REMARK   10  A    between atoms: C_18  and  C_20
REMARK   11  A    between atoms: C_20  and  N_21
REMARK                            x       y       z     vdW  Elec       q    Type
REMARK                         _______ _______ _______ _____ _____    ______ ____
ROOT
ATOM      1  C   UNL     1      -1.274  -0.497   2.484  0.00  0.00    +0.019 C 
ENDROOT
BRANCH   1   2
ATOM      2  N   UNL     1      -2.159  -0.833   3.607  0.00  0.00    +0.386 N 
ATOM      3  C   UNL     1      -3.308   0.097   3.631  0.00  0.00    -0.078 C 
ATOM      4  C   UNL     1      -3.599   0.327   5.136  0.00  0.00    -0.020 C 
ATOM      5  C   UNL     1      -2.167   0.344   5.733  0.00  0.00    -0.019 C 
ATOM      6  C   UNL     1      -1.421  -0.701   4.877  0.00  0.00    -0.085 C 
ATOM      7  H   UNL     1      -2.493  -1.780   3.506  0.00  0.00    -0.081 HD
BRANCH   6   8
ATOM      8  C   UNL     1      -1.394  -2.047   5.605  0.00  0.00    -0.094 C 
BRANCH   8   9
ATOM      9  N   UNL     1      -0.838  -3.074   4.715  0.00  0.00    +0.379 N 
ATOM     10  C   UNL     1       0.607  -2.821   4.480  0.00  0.00    -0.079 C 
ATOM     11  C   UNL     1       1.143  -4.208   4.043  0.00  0.00    -0.020 C 
ATOM     12  C   UNL     1       0.343  -5.184   4.935  0.00  0.00    -0.020 C 
ATOM     13  C   UNL     1      -0.915  -4.403   5.359  0.00  0.00    -0.079 C 
ATOM     14  H   UNL     1      -1.337  -3.083   3.838  0.00  0.00    -0.082 HD
ENDBRANCH   8   9
ENDBRANCH   6   8
ENDBRANCH   1   2
BRANCH   1  16
ATOM     15  N   UNL     1      -1.372  -0.511   0.012  0.00  0.00    -0.294 N 
ATOM     16  C   UNL     1      -1.993  -0.751   1.184  0.00  0.00    +0.199 C 
ATOM     17  O   UNL     1      -3.131  -1.171   1.193  0.00  0.00    -0.278 OA
BRANCH  15  19
ATOM     18  C   UNL     1      -0.019   1.526   0.010  0.00  0.00    +0.024 C 
ATOM     19  C   UNL     1       0.002  -0.004   0.002  0.00  0.00    +0.105 C 
ENDBRANCH  15  19
BRANCH  15  20
ATOM     20  C   UNL     1      -2.072  -0.758  -1.251  0.00  0.00    +0.203 C 
BRANCH  20  21
ATOM     21  C   UNL     1      -1.820  -2.175  -1.696  0.00  0.00    +0.231 C 
ATOM     22  O   UNL     1      -1.125  -2.908  -1.024  0.00  0.00    -0.274 OA
ATOM     23  N   UNL     1      -2.367  -2.630  -2.841  0.00  0.00    -0.312 N 
ATOM     24  H   UNL     1      -2.923  -2.044  -3.378  0.00  0.00    +0.149 HD
BRANCH  23  25
ATOM     25  C   UNL     1      -2.122  -4.008  -3.274  0.00  0.00    +0.067 C 
ATOM     26  C   UNL     1      -3.268  -4.471  -4.175  0.00  0.00    +0.027 C 
ATOM     27  C   UNL     1      -0.805  -4.072  -4.050  0.00  0.00    +0.027 C 
ENDBRANCH  23  25
ENDBRANCH  20  21
ENDBRANCH  15  20
ENDBRANCH   1  16
TORSDOF 8
