REMARK  Name = ZINC58175598
REMARK  9 active torsions:
REMARK  status: ('A' for Active; 'I' for Inactive)
REMARK    1  A    between atoms: C_1  and  C_2
REMARK    2  A    between atoms: C_2  and  N_3
REMARK    3  A    between atoms: C_5  and  C_14
REMARK    4  A    between atoms: C_14  and  N_15
REMARK    5  A    between atoms: N_15  and  C_16
REMARK    6  A    between atoms: C_17  and  C_19
REMARK    7  A    between atoms: C_20  and  C_30
REMARK    8  A    between atoms: C_22  and  C_24
REMARK    9  A    between atoms: C_27  and  C_29
REMARK                            x       y       z     vdW  Elec       q    Type
REMARK                         _______ _______ _______ _____ _____    ______ ____
ROOT
ATOM      1  N   UNL     1      -5.726  -0.001   2.261  0.00  0.00    -0.297 N 
ATOM      2  C   UNL     1      -6.878  -0.711   1.700  0.00  0.00    +0.132 C 
ATOM      3  C   UNL     1      -5.902   1.182   2.883  0.00  0.00    +0.255 C 
ATOM      4  O   UNL     1      -4.937   1.821   3.258  0.00  0.00    -0.269 OA
ENDROOT
BRANCH   3   5
ATOM      5  C   UNL     1      -7.254   1.697   3.109  0.00  0.00    +0.097 A 
ATOM      6  C   UNL     1      -7.664   2.925   3.612  0.00  0.00    +0.058 A 
ATOM      7  N   UNL     1      -8.938   3.173   3.728  0.00  0.00    -0.240 NA
ATOM      8  C   UNL     1      -9.857   2.276   3.374  0.00  0.00    +0.144 A 
ATOM      9  S   UNL     1      -8.837   0.922   2.805  0.00  0.00    -0.059 S 
ATOM     10  C   UNL     1      -6.646   3.959   4.021  0.00  0.00    +0.067 C 
BRANCH   8  11
ATOM     11  C   UNL     1     -11.321   2.375   3.431  0.00  0.00    +0.160 A 
ATOM     12  C   UNL     1     -12.035   3.452   3.870  0.00  0.00    +0.052 A 
ATOM     13  C   UNL     1     -13.394   3.112   3.750  0.00  0.00    +0.045 A 
ATOM     14  C   UNL     1     -13.447   1.860   3.249  0.00  0.00    +0.103 A 
ATOM     15  O   UNL     1     -12.195   1.420   3.054  0.00  0.00    -0.458 OA
ATOM     16  C   UNL     1     -14.706   1.086   2.954  0.00  0.00    +0.086 C 
ENDBRANCH   8  11
ENDBRANCH   3   5
BRANCH   1  17
ATOM     17  C   UNL     1      -4.384  -0.575   2.145  0.00  0.00    +0.153 C 
BRANCH  17  20
ATOM     18  N   UNL     1      -1.754  -0.227  -0.552  0.00  0.00    -0.324 N 
ATOM     19  C   UNL     1      -2.323  -0.688   0.726  0.00  0.00    +0.151 C 
ATOM     20  C   UNL     1      -3.730  -0.087   0.850  0.00  0.00    +0.208 C 
ATOM     21  O   UNL     1      -4.511  -0.507  -0.271  0.00  0.00    -0.484 OA
ATOM     22  C   UNL     1      -3.970  -0.358  -1.510  0.00  0.00    +0.142 A 
ATOM     23  C   UNL     1      -2.596  -0.214  -1.674  0.00  0.00    +0.072 A 
ATOM     24  C   UNL     1      -2.061  -0.062  -2.943  0.00  0.00    +0.027 A 
ATOM     25  C   UNL     1      -2.896  -0.047  -4.046  0.00  0.00    +0.002 A 
ATOM     26  C   UNL     1      -4.261  -0.183  -3.882  0.00  0.00    +0.004 A 
ATOM     27  C   UNL     1      -4.798  -0.346  -2.622  0.00  0.00    +0.047 A 
BRANCH  18  29
ATOM     28  C   UNL     1      -0.272   1.710  -0.364  0.00  0.00    +0.024 C 
ATOM     29  C   UNL     1      -0.358   0.208  -0.646  0.00  0.00    +0.102 C 
ENDBRANCH  18  29
ENDBRANCH  17  20
ENDBRANCH   1  17
TORSDOF 5
