REMARK  Name = ZINC01641821
REMARK  10 active torsions:
REMARK  status: ('A' for Active; 'I' for Inactive)
REMARK    1  A    between atoms: C_1  and  C_2
REMARK    2  A    between atoms: C_2  and  C_3
REMARK    3  A    between atoms: C_3  and  C_5
REMARK    4  A    between atoms: C_3  and  N_6
REMARK    5  A    between atoms: N_8  and  C_31
REMARK    6  A    between atoms: C_16  and  C_17
REMARK    7  A    between atoms: C_16  and  N_74
REMARK    8  A    between atoms: C_17  and  C_18
REMARK    9  A    between atoms: C_18  and  C_19
REMARK   10  A    between atoms: C_19  and  C_24
REMARK                            x       y       z     vdW  Elec       q    Type
REMARK                         _______ _______ _______ _____ _____    ______ ____
ROOT
ATOM      1  N   UNL     1      -0.028   2.067   0.536  0.00  0.00    -0.281 N 
ATOM      2  C   UNL     1      -0.180   0.607   0.484  0.00  0.00    +0.217 C 
ATOM      3  N   UNL     1       1.191   0.048   0.514  0.00  0.00    -0.300 N 
ATOM      4  C   UNL     1       2.007   1.134  -0.068  0.00  0.00    +0.109 C 
ATOM      5  C   UNL     1       1.237   2.402   0.208  0.00  0.00    +0.240 C 
ATOM      6  O   UNL     1       1.680   3.529   0.146  0.00  0.00    -0.273 OA
ATOM      7  C   UNL     1       2.167   0.923  -1.571  0.00  0.00    +0.017 C 
ATOM      8  C   UNL     1       3.050   2.034  -2.147  0.00  0.00    -0.076 C 
ATOM      9  C   UNL     1       4.220   2.285  -0.037  0.00  0.00    -0.076 C 
ATOM     10  C   UNL     1       3.375   1.183   0.609  0.00  0.00    +0.017 C 
ATOM     11  N   UNL     1       4.369   1.990  -1.479  0.00  0.00    +0.380 N 
ATOM     12  H   UNL     1       4.766   1.049  -1.587  0.00  0.00    -0.082 HD
ENDROOT
BRANCH   3  13
ATOM     13  C   UNL     1       1.276  -1.112  -0.260  0.00  0.00    +0.032 A 
ATOM     14  C   UNL     1       0.530  -1.226  -1.426  0.00  0.00    +0.023 A 
ATOM     15  C   UNL     1       0.620  -2.372  -2.191  0.00  0.00    +0.002 A 
ATOM     16  C   UNL     1       1.443  -3.409  -1.792  0.00  0.00    +0.000 A 
ATOM     17  C   UNL     1       2.183  -3.301  -0.629  0.00  0.00    +0.002 A 
ATOM     18  C   UNL     1       2.102  -2.155   0.138  0.00  0.00    +0.023 A 
ENDBRANCH   3  13
BRANCH   1  19
ATOM     19  C   UNL     1      -1.090   3.015   0.884  0.00  0.00    +0.074 C 
ATOM     20  C   UNL     1      -0.673   3.817   2.119  0.00  0.00    +0.028 C 
BRANCH  19  22
ATOM     21  C   UNL     1      -1.861   3.183  -1.486  0.00  0.00    +0.006 C 
ATOM     22  C   UNL     1      -1.325   3.970  -0.288  0.00  0.00    +0.019 C 
ENDBRANCH  19  22
ENDBRANCH   1  19
BRANCH  11  23
ATOM     23  C   UNL     1       5.282   2.970  -2.102  0.00  0.00    -0.079 C 
BRANCH  23  24
ATOM     24  C   UNL     1       5.210   2.825  -3.623  0.00  0.00    -0.013 C 
BRANCH  24  25
ATOM     25  C   UNL     1       6.175   3.817  -4.276  0.00  0.00    +0.068 C 
BRANCH  25  26
ATOM     26  C   UNL     1       6.181   3.601  -5.791  0.00  0.00    +0.197 C 
ATOM     27  O   UNL     1       6.648   2.278  -6.087  0.00  0.00    -0.342 OA
ATOM     28  C   UNL     1       7.840   2.413  -6.886  0.00  0.00    +0.191 C 
ATOM     29  C   UNL     1       8.319   3.850  -6.561  0.00  0.00    +0.191 C 
ATOM     30  O   UNL     1       7.062   4.552  -6.411  0.00  0.00    -0.342 OA
BRANCH  26  31
ATOM     31  C   UNL     1       4.785   3.774  -6.332  0.00  0.00    +0.011 A 
ATOM     32  C   UNL     1       3.938   2.686  -6.420  0.00  0.00    +0.011 A 
ATOM     33  C   UNL     1       2.656   2.845  -6.911  0.00  0.00    +0.039 A 
ATOM     34  C   UNL     1       2.225   4.093  -7.327  0.00  0.00    +0.123 A 
ATOM     35  C   UNL     1       3.076   5.182  -7.244  0.00  0.00    +0.039 A 
ATOM     36  C   UNL     1       4.356   5.021  -6.747  0.00  0.00    +0.011 A 
ATOM     37  F   UNL     1       0.974   4.249  -7.813  0.00  0.00    -0.205 F 
ENDBRANCH  26  31
ENDBRANCH  25  26
ENDBRANCH  24  25
ENDBRANCH  23  24
ENDBRANCH  11  23
TORSDOF 8
