REMARK  Name = ZINC15672026
REMARK  9 active torsions:
REMARK  status: ('A' for Active; 'I' for Inactive)
REMARK    1  A    between atoms: C_1  and  C_2
REMARK    2  A    between atoms: C_2  and  C_3
REMARK    3  A    between atoms: C_2  and  N_58
REMARK    4  A    between atoms: C_7  and  O_30
REMARK    5  A    between atoms: C_9  and  N_12
REMARK    6  A    between atoms: C_13  and  C_15
REMARK    7  A    between atoms: C_18  and  O_21
REMARK    8  A    between atoms: O_21  and  C_22
REMARK    9  A    between atoms: C_22  and  C_23
REMARK                            x       y       z     vdW  Elec       q    Type
REMARK                         _______ _______ _______ _____ _____    ______ ____
ROOT
ATOM      1  N   UNL     1      -1.244  -2.109   0.003  0.00  0.00    -0.308 N 
ATOM      2  C   UNL     1      -1.265  -0.761   0.011  0.00  0.00    +0.244 C 
ATOM      3  O   UNL     1      -2.327  -0.169   0.024  0.00  0.00    -0.270 OA
ATOM      4  H   UNL     1      -0.397  -2.581  -0.008  0.00  0.00    +0.149 HD
ENDROOT
BRANCH   1   9
ATOM      5  C   UNL     1      -4.190  -5.657   0.184  0.00  0.00    -0.078 C 
ATOM      6  C   UNL     1      -4.119  -5.174  -1.276  0.00  0.00    -0.016 C 
ATOM      7  C   UNL     1      -4.359  -3.694  -1.416  0.00  0.00    +0.031 C 
ATOM      8  C   UNL     1      -3.001  -2.961  -1.356  0.00  0.00    +0.133 C 
ATOM      9  C   UNL     1      -2.502  -2.861   0.012  0.00  0.00    +0.085 C 
ATOM     10  C   UNL     1      -2.254  -4.239   0.652  0.00  0.00    -0.053 C 
ATOM     11  N   UNL     1      -3.550  -4.719   1.161  0.00  0.00    +0.382 N 
ATOM     12  H   UNL     1      -4.170  -3.912   1.293  0.00  0.00    -0.081 HD
BRANCH  11  14
ATOM     13  C   UNL     1      -4.738  -5.720   3.022  0.00  0.00    -0.014 C 
ATOM     14  C   UNL     1      -3.359  -5.383   2.451  0.00  0.00    -0.075 C 
ATOM     15  C   UNL     1      -2.540  -6.667   2.303  0.00  0.00    -0.014 C 
ENDBRANCH  11  14
BRANCH   8  16
ATOM     16  O   UNL     1      -3.157  -1.645  -1.892  0.00  0.00    -0.390 OA
ATOM     17  H   UNL     1      -3.486  -1.628  -2.801  0.00  0.00    +0.210 HD
ENDBRANCH   8  16
ENDBRANCH   1   9
BRANCH   2  18
ATOM     18  C   UNL     1       0.002  -0.004   0.002  0.00  0.00    +0.037 A 
ATOM     19  C   UNL     1      -0.017   1.393   0.010  0.00  0.00    +0.016 A 
ATOM     20  C   UNL     1       1.167   2.096   0.002  0.00  0.00    +0.046 A 
ATOM     21  C   UNL     1       2.380   1.417  -0.013  0.00  0.00    +0.121 A 
ATOM     22  C   UNL     1       2.403   0.028  -0.021  0.00  0.00    +0.046 A 
ATOM     23  C   UNL     1       1.224  -0.682  -0.013  0.00  0.00    +0.016 A 
BRANCH  21  24
ATOM     24  O   UNL     1       3.545   2.114  -0.021  0.00  0.00    -0.487 OA
BRANCH  24  25
ATOM     25  C   UNL     1       3.449   3.539  -0.013  0.00  0.00    +0.264 C 
BRANCH  25  26
ATOM     26  C   UNL     1       4.832   4.136  -0.024  0.00  0.00    -0.010 A 
ATOM     27  C   UNL     1       5.476   4.409   1.169  0.00  0.00    +0.010 A 
ATOM     28  C   UNL     1       6.747   4.952   1.161  0.00  0.00    +0.039 A 
ATOM     29  C   UNL     1       7.371   5.233  -0.043  0.00  0.00    +0.123 A 
ATOM     30  C   UNL     1       6.724   4.964  -1.237  0.00  0.00    +0.039 A 
ATOM     31  C   UNL     1       5.455   4.416  -1.226  0.00  0.00    +0.010 A 
ATOM     32  F   UNL     1       8.612   5.768  -0.052  0.00  0.00    -0.205 F 
ENDBRANCH  25  26
ENDBRANCH  24  25
ENDBRANCH  21  24
ENDBRANCH   2  18
TORSDOF 7
