REMARK  Name = ZINC11841164
REMARK  5 active torsions:
REMARK  status: ('A' for Active; 'I' for Inactive)
REMARK    1  A    between atoms: C_4  and  C_8
REMARK    2  A    between atoms: C_8  and  C_10
REMARK    3  A    between atoms: C_8  and  O_30
REMARK    4  A    between atoms: C_20  and  C_21
REMARK    5  A    between atoms: C_20  and  N_50
REMARK                            x       y       z     vdW  Elec       q    Type
REMARK                         _______ _______ _______ _____ _____    ______ ____
ROOT
ATOM      1  C   UNL     1      -1.143   1.600   0.013  0.00  0.00    -0.014 A 
ATOM      2  C   UNL     1      -0.017   0.798   0.043  0.00  0.00    +0.010 A 
ATOM      3  C   UNL     1       1.243   1.366   0.031  0.00  0.00    +0.046 A 
ATOM      4  C   UNL     1       1.373   2.747  -0.004  0.00  0.00    +0.122 A 
ATOM      5  C   UNL     1       0.245   3.545  -0.013  0.00  0.00    -0.022 A 
ATOM      6  C   UNL     1      -1.013   2.978  -0.010  0.00  0.00    +0.011 A 
ATOM      7  C   UNL     1       0.401   5.053  -0.016  0.00  0.00    -0.039 C 
ATOM      8  C   UNL     1       2.422   5.371  -1.336  0.00  0.00    -0.036 C 
ATOM      9  C   UNL     1       2.936   3.947  -1.305  0.00  0.00    +0.210 C 
ATOM     10  O   UNL     1       2.608   3.316  -0.061  0.00  0.00    -0.494 OA
ATOM     11  N   UNL     1       0.947   5.451  -1.336  0.00  0.00    +0.387 N 
ATOM     12  H   UNL     1       0.581   4.810  -2.050  0.00  0.00    -0.081 HD
ENDROOT
BRANCH   1  13
ATOM     13  C   UNL     1      -2.513   0.974   0.011  0.00  0.00    +0.179 C 
BRANCH  13  17
ATOM     14  C   UNL     1      -3.668   0.086  -4.007  0.00  0.00    +0.004 A 
ATOM     15  C   UNL     1      -2.724  -0.698  -3.372  0.00  0.00    +0.039 A 
ATOM     16  C   UNL     1      -2.349  -0.411  -2.070  0.00  0.00    +0.131 A 
ATOM     17  C   UNL     1      -2.921   0.661  -1.406  0.00  0.00    +0.039 A 
ATOM     18  C   UNL     1      -3.869   1.441  -2.041  0.00  0.00    +0.050 A 
ATOM     19  C   UNL     1      -4.238   1.157  -3.344  0.00  0.00    +0.020 A 
ATOM     20 CL   UNL     1      -4.592   2.781  -1.207  0.00  0.00    -0.083 Cl
ATOM     21  F   UNL     1      -1.426  -1.177  -1.448  0.00  0.00    -0.205 F 
ENDBRANCH  13  17
BRANCH  13  22
ATOM     22  O   UNL     1      -2.487  -0.233   0.777  0.00  0.00    -0.382 OA
ATOM     23  H   UNL     1      -1.801  -0.857   0.503  0.00  0.00    +0.211 HD
ENDBRANCH  13  22
ENDBRANCH   1  13
BRANCH  11  24
ATOM     24  C   UNL     1       0.521   6.821  -1.664  0.00  0.00    -0.042 C 
BRANCH  24  25
ATOM     25  C   UNL     1       1.304   7.308  -2.856  0.00  0.00    -0.062 A 
ATOM     26  C   UNL     1       2.494   8.006  -2.651  0.00  0.00    +0.004 A 
ATOM     27  C   UNL     1       3.237   8.459  -3.688  0.00  0.00    +0.031 A 
ATOM     28  C   UNL     1       2.805   8.238  -5.021  0.00  0.00    +0.100 A 
ATOM     29  C   UNL     1       1.556   7.513  -5.236  0.00  0.00    +0.100 A 
ATOM     30  C   UNL     1       0.833   7.062  -4.102  0.00  0.00    +0.032 A 
ATOM     31  N   UNL     1       1.273   7.378  -6.530  0.00  0.00    -0.191 NA
ATOM     32  S   UNL     1       2.439   8.078  -7.309  0.00  0.00    +0.116 S 
ATOM     33  N   UNL     1       3.377   8.600  -6.168  0.00  0.00    -0.191 NA
ENDBRANCH  24  25
ENDBRANCH  11  24
TORSDOF 5
