REMARK  Name = ZINC04149599
REMARK  10 active torsions:
REMARK  status: ('A' for Active; 'I' for Inactive)
REMARK    1  A    between atoms: C_1  and  C_2
REMARK    2  A    between atoms: C_2  and  C_3
REMARK    3  A    between atoms: C_2  and  N_4
REMARK    4  A    between atoms: C_11  and  C_24
REMARK    5  A    between atoms: C_13  and  C_20
REMARK    6  A    between atoms: C_13  and  C_22
REMARK    7  A    between atoms: C_14  and  N_19
REMARK    8  A    between atoms: C_15  and  C_16
REMARK    9  A    between atoms: C_27  and  S_30
REMARK   10  A    between atoms: S_30  and  C_31
REMARK                            x       y       z     vdW  Elec       q    Type
REMARK                         _______ _______ _______ _____ _____    ______ ____
ROOT
ATOM      1  N   UNL     1      -0.339   1.283  -0.553  0.00  0.00    +0.384 N 
ATOM      2  C   UNL     1      -0.291  -0.183  -0.692  0.00  0.00    -0.050 C 
ATOM      3  C   UNL     1       0.551  -0.502  -1.903  0.00  0.00    -0.041 C 
ATOM      4  C   UNL     1       1.557   0.284  -2.235  0.00  0.00    -0.035 C 
ATOM      5  C   UNL     1       1.961   1.485  -1.427  0.00  0.00    +0.013 C 
ATOM      6  C   UNL     1       1.005   1.812  -0.302  0.00  0.00    -0.069 C 
ATOM      7  C   UNL     1       2.139   2.665  -2.384  0.00  0.00    +0.064 C 
ATOM      8  C   UNL     1       3.278   2.349  -3.355  0.00  0.00    +0.188 C 
ATOM      9  C   UNL     1       3.101   1.008  -4.001  0.00  0.00    +0.051 C 
ATOM     10  C   UNL     1       2.311   0.028  -3.489  0.00  0.00    +0.085 C 
ATOM     11  H   UNL     1      -0.709   1.715  -1.495  0.00  0.00    -0.081 HD
ENDROOT
BRANCH   7  12
ATOM     12  C   UNL     1       0.864   2.887  -3.155  0.00  0.00    -0.041 A 
ATOM     13  C   UNL     1       0.645   2.205  -4.338  0.00  0.00    +0.005 A 
ATOM     14  C   UNL     1      -0.525   2.401  -5.044  0.00  0.00    +0.015 A 
ATOM     15  C   UNL     1      -1.479   3.295  -4.571  0.00  0.00    +0.008 A 
ATOM     16  C   UNL     1      -1.253   3.983  -3.385  0.00  0.00    +0.015 A 
ATOM     17  C   UNL     1      -0.083   3.777  -2.681  0.00  0.00    +0.005 A 
BRANCH  15  18
ATOM     18  S   UNL     1      -2.970   3.554  -5.472  0.00  0.00    -0.129 S 
ATOM     19  C   UNL     1      -2.809   2.461  -6.911  0.00  0.00    +0.090 C 
ENDBRANCH  15  18
ENDBRANCH   7  12
BRANCH   1  21
ATOM     20  C   UNL     1      -0.866   0.997   1.821  0.00  0.00    -0.014 C 
ATOM     21  C   UNL     1      -1.268   1.680   0.513  0.00  0.00    -0.074 C 
ATOM     22  C   UNL     1      -1.218   3.199   0.694  0.00  0.00    -0.014 C 
ENDBRANCH   1  21
BRANCH  10  23
ATOM     23  C   UNL     1       2.206  -1.268  -4.164  0.00  0.00    +0.388 C 
ATOM     24  O   UNL     1       2.826  -2.226  -3.743  0.00  0.00    -0.241 OA
ATOM     25  O   UNL     1       1.421  -1.398  -5.254  0.00  0.00    -0.241 OA
ENDBRANCH  10  23
BRANCH   9  26
ATOM     26  N   UNL     1       3.766   0.760  -5.165  0.00  0.00    -0.359 N 
ATOM     27  H   UNL     1       3.656  -0.214  -5.663  0.00  0.00    +0.142 HD
ATOM     28  H   UNL     1       4.412   1.534  -5.605  0.00  0.00    +0.142 HD
ENDBRANCH   9  26
BRANCH   8  29
ATOM     29  C   UNL     1       3.319   3.385  -4.400  0.00  0.00    +0.091 C 
ATOM     30  N   UNL     1       3.350   4.184  -5.207  0.00  0.00    -0.194 NA
ENDBRANCH   8  29
BRANCH   8  31
ATOM     31  C   UNL     1       4.553   2.360  -2.619  0.00  0.00    +0.091 C 
ATOM     32  N   UNL     1       5.537   2.369  -2.050  0.00  0.00    -0.194 NA
ENDBRANCH   8  31
TORSDOF 7
