REMARK  Name = ZINC14605395
REMARK  7 active torsions:
REMARK  status: ('A' for Active; 'I' for Inactive)
REMARK    1  A    between atoms: C_1  and  C_2
REMARK    2  A    between atoms: C_2  and  C_36
REMARK    3  A    between atoms: C_6  and  C_27
REMARK    4  A    between atoms: N_8  and  C_16
REMARK    5  A    between atoms: C_16  and  C_17
REMARK    6  A    between atoms: N_19  and  C_20
REMARK    7  A    between atoms: C_20  and  C_21
REMARK                            x       y       z     vdW  Elec       q    Type
REMARK                         _______ _______ _______ _____ _____    ______ ____
ROOT
ATOM      1  C   UNL     1      10.167  -6.037  -5.465  0.00  0.00    +0.011 C 
ATOM      2  C   UNL     1      11.017  -4.798  -5.753  0.00  0.00    -0.023 C 
ATOM      3  C   UNL     1      11.176  -3.972  -4.476  0.00  0.00    +0.058 C 
ATOM      4  C   UNL     1       9.812  -3.536  -3.974  0.00  0.00    +0.017 C 
ATOM      5  C   UNL     1       8.816  -3.265  -4.834  0.00  0.00    +0.037 C 
ATOM      6  C   UNL     1       7.431  -2.780  -4.475  0.00  0.00    +0.139 C 
ATOM      7  N   UNL     1       7.270  -2.343  -3.108  0.00  0.00    -0.308 N 
ATOM      8  C   UNL     1       7.366  -3.362  -2.169  0.00  0.00    +0.052 A 
ATOM      9  C   UNL     1       6.240  -3.794  -1.477  0.00  0.00    +0.025 A 
ATOM     10  C   UNL     1       6.357  -4.826  -0.564  0.00  0.00    +0.002 A 
ATOM     11  C   UNL     1       7.581  -5.429  -0.340  0.00  0.00    +0.002 A 
ATOM     12  C   UNL     1       8.706  -4.995  -1.021  0.00  0.00    +0.025 A 
ATOM     13  C   UNL     1       8.588  -3.954  -1.927  0.00  0.00    +0.052 A 
ATOM     14  N   UNL     1       9.688  -3.458  -2.623  0.00  0.00    -0.316 N 
ATOM     15  C   UNL     1       9.019  -3.433  -6.225  0.00  0.00    +0.163 C 
ATOM     16  O   UNL     1       8.106  -3.176  -6.985  0.00  0.00    -0.292 OA
ATOM     17  C   UNL     1      10.318  -3.918  -6.795  0.00  0.00    +0.086 C 
ATOM     18  C   UNL     1      12.393  -5.222  -6.271  0.00  0.00    +0.011 C 
ATOM     19  H   UNL     1      10.399  -3.034  -2.118  0.00  0.00    +0.152 HD
ENDROOT
BRANCH   6  20
ATOM     20  C   UNL     1       7.080  -1.631  -5.385  0.00  0.00    -0.023 A 
ATOM     21  C   UNL     1       7.710  -0.410  -5.231  0.00  0.00    +0.006 A 
ATOM     22  C   UNL     1       7.391   0.643  -6.068  0.00  0.00    +0.000 A 
ATOM     23  C   UNL     1       6.436   0.477  -7.053  0.00  0.00    +0.000 A 
ATOM     24  C   UNL     1       5.802  -0.742  -7.204  0.00  0.00    +0.000 A 
ATOM     25  C   UNL     1       6.124  -1.796  -6.369  0.00  0.00    +0.006 A 
ENDBRANCH   6  20
BRANCH   7  26
ATOM     26  C   UNL     1       6.022  -1.588  -2.939  0.00  0.00    +0.201 C 
BRANCH  26  27
ATOM     27  C   UNL     1       5.917  -1.101  -1.517  0.00  0.00    +0.231 C 
ATOM     28  O   UNL     1       6.848  -1.249  -0.755  0.00  0.00    -0.274 OA
ATOM     29  N   UNL     1       4.787  -0.500  -1.092  0.00  0.00    -0.310 N 
ATOM     30  H   UNL     1       4.042  -0.382  -1.702  0.00  0.00    +0.149 HD
BRANCH  29  31
ATOM     31  C   UNL     1       4.685  -0.026   0.290  0.00  0.00    +0.139 C 
BRANCH  31  32
ATOM     32  C   UNL     1       3.333   0.602   0.508  0.00  0.00    -0.030 A 
ATOM     33  C   UNL     1       2.272  -0.173   0.939  0.00  0.00    +0.005 A 
ATOM     34  C   UNL     1       1.032   0.403   1.139  0.00  0.00    +0.000 A 
ATOM     35  C   UNL     1       0.852   1.754   0.907  0.00  0.00    +0.000 A 
ATOM     36  C   UNL     1       1.912   2.529   0.475  0.00  0.00    +0.000 A 
ATOM     37  C   UNL     1       3.152   1.952   0.275  0.00  0.00    +0.005 A 
ENDBRANCH  31  32
ENDBRANCH  29  31
ENDBRANCH  26  27
ENDBRANCH   7  26
TORSDOF 5
