REMARK  Name = ZINC49558363
REMARK  7 active torsions:
REMARK  status: ('A' for Active; 'I' for Inactive)
REMARK    1  A    between atoms: C_1  and  C_2
REMARK    2  A    between atoms: C_2  and  C_3
REMARK    3  A    between atoms: C_2  and  C_4
REMARK    4  A    between atoms: C_4  and  C_6
REMARK    5  A    between atoms: C_4  and  N_11
REMARK    6  A    between atoms: N_11  and  C_12
REMARK    7  A    between atoms: C_14  and  N_19
REMARK                            x       y       z     vdW  Elec       q    Type
REMARK                         _______ _______ _______ _____ _____    ______ ____
ROOT
ATOM      1  N   UNL     1       2.181   0.094   1.108  0.00  0.00    -0.336 N 
ATOM      2  H   UNL     1       2.507   0.462   0.272  0.00  0.00    +0.147 HD
ENDROOT
BRANCH   1   3
ATOM      3  C   UNL     1       2.986   0.134   2.249  0.00  0.00    +0.032 A 
ATOM      4  C   UNL     1       4.287   0.616   2.167  0.00  0.00    +0.055 A 
ATOM      5  C   UNL     1       5.080   0.655   3.296  0.00  0.00    +0.131 A 
ATOM      6  C   UNL     1       4.582   0.216   4.509  0.00  0.00    +0.071 A 
ATOM      7  C   UNL     1       3.286  -0.265   4.596  0.00  0.00    +0.127 A 
ATOM      8  C   UNL     1       2.485  -0.301   3.469  0.00  0.00    +0.061 A 
ATOM      9  F   UNL     1       2.803  -0.693   5.782  0.00  0.00    -0.205 F 
BRANCH   5  10
ATOM     10  N   UNL     1       6.466   1.168   3.208  0.00  0.00    +0.057 N 
ATOM     11  O   UNL     1       6.902   1.552   2.148  0.00  0.00    -0.126 OA
ATOM     12  O   UNL     1       7.161   1.203   4.196  0.00  0.00    -0.126 OA
ENDBRANCH   5  10
ENDBRANCH   1   3
BRANCH   1  13
ATOM     13  C   UNL     1       0.846  -0.505   1.174  0.00  0.00    +0.110 C 
BRANCH  13  14
ATOM     14  C   UNL     1       0.960  -2.003   1.049  0.00  0.00    +0.010 A 
ATOM     15  C   UNL     1       0.276  -2.969   1.709  0.00  0.00    +0.013 A 
ATOM     16  C   UNL     1       0.549  -4.294   1.429  0.00  0.00    +0.008 A 
ATOM     17  C   UNL     1       1.494  -4.589   0.502  0.00  0.00    +0.045 A 
ATOM     18  S   UNL     1       2.026  -2.964  -0.012  0.00  0.00    -0.100 S 
ENDBRANCH  13  14
BRANCH  13  20
ATOM     19  C   UNL     1      -0.227   1.541   0.222  0.00  0.00    +0.009 C 
ATOM     20  C   UNL     1      -0.014   0.038   0.031  0.00  0.00    +0.008 C 
ATOM     21  C   UNL     1       0.695  -0.211  -1.302  0.00  0.00    +0.009 C 
ENDBRANCH  13  20
ENDBRANCH   1  13
TORSDOF 5
