REMARK  Name = ZINC39964672
REMARK  3 active torsions:
REMARK  status: ('A' for Active; 'I' for Inactive)
REMARK    1  A    between atoms: C_13  and  S_15
REMARK    2  A    between atoms: S_15  and  C_16
REMARK    3  A    between atoms: C_16  and  C_17
REMARK                            x       y       z     vdW  Elec       q    Type
REMARK                         _______ _______ _______ _____ _____    ______ ____
ROOT
ATOM      1  C   UNL     1      -0.016   1.348   0.009  0.00  0.00    +0.001 A 
ATOM      2  C   UNL     1       1.156   2.116   0.002  0.00  0.00    +0.002 A 
ATOM      3  C   UNL     1       2.382   1.544  -0.019  0.00  0.00    +0.026 A 
ATOM      4  C   UNL     1       2.490   0.081  -0.035  0.00  0.00    +0.046 A 
ATOM      5  N   UNL     1       3.530  -0.719  -0.024  0.00  0.00    -0.358 N 
ATOM      6  C   UNL     1       3.070  -2.089  -0.174  0.00  0.00    +0.252 C 
ATOM      7  C   UNL     1       1.561  -2.038  -0.014  0.00  0.00    +0.117 C 
ATOM      8  C   UNL     1       1.230  -0.705  -0.014  0.00  0.00    +0.025 A 
ATOM      9  C   UNL     1       0.002  -0.004   0.002  0.00  0.00    +0.012 A 
ATOM     10  N   UNL     1       0.842  -3.139   0.220  0.00  0.00    -0.147 NA
ATOM     11  N   UNL     1       1.473  -4.102   0.821  0.00  0.00    -0.122 NA
ATOM     12  C   UNL     1       2.755  -3.971   1.242  0.00  0.00    +0.208 C 
ATOM     13  N   UNL     1       3.565  -3.019   0.839  0.00  0.00    -0.227 NA
ATOM     14  H   UNL     1       4.455  -0.441   0.070  0.00  0.00    +0.162 HD
ENDROOT
BRANCH  12  15
ATOM     15  S   UNL     1       3.373  -5.150   2.396  0.00  0.00    -0.075 S 
BRANCH  15  16
ATOM     16  C   UNL     1       5.084  -4.623   2.688  0.00  0.00    +0.173 C 
BRANCH  16  17
ATOM     17  C   UNL     1       5.737  -5.560   3.671  0.00  0.00    +0.229 C 
ATOM     18  O   UNL     1       5.111  -6.492   4.129  0.00  0.00    -0.275 OA
ATOM     19  N   UNL     1       7.018  -5.362   4.041  0.00  0.00    -0.264 N 
ATOM     20  C   UNL     1       7.623  -6.229   4.950  0.00  0.00    +0.210 A 
ATOM     21  C   UNL     1       9.001  -6.132   5.444  0.00  0.00    +0.202 A 
ATOM     22  N   UNL     1       9.208  -7.114   6.277  0.00  0.00    -0.032 NA
ATOM     23  O   UNL     1       8.014  -7.871   6.362  0.00  0.00    -0.239 OA
ATOM     24  N   UNL     1       7.059  -7.262   5.511  0.00  0.00    -0.032 NA
ATOM     25  N   UNL     1       9.927  -5.160   5.084  0.00  0.00    -0.338 N 
ATOM     26  H   UNL     1       7.519  -4.617   3.674  0.00  0.00    +0.156 HD
ATOM     27  H   UNL     1       9.682  -4.465   4.453  0.00  0.00    +0.144 HD
ATOM     28  H   UNL     1      10.819  -5.176   5.464  0.00  0.00    +0.144 HD
ENDBRANCH  16  17
ENDBRANCH  15  16
ENDBRANCH  12  15
TORSDOF 3
