REMARK  Name = ZINC35349219
REMARK  6 active torsions:
REMARK  status: ('A' for Active; 'I' for Inactive)
REMARK    1  A    between atoms: C_3  and  O_28
REMARK    2  A    between atoms: C_4  and  C_10
REMARK    3  A    between atoms: C_6  and  N_7
REMARK    4  A    between atoms: C_13  and  O_27
REMARK    5  A    between atoms: C_14  and  O_26
REMARK    6  A    between atoms: C_22  and  O_25
REMARK                            x       y       z     vdW  Elec       q    Type
REMARK                         _______ _______ _______ _____ _____    ______ ____
ROOT
ATOM      1  C   UNL     1       3.689  -0.690  -0.037  0.00  0.00    +0.007 A 
ATOM      2  C   UNL     1       4.519  -0.789   1.167  0.00  0.00    +0.029 A 
ATOM      3  C   UNL     1       4.110  -0.200   2.371  0.00  0.00    +0.061 A 
ATOM      4  C   UNL     1       4.901  -0.306   3.481  0.00  0.00    +0.159 A 
ATOM      5  C   UNL     1       6.115  -0.999   3.418  0.00  0.00    +0.162 A 
ATOM      6  C   UNL     1       6.531  -1.586   2.236  0.00  0.00    +0.096 A 
ATOM      7  C   UNL     1       5.740  -1.488   1.098  0.00  0.00    +0.140 A 
ATOM      8  O   UNL     1       6.139  -2.057  -0.058  0.00  0.00    -0.455 OA
ATOM      9  C   UNL     1       5.406  -1.990  -1.188  0.00  0.00    +0.140 A 
ATOM     10  C   UNL     1       5.871  -2.595  -2.342  0.00  0.00    +0.101 A 
ATOM     11  C   UNL     1       5.116  -2.530  -3.517  0.00  0.00    +0.224 A 
ATOM     12  O   UNL     1       5.530  -3.068  -4.537  0.00  0.00    -0.284 OA
ATOM     13  C   UNL     1       3.878  -1.848  -3.533  0.00  0.00    +0.164 A 
ATOM     14  C   UNL     1       3.413  -1.250  -2.404  0.00  0.00    +0.061 A 
ATOM     15  C   UNL     1       4.164  -1.314  -1.214  0.00  0.00    +0.029 A 
ENDROOT
BRANCH   1  19
ATOM     16  C   UNL     1      -0.017   1.382   0.010  0.00  0.00    +0.036 A 
ATOM     17  C   UNL     1       1.165   2.098   0.002  0.00  0.00    +0.048 A 
ATOM     18  C   UNL     1       2.381   1.433  -0.013  0.00  0.00    +0.125 A 
ATOM     19  C   UNL     1       2.405   0.028  -0.021  0.00  0.00    +0.027 A 
ATOM     20  C   UNL     1       1.200  -0.683  -0.013  0.00  0.00    +0.045 A 
ATOM     21  C   UNL     1       0.002  -0.004   0.002  0.00  0.00    +0.127 A 
BRANCH  21  22
ATOM     22  N   UNL     1      -1.272  -0.758   0.010  0.00  0.00    +0.056 N 
ATOM     23  O   UNL     1      -2.325  -0.165   0.023  0.00  0.00    -0.126 OA
ATOM     24  O   UNL     1      -1.259  -1.967   0.004  0.00  0.00    -0.126 OA
ENDBRANCH  21  22
BRANCH  18  25
ATOM     25  O   UNL     1       3.541   2.135  -0.021  0.00  0.00    -0.506 OA
ATOM     26  H   UNL     1       3.886   2.334   0.860  0.00  0.00    +0.292 HD
ENDBRANCH  18  25
ENDBRANCH   1  19
BRANCH  13  27
ATOM     27  O   UNL     1       3.150  -1.790  -4.681  0.00  0.00    -0.503 OA
ATOM     28  H   UNL     1       3.560  -2.243  -5.430  0.00  0.00    +0.292 HD
ENDBRANCH  13  27
BRANCH   5  29
ATOM     29  O   UNL     1       6.892  -1.097   4.527  0.00  0.00    -0.503 OA
ATOM     30  H   UNL     1       6.702  -1.873   5.073  0.00  0.00    +0.292 HD
ENDBRANCH   5  29
BRANCH   4  31
ATOM     31  O   UNL     1       4.506   0.265   4.651  0.00  0.00    -0.503 OA
ATOM     32  H   UNL     1       3.977  -0.316   5.213  0.00  0.00    +0.292 HD
ENDBRANCH   4  31
TORSDOF 6
