REMARK  Name = ZINC23472332
REMARK  8 active torsions:
REMARK  status: ('A' for Active; 'I' for Inactive)
REMARK    1  A    between atoms: C_1  and  C_2
REMARK    2  A    between atoms: C_2  and  O_3
REMARK    3  A    between atoms: O_3  and  C_4
REMARK    4  A    between atoms: C_4  and  C_6
REMARK    5  A    between atoms: C_6  and  C_7
REMARK    6  A    between atoms: N_12  and  C_13
REMARK    7  A    between atoms: C_13  and  C_15
REMARK    8  A    between atoms: C_15  and  N_16
REMARK                            x       y       z     vdW  Elec       q    Type
REMARK                         _______ _______ _______ _____ _____    ______ ____
ROOT
ATOM      1  C   UNL     1      -2.782  -3.930   0.007  0.00  0.00    +0.035 A 
ATOM      2  C   UNL     1      -2.830  -4.638   1.142  0.00  0.00    +0.070 A 
ATOM      3  S   UNL     1      -2.671  -6.309   0.542  0.00  0.00    -0.060 S 
ATOM      4  C   UNL     1      -2.556  -5.979  -1.103  0.00  0.00    +0.163 A 
ATOM      5  N   UNL     1      -2.645  -4.623  -1.155  0.00  0.00    -0.339 N 
ATOM      6  N   UNL     1      -2.415  -6.840  -2.114  0.00  0.00    -0.156 NA
ATOM      7  H   UNL     1      -2.609  -4.158  -2.005  0.00  0.00    +0.167 HD
ENDROOT
BRANCH   6   8
ATOM      8  C   UNL     1      -2.350  -8.143  -1.871  0.00  0.00    +0.252 C 
ATOM      9  O   UNL     1      -2.419  -8.553  -0.728  0.00  0.00    -0.272 OA
BRANCH   8  10
ATOM     10  C   UNL     1      -2.191  -9.115  -3.012  0.00  0.00    +0.183 C 
BRANCH  10  11
ATOM     11  N   UNL     1      -2.145 -10.485  -2.485  0.00  0.00    -0.289 NA
ATOM     12  C   UNL     1      -1.777 -11.443  -3.539  0.00  0.00    +0.090 C 
ATOM     13  C   UNL     1      -1.389 -12.767  -2.879  0.00  0.00    +0.051 C 
ATOM     14  C   UNL     1      -2.457 -13.187  -1.903  0.00  0.00    -0.042 A 
ATOM     15  C   UNL     1      -2.478 -14.505  -1.472  0.00  0.00    +0.004 A 
ATOM     16  C   UNL     1      -3.438 -14.931  -0.576  0.00  0.00    +0.000 A 
ATOM     17  C   UNL     1      -4.383 -14.039  -0.104  0.00  0.00    +0.000 A 
ATOM     18  C   UNL     1      -4.364 -12.727  -0.533  0.00  0.00    +0.005 A 
ATOM     19  C   UNL     1      -3.402 -12.298  -1.436  0.00  0.00    -0.030 A 
ATOM     20  C   UNL     1      -3.429 -10.860  -1.884  0.00  0.00    +0.120 C 
ENDBRANCH  10  11
ENDBRANCH   8  10
ENDBRANCH   6   8
BRANCH   1  21
ATOM     21  C   UNL     1      -2.881  -2.427   0.017  0.00  0.00    +0.174 C 
BRANCH  21  22
ATOM     22  C   UNL     1      -1.496  -1.832   0.006  0.00  0.00    +0.313 C 
ATOM     23  O   UNL     1      -0.528  -2.555  -0.007  0.00  0.00    -0.250 OA
BRANCH  22  24
ATOM     24  O   UNL     1      -1.339  -0.499   0.012  0.00  0.00    -0.465 OA
BRANCH  24  26
ATOM     25  C   UNL     1      -0.019   1.526   0.010  0.00  0.00    +0.048 C 
ATOM     26  C   UNL     1       0.002  -0.004   0.002  0.00  0.00    +0.229 C 
ENDBRANCH  24  26
ENDBRANCH  22  24
ENDBRANCH  21  22
ENDBRANCH   1  21
TORSDOF 7
