REMARK  Name = ZINC06362188
REMARK  10 active torsions:
REMARK  status: ('A' for Active; 'I' for Inactive)
REMARK    1  A    between atoms: C_1  and  C_2
REMARK    2  A    between atoms: C_4  and  C_31
REMARK    3  A    between atoms: C_5  and  S_9
REMARK    4  A    between atoms: C_6  and  C_8
REMARK    5  A    between atoms: S_9  and  N_12
REMARK    6  A    between atoms: N_12  and  C_13
REMARK    7  A    between atoms: C_18  and  C_19
REMARK    8  A    between atoms: N_21  and  C_22
REMARK    9  A    between atoms: C_22  and  C_24
REMARK   10  A    between atoms: C_22  and  C_25
REMARK                            x       y       z     vdW  Elec       q    Type
REMARK                         _______ _______ _______ _____ _____    ______ ____
ROOT
ATOM      1  C   UNL     1       4.974  -1.240  -2.507  0.00  0.00    +0.060 A 
ATOM      2  C   UNL     1       5.319   0.028  -2.054  0.00  0.00    +0.025 A 
ATOM      3  C   UNL     1       5.417   1.077  -2.944  0.00  0.00    +0.002 A 
ATOM      4  C   UNL     1       5.174   0.877  -4.294  0.00  0.00    +0.001 A 
ATOM      5  C   UNL     1       4.831  -0.373  -4.762  0.00  0.00    +0.015 A 
ATOM      6  C   UNL     1       4.733  -1.447  -3.874  0.00  0.00    +0.059 A 
ENDROOT
BRANCH   6   7
ATOM      7  C   UNL     1       4.373  -2.788  -4.369  0.00  0.00    +0.246 C 
ATOM      8  O   UNL     1       4.284  -3.720  -3.592  0.00  0.00    -0.270 OA
ATOM      9  N   UNL     1       4.142  -2.982  -5.682  0.00  0.00    -0.305 N 
ATOM     10  H   UNL     1       4.212  -2.239  -6.302  0.00  0.00    +0.150 HD
BRANCH   9  11
ATOM     11  C   UNL     1       3.784  -4.315  -6.174  0.00  0.00    +0.100 C 
ATOM     12  C   UNL     1       2.275  -4.524  -6.028  0.00  0.00    +0.033 C 
BRANCH  11  13
ATOM     13  C   UNL     1       4.169  -4.434  -7.626  0.00  0.00    -0.027 A 
ATOM     14  C   UNL     1       3.967  -3.370  -8.485  0.00  0.00    +0.005 A 
ATOM     15  C   UNL     1       4.325  -3.478  -9.816  0.00  0.00    +0.000 A 
ATOM     16  C   UNL     1       4.875  -4.654 -10.290  0.00  0.00    +0.000 A 
ATOM     17  C   UNL     1       5.072  -5.720  -9.432  0.00  0.00    +0.000 A 
ATOM     18  C   UNL     1       4.719  -5.611  -8.101  0.00  0.00    +0.005 A 
ENDBRANCH  11  13
ENDBRANCH   9  11
ENDBRANCH   6   7
BRANCH   1  19
ATOM     19  N   UNL     1       4.875  -2.298  -1.612  0.00  0.00    -0.216 N 
ATOM     20  H   UNL     1       4.012  -2.541  -1.242  0.00  0.00    +0.174 HD
BRANCH  19  21
ATOM     21  S   UNL     1       6.230  -3.144  -1.177  0.00  0.00    +0.073 S 
ATOM     22  O   UNL     1       6.902  -3.482  -2.383  0.00  0.00    -0.150 OA
ATOM     23  O   UNL     1       5.812  -4.125  -0.238  0.00  0.00    -0.150 OA
BRANCH  21  28
ATOM     24  C   UNL     1       9.840   0.665   1.800  0.00  0.00    +0.044 C 
ATOM     25  C   UNL     1       8.935  -0.283   1.056  0.00  0.00    -0.050 A 
ATOM     26  C   UNL     1       7.976  -1.005   1.741  0.00  0.00    +0.008 A 
ATOM     27  C   UNL     1       7.151  -1.880   1.059  0.00  0.00    -0.023 A 
ATOM     28  C   UNL     1       7.283  -2.031  -0.308  0.00  0.00    +0.114 A 
ATOM     29  C   UNL     1       8.242  -1.309  -0.994  0.00  0.00    -0.023 A 
ATOM     30  C   UNL     1       9.068  -0.435  -0.312  0.00  0.00    +0.008 A 
ATOM     31  C   UNL     1       8.387  -1.474  -2.485  0.00  0.00    +0.046 C 
ATOM     32  C   UNL     1       6.105  -2.667   1.807  0.00  0.00    +0.046 C 
ENDBRANCH  21  28
ENDBRANCH  19  21
ENDBRANCH   1  19
TORSDOF 6
