REMARK  Name = ZINC15971909
REMARK  5 active torsions:
REMARK  status: ('A' for Active; 'I' for Inactive)
REMARK    1  A    between atoms: C_1  and  C_2
REMARK    2  A    between atoms: C_5  and  N_8
REMARK    3  A    between atoms: C_13  and  C_31
REMARK    4  A    between atoms: C_25  and  C_30
REMARK    5  A    between atoms: C_31  and  C_32
REMARK                            x       y       z     vdW  Elec       q    Type
REMARK                         _______ _______ _______ _____ _____    ______ ____
ROOT
ATOM      1  N   UNL     1       0.059  -4.172  -0.021  0.00  0.00    -0.210 N 
ATOM      2  C   UNL     1      -0.030  -4.891  -1.146  0.00  0.00    +0.232 C 
ATOM      3  O   UNL     1      -0.133  -4.432  -2.264  0.00  0.00    -0.274 OA
ATOM      4  C   UNL     1       0.018  -6.364  -0.807  0.00  0.00    +0.108 C 
ATOM      5  C   UNL     1      -1.361  -6.994  -1.098  0.00  0.00    +0.072 C 
ATOM      6  N   UNL     1      -1.661  -7.824   0.099  0.00  0.00    -0.295 NA
ATOM      7  C   UNL     1      -1.160  -7.021   1.230  0.00  0.00    +0.136 C 
ATOM      8  C   UNL     1       0.158  -6.370   0.741  0.00  0.00    +0.123 C 
ATOM      9  C   UNL     1       0.172  -4.901   1.096  0.00  0.00    +0.233 C 
ATOM     10  O   UNL     1       0.269  -4.452   2.218  0.00  0.00    -0.274 OA
ATOM     11  C   UNL     1      -0.930  -7.870   2.448  0.00  0.00    +0.004 A 
ATOM     12  C   UNL     1      -0.134  -8.964   2.705  0.00  0.00    +0.008 A 
ATOM     13  C   UNL     1      -0.140  -9.546   3.960  0.00  0.00    +0.001 A 
ATOM     14  C   UNL     1      -0.947  -9.025   4.956  0.00  0.00    +0.005 A 
ATOM     15  C   UNL     1      -1.745  -7.929   4.704  0.00  0.00    -0.029 A 
ATOM     16  C   UNL     1      -1.746  -7.338   3.442  0.00  0.00    +0.042 A 
ATOM     17  N   UNL     1      -2.453  -6.239   2.950  0.00  0.00    -0.283 N 
ATOM     18  C   UNL     1      -2.166  -5.988   1.658  0.00  0.00    +0.243 C 
ATOM     19  O   UNL     1      -2.629  -5.101   0.972  0.00  0.00    -0.273 OA
ATOM     20  C   UNL     1      -2.620  -7.370   5.796  0.00  0.00    +0.045 C 
ATOM     21  H   UNL     1      -2.652  -7.990   0.184  0.00  0.00    +0.124 HD
ATOM     22  H   UNL     1      -3.079  -5.718   3.476  0.00  0.00    +0.155 HD
ENDROOT
BRANCH   1  27
ATOM     23  C   UNL     1      -0.016   1.503   0.009  0.00  0.00    +0.044 C 
ATOM     24  C   UNL     1       0.004  -0.004   0.001  0.00  0.00    -0.050 A 
ATOM     25  C   UNL     1       1.155  -0.681   0.358  0.00  0.00    +0.005 A 
ATOM     26  C   UNL     1       1.177  -2.062   0.352  0.00  0.00    +0.024 A 
ATOM     27  C   UNL     1       0.040  -2.771  -0.013  0.00  0.00    +0.044 A 
ATOM     28  C   UNL     1      -1.115  -2.088  -0.371  0.00  0.00    +0.024 A 
ATOM     29  C   UNL     1      -1.131  -0.707  -0.358  0.00  0.00    +0.005 A 
ENDBRANCH   1  27
BRANCH   5  30
ATOM     30  C   UNL     1      -1.292  -7.869  -2.352  0.00  0.00    +0.056 C 
BRANCH  30  31
ATOM     31  C   UNL     1      -2.672  -8.375  -2.687  0.00  0.00    -0.021 A 
ATOM     32  C   UNL     1      -3.201  -9.553  -2.321  0.00  0.00    +0.087 A 
ATOM     33  N   UNL     1      -4.474  -9.664  -2.809  0.00  0.00    -0.360 N 
ATOM     34  H   UNL     1      -5.058 -10.427  -2.675  0.00  0.00    +0.165 HD
ATOM     35  C   UNL     1      -4.804  -8.532  -3.520  0.00  0.00    +0.047 A 
ATOM     36  C   UNL     1      -3.691  -7.672  -3.470  0.00  0.00    +0.003 A 
ATOM     37  C   UNL     1      -3.740  -6.431  -4.107  0.00  0.00    +0.010 A 
ATOM     38  C   UNL     1      -4.872  -6.056  -4.775  0.00  0.00    +0.001 A 
ATOM     39  C   UNL     1      -5.973  -6.899  -4.825  0.00  0.00    +0.002 A 
ATOM     40  C   UNL     1      -5.943  -8.132  -4.210  0.00  0.00    +0.026 A 
ENDBRANCH  30  31
ENDBRANCH   5  30
TORSDOF 3
