REMARK  Name = ZINC04578051
REMARK  9 active torsions:
REMARK  status: ('A' for Active; 'I' for Inactive)
REMARK    1  A    between atoms: C_1  and  C_2
REMARK    2  A    between atoms: C_2  and  O_4
REMARK    3  A    between atoms: O_4  and  C_5
REMARK    4  A    between atoms: C_5  and  C_6
REMARK    5  A    between atoms: C_6  and  C_8
REMARK    6  A    between atoms: C_8  and  O_34
REMARK    7  A    between atoms: C_13  and  C_33
REMARK    8  A    between atoms: C_25  and  C_32
REMARK    9  A    between atoms: C_28  and  O_31
REMARK                            x       y       z     vdW  Elec       q    Type
REMARK                         _______ _______ _______ _____ _____    ______ ____
ROOT
ATOM      1  C   UNL     1      -0.059   7.952   1.110  0.00  0.00    +0.133 C 
ATOM      2  C   UNL     1      -1.592   7.963   1.036  0.00  0.00    +0.043 C 
ATOM      3  C   UNL     1      -1.954   8.099  -0.460  0.00  0.00    +0.008 C 
ATOM      4  C   UNL     1      -0.695   7.545  -1.196  0.00  0.00    +0.002 C 
ATOM      5  C   UNL     1       0.438   8.120  -0.330  0.00  0.00    +0.013 C 
ATOM      6  C   UNL     1       1.778   7.468  -0.579  0.00  0.00    +0.084 C 
ATOM      7  C   UNL     1       1.636   5.965  -0.599  0.00  0.00    +0.138 C 
ATOM      8  O   UNL     1       2.359   5.257   0.062  0.00  0.00    -0.297 OA
ATOM      9  C   UNL     1       0.552   5.378  -1.481  0.00  0.00    +0.065 C 
ATOM     10  C   UNL     1      -0.771   6.031  -1.104  0.00  0.00    +0.003 C 
ATOM     11  C   UNL     1      -1.913   5.532  -1.988  0.00  0.00    +0.005 C 
ATOM     12  C   UNL     1      -1.789   4.025  -2.228  0.00  0.00    +0.004 C 
ATOM     13  C   UNL     1      -0.962   3.430  -1.095  0.00  0.00    -0.002 C 
ATOM     14  C   UNL     1       0.494   3.874  -1.257  0.00  0.00    -0.019 C 
ATOM     15  C   UNL     1       1.274   3.436  -0.019  0.00  0.00    +0.010 C 
ATOM     16  C   UNL     1       1.244   1.902   0.040  0.00  0.00    +0.032 C 
ATOM     17  C   UNL     1      -0.200   1.408   0.127  0.00  0.00    +0.115 C 
ATOM     18  C   UNL     1      -1.010   1.906  -1.076  0.00  0.00    +0.035 C 
ATOM     19  C   UNL     1       1.076   3.168  -2.484  0.00  0.00    +0.012 C 
ATOM     20  C   UNL     1       0.562   9.616  -0.628  0.00  0.00    +0.015 C 
ENDROOT
BRANCH   1  21
ATOM     21  C   UNL     1       0.430   6.646   1.680  0.00  0.00    +0.202 C 
ATOM     22  O   UNL     1      -0.252   5.653   1.586  0.00  0.00    -0.291 OA
BRANCH  21  23
ATOM     23  C   UNL     1       1.770   6.577   2.367  0.00  0.00    +0.309 C 
BRANCH  23  24
ATOM     24  O   UNL     1       2.010   5.221   2.825  0.00  0.00    -0.457 OA
BRANCH  24  26
ATOM     25  C   UNL     1       3.488   3.605   3.966  0.00  0.00    +0.136 C 
ATOM     26  C   UNL     1       3.169   4.989   3.462  0.00  0.00    +0.304 C 
ATOM     27  O   UNL     1       3.956   5.890   3.632  0.00  0.00    -0.251 OA
ENDBRANCH  24  26
ENDBRANCH  23  24
ENDBRANCH  21  23
ENDBRANCH   1  21
BRANCH  17  28
ATOM     28  O   UNL     1      -0.209  -0.021   0.144  0.00  0.00    -0.392 OA
ATOM     29  H   UNL     1       0.272  -0.409   0.887  0.00  0.00    +0.210 HD
ENDBRANCH  17  28
BRANCH   1  30
ATOM     30  O   UNL     1       0.391   9.043   1.917  0.00  0.00    -0.380 OA
ATOM     31  H   UNL     1       0.107   8.991   2.841  0.00  0.00    +0.211 HD
ENDBRANCH   1  30
TORSDOF 6
