REMARK  Name = ZINC35594733
REMARK  15 active torsions:
REMARK  status: ('A' for Active; 'I' for Inactive)
REMARK    1  A    between atoms: C_1  and  C_2
REMARK    2  A    between atoms: C_6  and  C_8
REMARK    3  A    between atoms: C_11  and  C_36
REMARK    4  A    between atoms: N_13  and  C_29
REMARK    5  A    between atoms: N_15  and  C_20
REMARK    6  A    between atoms: C_20  and  C_21
REMARK    7  A    between atoms: N_23  and  C_24
REMARK    8  A    between atoms: C_24  and  C_25
REMARK    9  A    between atoms: C_25  and  N_26
REMARK   10  A    between atoms: N_26  and  C_27
REMARK   11  A    between atoms: N_26  and  C_28
REMARK   12  A    between atoms: C_34  and  C_35
REMARK   13  A    between atoms: C_36  and  C_37
REMARK   14  A    between atoms: C_36  and  C_38
REMARK   15  A    between atoms: C_36  and  C_39
REMARK                            x       y       z     vdW  Elec       q    Type
REMARK                         _______ _______ _______ _____ _____    ______ ____
ROOT
ATOM      1  C   UNL     1      -0.774  -1.020   3.044  0.00  0.00    +0.112 C 
ATOM      2  C   UNL     1      -2.065  -1.768   2.829  0.00  0.00    +0.034 A 
ATOM      3  C   UNL     1      -2.498  -2.386   1.655  0.00  0.00    +0.075 A 
ATOM      4  N   UNL     1      -3.673  -2.922   1.883  0.00  0.00    -0.169 NA
ATOM      5  N   UNL     1      -4.029  -2.661   3.216  0.00  0.00    -0.217 N 
ATOM      6  C   UNL     1      -3.018  -1.952   3.772  0.00  0.00    +0.136 A 
ATOM      7  N   UNL     1      -2.919  -1.473   5.087  0.00  0.00    -0.246 N 
ATOM      8  C   UNL     1      -1.789  -1.701   5.764  0.00  0.00    +0.231 C 
ATOM      9  O   UNL     1      -1.545  -1.058   6.764  0.00  0.00    -0.274 OA
ATOM     10  C   UNL     1      -0.824  -2.746   5.295  0.00  0.00    +0.166 C 
ATOM     11  S   UNL     1       0.337  -2.048   4.071  0.00  0.00    -0.138 S 
ENDROOT
BRANCH   1  17
ATOM     12  C   UNL     1      -0.347   1.798  -1.069  0.00  0.00    +0.044 C 
ATOM     13  C   UNL     1       0.082   0.605  -0.254  0.00  0.00    -0.050 A 
ATOM     14  C   UNL     1       1.074  -0.235  -0.726  0.00  0.00    +0.003 A 
ATOM     15  C   UNL     1       1.467  -1.329   0.022  0.00  0.00    +0.001 A 
ATOM     16  C   UNL     1       0.869  -1.583   1.242  0.00  0.00    +0.005 A 
ATOM     17  C   UNL     1      -0.122  -0.743   1.714  0.00  0.00    -0.030 A 
ATOM     18  C   UNL     1      -0.512   0.354   0.968  0.00  0.00    +0.008 A 
ENDBRANCH   1  17
BRANCH   5  19
ATOM     19  C   UNL     1      -5.212  -3.060   3.853  0.00  0.00    +0.070 A 
ATOM     20  C   UNL     1      -6.120  -2.107   4.293  0.00  0.00    +0.028 A 
ATOM     21  C   UNL     1      -7.285  -2.503   4.920  0.00  0.00    +0.002 A 
ATOM     22  C   UNL     1      -7.547  -3.847   5.110  0.00  0.00    +0.000 A 
ATOM     23  C   UNL     1      -6.644  -4.799   4.673  0.00  0.00    +0.005 A 
ATOM     24  C   UNL     1      -5.480  -4.409   4.039  0.00  0.00    -0.025 A 
ATOM     25  C   UNL     1      -4.500  -5.447   3.558  0.00  0.00    +0.046 C 
ENDBRANCH   5  19
BRANCH   3  26
ATOM     26  C   UNL     1      -1.745  -2.430   0.350  0.00  0.00    +0.007 C 
ATOM     27  C   UNL     1      -0.440  -3.206   0.540  0.00  0.00    +0.017 C 
ATOM     28  C   UNL     1      -2.602  -3.126  -0.710  0.00  0.00    +0.017 C 
ATOM     29  C   UNL     1      -1.429  -1.004  -0.105  0.00  0.00    +0.017 C 
ENDBRANCH   3  26
BRANCH   7  30
ATOM     30  C   UNL     1      -4.028  -0.740   5.702  0.00  0.00    +0.210 C 
BRANCH  30  31
ATOM     31  C   UNL     1      -4.793  -1.662   6.617  0.00  0.00    +0.231 C 
ATOM     32  O   UNL     1      -4.412  -2.801   6.786  0.00  0.00    -0.274 OA
ATOM     33  N   UNL     1      -5.899  -1.220   7.247  0.00  0.00    -0.316 N 
ATOM     34  H   UNL     1      -6.231  -0.325   7.074  0.00  0.00    +0.149 HD
BRANCH  33  35
ATOM     35  C   UNL     1      -6.602  -2.092   8.191  0.00  0.00    +0.085 C 
BRANCH  35  36
ATOM     36  C   UNL     1      -7.887  -1.406   8.660  0.00  0.00    -0.061 C 
BRANCH  36  37
ATOM     37  N   UNL     1      -8.591  -2.280   9.607  0.00  0.00    +0.377 N 
ATOM     38  C   UNL     1      -7.777  -2.449  10.817  0.00  0.00    -0.097 C 
ATOM     39  C   UNL     1      -9.881  -1.676   9.965  0.00  0.00    -0.097 C 
ATOM     40  H   UNL     1      -8.749  -3.181   9.180  0.00  0.00    -0.083 HD
ENDBRANCH  36  37
ENDBRANCH  35  36
ENDBRANCH  33  35
ENDBRANCH  30  31
ENDBRANCH   7  30
TORSDOF 8
