REMARK  Name = ZINC31157276
REMARK  10 active torsions:
REMARK  status: ('A' for Active; 'I' for Inactive)
REMARK    1  A    between atoms: C_1  and  C_2
REMARK    2  A    between atoms: C_4  and  O_26
REMARK    3  A    between atoms: C_12  and  C_19
REMARK    4  A    between atoms: C_16  and  O_18
REMARK    5  A    between atoms: O_26  and  C_27
REMARK    6  A    between atoms: C_27  and  C_29
REMARK    7  A    between atoms: C_29  and  C_31
REMARK    8  A    between atoms: C_31  and  C_33
REMARK    9  A    between atoms: C_31  and  O_35
REMARK   10  A    between atoms: C_33  and  O_34
REMARK                            x       y       z     vdW  Elec       q    Type
REMARK                         _______ _______ _______ _____ _____    ______ ____
ROOT
ATOM      1  C   UNL     1      -0.467   0.229   0.341  0.00  0.00    +0.014 C 
ATOM      2  C   UNL     1       0.009  -1.224   0.277  0.00  0.00    +0.004 C 
ATOM      3  C   UNL     1       0.750  -1.440  -1.038  0.00  0.00    +0.055 C 
ATOM      4  C   UNL     1       2.042  -0.609  -1.104  0.00  0.00    +0.188 C 
ATOM      5  C   UNL     1       2.891  -1.008   0.087  0.00  0.00    +0.107 C 
ATOM      6  C   UNL     1       2.111  -0.561   1.358  0.00  0.00    +0.192 C 
ATOM      7  C   UNL     1       0.910  -1.502   1.490  0.00  0.00    +0.049 C 
ATOM      8  C   UNL     1       1.363  -2.963   1.457  0.00  0.00    +0.059 C 
ATOM      9  C   UNL     1       0.140  -3.880   1.508  0.00  0.00    +0.014 C 
ATOM     10  C   UNL     1      -0.755  -3.603   0.299  0.00  0.00    +0.032 C 
ATOM     11  C   UNL     1      -1.210  -2.143   0.327  0.00  0.00    +0.121 C 
ATOM     12  O   UNL     1       3.131  -0.629   2.346  0.00  0.00    -0.457 OA
ATOM     13  C   UNL     1       4.237  -0.063   1.772  0.00  0.00    +0.335 C 
ATOM     14  O   UNL     1       5.133   0.495   2.374  0.00  0.00    -0.245 OA
ATOM     15  C   UNL     1       4.178  -0.250   0.286  0.00  0.00    +0.040 C 
ATOM     16  C   UNL     1       5.044   0.158  -0.639  0.00  0.00    +0.020 C 
ENDROOT
BRANCH  11  17
ATOM     17  O   UNL     1      -1.942  -1.897   1.530  0.00  0.00    -0.391 OA
ATOM     18  H   UNL     1      -2.732  -2.446   1.629  0.00  0.00    +0.210 HD
ENDBRANCH  11  17
BRANCH   8  19
ATOM     19  C   UNL     1       2.249  -3.242   2.643  0.00  0.00    +0.227 C 
ATOM     20  O   UNL     1       3.386  -3.612   2.475  0.00  0.00    -0.301 OA
ENDBRANCH   8  19
BRANCH   4  21
ATOM     21  O   UNL     1       2.741  -0.890  -2.319  0.00  0.00    -0.457 OA
BRANCH  21  22
ATOM     22  C   UNL     1       2.439  -0.129  -3.389  0.00  0.00    +0.337 C 
ATOM     23  O   UNL     1       1.677   0.811  -3.271  0.00  0.00    -0.245 OA
BRANCH  22  24
ATOM     24  C   UNL     1       3.031  -0.434  -4.699  0.00  0.00    +0.060 C 
ATOM     25  C   UNL     1       2.824   0.382  -5.730  0.00  0.00    +0.022 C 
BRANCH  24  26
ATOM     26  C   UNL     1       3.874  -1.671  -4.875  0.00  0.00    +0.176 C 
BRANCH  26  27
ATOM     27  O   UNL     1       3.128  -2.818  -4.462  0.00  0.00    -0.385 OA
ATOM     28  H   UNL     1       2.848  -2.793  -3.536  0.00  0.00    +0.210 HD
ENDBRANCH  26  27
BRANCH  26  29
ATOM     29  C   UNL     1       5.139  -1.552  -4.023  0.00  0.00    +0.192 C 
BRANCH  29  30
ATOM     30  O   UNL     1       6.000  -2.660  -4.291  0.00  0.00    -0.392 OA
ATOM     31  H   UNL     1       6.824  -2.650  -3.784  0.00  0.00    +0.210 HD
ENDBRANCH  29  30
ENDBRANCH  26  29
ENDBRANCH  24  26
ENDBRANCH  22  24
ENDBRANCH  21  22
ENDBRANCH   4  21
TORSDOF 9
