REMARK  Name = ZINC09355958
REMARK  8 active torsions:
REMARK  status: ('A' for Active; 'I' for Inactive)
REMARK    1  A    between atoms: C_1  and  C_2
REMARK    2  A    between atoms: C_2  and  O_4
REMARK    3  A    between atoms: O_4  and  C_5
REMARK    4  A    between atoms: C_5  and  C_6
REMARK    5  A    between atoms: C_5  and  O_29
REMARK    6  A    between atoms: N_18  and  C_21
REMARK    7  A    between atoms: O_29  and  C_30
REMARK    8  A    between atoms: C_30  and  C_32
REMARK                            x       y       z     vdW  Elec       q    Type
REMARK                         _______ _______ _______ _____ _____    ______ ____
ROOT
ATOM      1  C   UNL     1      -4.721  -0.340  -1.234  0.00  0.00    +0.174 C 
ATOM      2  C   UNL     1      -4.641  -1.671  -0.436  0.00  0.00    +0.014 C 
ATOM      3  C   UNL     1      -4.290  -1.299   0.778  0.00  0.00    +0.004 C 
ATOM      4  C   UNL     1      -4.210   0.219   0.850  0.00  0.00    +0.155 C 
ATOM      5  O   UNL     1      -5.277   0.490  -0.151  0.00  0.00    -0.353 OA
ATOM      6  C   UNL     1      -3.135   0.831   0.056  0.00  0.00    +0.124 C 
ATOM      7  C   UNL     1      -3.210  -0.026  -1.280  0.00  0.00    +0.134 C 
ATOM      8  C   UNL     1      -2.626   1.063  -2.129  0.00  0.00    +0.233 C 
ATOM      9  O   UNL     1      -2.957   1.396  -3.247  0.00  0.00    -0.274 OA
ATOM     10  N   UNL     1      -1.625   1.597  -1.351  0.00  0.00    -0.208 N 
ATOM     11  C   UNL     1      -1.761   1.253  -0.016  0.00  0.00    +0.233 C 
ATOM     12  O   UNL     1      -0.932   1.297   0.868  0.00  0.00    -0.274 OA
ENDROOT
BRANCH  10  13
ATOM     13  C   UNL     1      -0.591   2.402  -1.850  0.00  0.00    +0.062 A 
ATOM     14  C   UNL     1       0.594   1.822  -2.282  0.00  0.00    +0.027 A 
ATOM     15  C   UNL     1       1.610   2.616  -2.778  0.00  0.00    +0.022 A 
ATOM     16  C   UNL     1       1.449   3.989  -2.840  0.00  0.00    +0.042 A 
ATOM     17  C   UNL     1       0.272   4.571  -2.406  0.00  0.00    +0.042 A 
ATOM     18  C   UNL     1      -0.748   3.781  -1.909  0.00  0.00    +0.064 A 
ATOM     19 CL   UNL     1      -2.226   4.510  -1.364  0.00  0.00    -0.082 Cl
ATOM     20 CL   UNL     1       2.728   4.984  -3.463  0.00  0.00    -0.083 Cl
ENDBRANCH  10  13
BRANCH   1  21
ATOM     21  C   UNL     1      -5.470  -0.331  -2.568  0.00  0.00    +0.406 C 
BRANCH  21  22
ATOM     22  O   UNL     1      -6.874  -0.622  -2.337  0.00  0.00    -0.421 OA
BRANCH  22  24
ATOM     23  C   UNL     1      -9.064  -1.309  -3.246  0.00  0.00    +0.136 C 
ATOM     24  C   UNL     1      -7.627  -0.887  -3.415  0.00  0.00    +0.307 C 
ATOM     25  O   UNL     1      -7.154  -0.788  -4.522  0.00  0.00    -0.251 OA
ENDBRANCH  22  24
ENDBRANCH  21  22
BRANCH  21  26
ATOM     26  O   UNL     1      -5.343   0.976  -3.186  0.00  0.00    -0.421 OA
BRANCH  26  27
ATOM     27  C   UNL     1      -5.871   2.018  -2.524  0.00  0.00    +0.307 C 
ATOM     28  O   UNL     1      -6.511   1.831  -1.516  0.00  0.00    -0.251 OA
ATOM     29  C   UNL     1      -5.665   3.420  -3.037  0.00  0.00    +0.136 C 
ENDBRANCH  26  27
ENDBRANCH  21  26
ENDBRANCH   1  21
TORSDOF 6
