REMARK  Name = ZINC51506358
REMARK  8 active torsions:
REMARK  status: ('A' for Active; 'I' for Inactive)
REMARK    1  A    between atoms: C_1  and  C_2
REMARK    2  A    between atoms: C_2  and  C_4
REMARK    3  A    between atoms: C_2  and  N_12
REMARK    4  A    between atoms: C_13  and  C_15
REMARK    5  A    between atoms: C_15  and  N_16
REMARK    6  A    between atoms: N_16  and  C_17
REMARK    7  A    between atoms: N_16  and  C_18
REMARK    8  A    between atoms: C_18  and  C_19
REMARK                            x       y       z     vdW  Elec       q    Type
REMARK                         _______ _______ _______ _____ _____    ______ ____
ROOT
ATOM      1  C   UNL     1       0.631  -0.802  -3.688  0.00  0.00    +0.018 C 
ENDROOT
BRANCH   1   3
ATOM      2  N   UNL     1       0.668  -0.334  -1.260  0.00  0.00    -0.306 N 
ATOM      3  C   UNL     1      -0.054  -0.461  -2.390  0.00  0.00    +0.197 C 
ATOM      4  O   UNL     1      -1.256  -0.302  -2.362  0.00  0.00    -0.278 OA
ATOM      5  H   UNL     1       1.630  -0.461  -1.282  0.00  0.00    +0.149 HD
BRANCH   2   7
ATOM      6  C   UNL     1      -0.162   1.514   0.110  0.00  0.00    +0.038 C 
ATOM      7  C   UNL     1       0.002  -0.003   0.002  0.00  0.00    +0.156 C 
BRANCH   7   8
ATOM      8  C   UNL     1       0.835  -0.501   1.155  0.00  0.00    +0.236 C 
ATOM      9  O   UNL     1       2.004  -0.774   0.986  0.00  0.00    -0.274 OA
ATOM     10  N   UNL     1       0.280  -0.644   2.375  0.00  0.00    -0.300 N 
ATOM     11  C   UNL     1      -1.161  -0.431   2.572  0.00  0.00    +0.108 C 
ATOM     12  C   UNL     1      -1.754  -1.668   3.252  0.00  0.00    +0.019 C 
ATOM     13  C   UNL     1      -0.980  -1.958   4.540  0.00  0.00    +0.003 C 
ATOM     14  C   UNL     1       0.484  -2.248   4.203  0.00  0.00    +0.019 C 
ATOM     15  C   UNL     1       1.102  -1.023   3.532  0.00  0.00    +0.108 C 
ENDBRANCH   7   8
ENDBRANCH   2   7
ENDBRANCH   1   3
BRANCH   1  16
ATOM     16  N   UNL     1      -0.368  -0.883  -4.763  0.00  0.00    +0.386 N 
ATOM     17  C   UNL     1      -1.280  -2.004  -4.499  0.00  0.00    -0.095 C 
ATOM     18  H   UNL     1      -0.894  -0.023  -4.799  0.00  0.00    -0.081 HD
BRANCH  16  19
ATOM     19  C   UNL     1       0.311  -1.096  -6.048  0.00  0.00    -0.030 C 
BRANCH  19  20
ATOM     20  C   UNL     1      -0.716  -1.056  -7.181  0.00  0.00    +0.194 C 
ATOM     21  C   UNL     1      -0.031  -1.387  -8.513  0.00  0.00    +0.271 C 
ATOM     22  O   UNL     1      -1.015  -1.328  -9.551  0.00  0.00    -0.485 OA
ATOM     23  C   UNL     1      -1.844  -0.248  -9.546  0.00  0.00    +0.162 A 
ATOM     24  C   UNL     1      -2.561   0.065 -10.691  0.00  0.00    +0.049 A 
ATOM     25  C   UNL     1      -3.409   1.156 -10.701  0.00  0.00    +0.004 A 
ATOM     26  C   UNL     1      -3.545   1.938  -9.570  0.00  0.00    +0.004 A 
ATOM     27  C   UNL     1      -2.832   1.633  -8.426  0.00  0.00    +0.049 A 
ATOM     28  C   UNL     1      -1.978   0.541  -8.410  0.00  0.00    +0.162 A 
ATOM     29  O   UNL     1      -1.277   0.257  -7.278  0.00  0.00    -0.484 OA
ENDBRANCH  19  20
ENDBRANCH  16  19
ENDBRANCH   1  16
TORSDOF 6
