REMARK  Name = ZINC18266817
REMARK  5 active torsions:
REMARK  status: ('A' for Active; 'I' for Inactive)
REMARK    1  A    between atoms: C_1  and  C_2
REMARK    2  A    between atoms: C_2  and  C_3
REMARK    3  A    between atoms: C_3  and  C_4
REMARK    4  A    between atoms: C_15  and  C_24
REMARK    5  A    between atoms: C_19  and  C_23
REMARK                            x       y       z     vdW  Elec       q    Type
REMARK                         _______ _______ _______ _____ _____    ______ ____
ROOT
ATOM      1  C   UNL     1      -1.413  -2.041   0.005  0.00  0.00    +0.050 A 
ATOM      2  C   UNL     1      -1.501  -2.729   1.179  0.00  0.00    +0.093 A 
ATOM      3  C   UNL     1      -1.480  -4.135   1.145  0.00  0.00    +0.253 A 
ATOM      4  O   UNL     1      -1.557  -4.783   2.176  0.00  0.00    -0.268 OA
ATOM      5  N   UNL     1      -1.373  -4.754  -0.050  0.00  0.00    -0.295 N 
ATOM      6  H   UNL     1      -1.357  -5.723  -0.097  0.00  0.00    +0.172 HD
ATOM      7  C   UNL     1      -1.288  -4.014  -1.188  0.00  0.00    +0.202 A 
ATOM      8  N   UNL     1      -1.314  -2.697  -1.149  0.00  0.00    -0.221 NA
ATOM      9  N   UNL     1      -1.180  -4.651  -2.400  0.00  0.00    -0.254 N 
ATOM     10  C   UNL     1      -1.093  -3.908  -3.568  0.00  0.00    +0.222 A 
ATOM     11  N   UNL     1      -1.112  -2.579  -3.483  0.00  0.00    -0.219 NA
ATOM     12  C   UNL     1      -1.032  -1.819  -4.555  0.00  0.00    +0.051 A 
ATOM     13  C   UNL     1      -0.925  -2.442  -5.813  0.00  0.00    +0.022 A 
ATOM     14  C   UNL     1      -0.835  -1.705  -7.003  0.00  0.00    +0.012 A 
ATOM     15  C   UNL     1      -0.733  -2.362  -8.192  0.00  0.00    +0.004 A 
ATOM     16  C   UNL     1      -0.717  -3.754  -8.243  0.00  0.00    -0.048 A 
ATOM     17  C   UNL     1      -0.802  -4.500  -7.107  0.00  0.00    +0.032 A 
ATOM     18  C   UNL     1      -0.908  -3.860  -5.864  0.00  0.00    +0.077 A 
ATOM     19  N   UNL     1      -0.989  -4.546  -4.717  0.00  0.00    -0.214 NA
ATOM     20  C   UNL     1      -0.604  -4.446  -9.577  0.00  0.00    +0.044 C 
ATOM     21  C   UNL     1      -1.056  -0.317  -4.439  0.00  0.00    +0.066 C 
ATOM     22  H   UNL     1      -1.164  -5.620  -2.439  0.00  0.00    +0.158 HD
ENDROOT
BRANCH   1  23
ATOM     23  C   UNL     1      -1.433  -0.534   0.013  0.00  0.00    +0.055 C 
BRANCH  23  25
ATOM     24  C   UNL     1      -0.019   1.526   0.010  0.00  0.00    +0.004 C 
ATOM     25  C   UNL     1       0.002  -0.004   0.002  0.00  0.00    +0.003 C 
ENDBRANCH  23  25
ENDBRANCH   1  23
TORSDOF 2
