REMARK  Name = ZINC09495867
REMARK  5 active torsions:
REMARK  status: ('A' for Active; 'I' for Inactive)
REMARK    1  A    between atoms: C_3  and  C_6
REMARK    2  A    between atoms: C_6  and  N_7
REMARK    3  A    between atoms: C_8  and  C_10
REMARK    4  A    between atoms: C_10  and  N_11
REMARK    5  A    between atoms: C_12  and  C_14
REMARK                            x       y       z     vdW  Elec       q    Type
REMARK                         _______ _______ _______ _____ _____    ______ ____
ROOT
ATOM      1  N   UNL     1       4.768   0.800  -0.040  0.00  0.00    -0.302 N 
ATOM      2  C   UNL     1       3.775   1.711  -0.025  0.00  0.00    +0.253 C 
ATOM      3  O   UNL     1       4.038   2.899  -0.022  0.00  0.00    -0.270 OA
ATOM      4  H   UNL     1       4.558  -0.146  -0.042  0.00  0.00    +0.150 HD
ENDROOT
BRANCH   2   5
ATOM      5  C   UNL     1       2.375   1.270  -0.014  0.00  0.00    +0.093 A 
ATOM      6  C   UNL     1       1.246   2.031   0.001  0.00  0.00    +0.068 A 
ATOM      7  C   UNL     1      -0.017   1.411   0.010  0.00  0.00    +0.008 A 
ATOM      8  C   UNL     1      -1.296   2.025   0.031  0.00  0.00    +0.013 A 
ATOM      9  C   UNL     1      -2.427   1.275   0.033  0.00  0.00    +0.039 A 
ATOM     10  C   UNL     1      -2.380  -0.116   0.025  0.00  0.00    +0.124 A 
ATOM     11  C   UNL     1      -1.154  -0.755   0.009  0.00  0.00    +0.054 A 
ATOM     12  C   UNL     1       0.002  -0.004   0.002  0.00  0.00    +0.024 A 
ATOM     13  S   UNL     1       1.734  -0.395  -0.017  0.00  0.00    -0.082 S 
ATOM     14  F   UNL     1      -3.523  -0.837   0.032  0.00  0.00    -0.205 F 
ATOM     15 CL   UNL     1       1.365   3.763   0.009  0.00  0.00    -0.082 Cl
ENDBRANCH   2   5
BRANCH   1  16
ATOM     16  C   UNL     1       6.165   1.241  -0.051  0.00  0.00    +0.200 C 
BRANCH  16  18
ATOM     17  N   UNL     1       8.409   0.200  -0.078  0.00  0.00    -0.307 N 
ATOM     18  C   UNL     1       7.071   0.036  -0.066  0.00  0.00    +0.231 C 
ATOM     19  O   UNL     1       6.596  -1.080  -0.067  0.00  0.00    -0.274 OA
ATOM     20  H   UNL     1       8.789   1.092  -0.077  0.00  0.00    +0.149 HD
BRANCH  17  21
ATOM     21  C   UNL     1       9.290  -0.971  -0.093  0.00  0.00    +0.178 C 
BRANCH  21  24
ATOM     22  C   UNL     1      12.759   0.116   0.511  0.00  0.00    +0.041 A 
ATOM     23  C   UNL     1      11.488  -0.288   0.981  0.00  0.00    +0.046 A 
ATOM     24  C   UNL     1      10.727  -0.518  -0.104  0.00  0.00    +0.122 A 
ATOM     25  O   UNL     1      11.467  -0.282  -1.200  0.00  0.00    -0.466 OA
ATOM     26  C   UNL     1      12.698   0.108  -0.833  0.00  0.00    +0.195 A 
ENDBRANCH  21  24
ENDBRANCH  17  21
ENDBRANCH  16  18
ENDBRANCH   1  16
TORSDOF 5
