REMARK  Name = ZINC09182497
REMARK  10 active torsions:
REMARK  status: ('A' for Active; 'I' for Inactive)
REMARK    1  A    between atoms: C_1  and  C_2
REMARK    2  A    between atoms: C_5  and  C_37
REMARK    3  A    between atoms: N_8  and  S_10
REMARK    4  A    between atoms: S_10  and  C_13
REMARK    5  A    between atoms: C_16  and  C_19
REMARK    6  A    between atoms: C_19  and  O_21
REMARK    7  A    between atoms: O_21  and  C_22
REMARK    8  A    between atoms: C_22  and  C_24
REMARK    9  A    between atoms: C_22  and  C_25
REMARK   10  A    between atoms: N_27  and  C_28
REMARK                            x       y       z     vdW  Elec       q    Type
REMARK                         _______ _______ _______ _____ _____    ______ ____
ROOT
ATOM      1  C   UNL     1      -7.626   1.473   0.095  0.00  0.00    +0.340 C 
ATOM      2  O   UNL     1      -8.130   1.140   1.149  0.00  0.00    -0.245 OA
ENDROOT
BRANCH   1   6
ATOM      3  C   UNL     1      -4.016   3.709   0.080  0.00  0.00    +0.106 A 
ATOM      4  C   UNL     1      -4.619   3.366  -1.117  0.00  0.00    +0.029 A 
ATOM      5  C   UNL     1      -5.788   2.635  -1.120  0.00  0.00    +0.017 A 
ATOM      6  C   UNL     1      -6.371   2.251   0.090  0.00  0.00    +0.059 A 
ATOM      7  C   UNL     1      -5.760   2.605   1.295  0.00  0.00    +0.017 A 
ATOM      8  C   UNL     1      -4.588   3.332   1.283  0.00  0.00    +0.029 A 
BRANCH   3   9
ATOM      9  S   UNL     1      -2.518   4.637   0.074  0.00  0.00    +0.061 S 
ATOM     10  O   UNL     1      -2.448   5.303   1.327  0.00  0.00    -0.153 OA
ATOM     11  O   UNL     1      -2.477   5.334  -1.163  0.00  0.00    -0.153 OA
BRANCH   9  17
ATOM     12  C   UNL     1      -2.185   1.048  -1.207  0.00  0.00    +0.009 C 
ATOM     13  C   UNL     1      -0.737   1.542  -1.235  0.00  0.00    +0.002 C 
ATOM     14  C   UNL     1       0.003   1.024   0.000  0.00  0.00    +0.009 C 
ATOM     15  C   UNL     1      -0.708   1.512   1.265  0.00  0.00    +0.002 C 
ATOM     16  C   UNL     1      -0.689   3.043   1.298  0.00  0.00    +0.112 C 
ATOM     17  N   UNL     1      -1.269   3.550   0.046  0.00  0.00    -0.176 NA
ATOM     18  C   UNL     1      -0.719   3.074  -1.230  0.00  0.00    +0.112 C 
ATOM     19  C   UNL     1       0.013   0.966   2.499  0.00  0.00    +0.009 C 
ENDBRANCH   9  17
ENDBRANCH   3   9
ENDBRANCH   1   6
BRANCH   1  20
ATOM     20  O   UNL     1      -8.213   1.133  -1.069  0.00  0.00    -0.449 OA
BRANCH  20  21
ATOM     21  C   UNL     1      -9.444   0.368  -0.988  0.00  0.00    +0.259 C 
ATOM     22  C   UNL     1     -10.636   1.325  -0.935  0.00  0.00    +0.062 C 
BRANCH  21  23
ATOM     23  C   UNL     1      -9.565  -0.519  -2.200  0.00  0.00    +0.258 C 
ATOM     24  O   UNL     1      -8.699  -0.508  -3.049  0.00  0.00    -0.271 OA
ATOM     25  N   UNL     1     -10.636  -1.325  -2.341  0.00  0.00    -0.280 N 
ATOM     26  H   UNL     1     -11.297  -1.383  -1.633  0.00  0.00    +0.155 HD
BRANCH  25  27
ATOM     27  C   UNL     1     -10.796  -2.080  -3.511  0.00  0.00    +0.072 A 
ATOM     28  C   UNL     1      -9.684  -2.593  -4.165  0.00  0.00    +0.029 A 
ATOM     29  C   UNL     1      -9.842  -3.337  -5.318  0.00  0.00    +0.043 A 
ATOM     30  C   UNL     1     -11.109  -3.573  -5.824  0.00  0.00    +0.161 A 
ATOM     31  C   UNL     1     -12.223  -3.063  -5.174  0.00  0.00    +0.195 A 
ATOM     32  C   UNL     1     -12.069  -2.321  -4.016  0.00  0.00    +0.182 A 
ATOM     33  F   UNL     1     -13.153  -1.827  -3.379  0.00  0.00    -0.200 F 
ATOM     34  F   UNL     1     -13.458  -3.294  -5.670  0.00  0.00    -0.199 F 
ATOM     35  F   UNL     1     -11.260  -4.301  -6.952  0.00  0.00    -0.202 F 
ENDBRANCH  25  27
ENDBRANCH  21  23
ENDBRANCH  20  21
ENDBRANCH   1  20
TORSDOF 7
