REMARK  Name = ZINC22680819
REMARK  11 active torsions:
REMARK  status: ('A' for Active; 'I' for Inactive)
REMARK    1  A    between atoms: C_1  and  C_2
REMARK    2  A    between atoms: N_5  and  C_8
REMARK    3  A    between atoms: C_8  and  C_10
REMARK    4  A    between atoms: C_8  and  C_27
REMARK    5  A    between atoms: C_10  and  N_11
REMARK    6  A    between atoms: C_12  and  C_14
REMARK    7  A    between atoms: C_14  and  C_16
REMARK    8  A    between atoms: C_14  and  N_19
REMARK    9  A    between atoms: C_16  and  C_17
REMARK   10  A    between atoms: C_16  and  C_18
REMARK   11  A    between atoms: C_20  and  C_22
REMARK                            x       y       z     vdW  Elec       q    Type
REMARK                         _______ _______ _______ _____ _____    ______ ____
ROOT
ATOM      1  N   UNL     1      -1.298   2.790  -3.613  0.00  0.00    -0.315 N 
ATOM      2  C   UNL     1      -2.105   3.314  -4.557  0.00  0.00    +0.234 C 
ATOM      3  O   UNL     1      -2.759   2.583  -5.270  0.00  0.00    -0.274 OA
ATOM      4  H   UNL     1      -0.705   3.453  -2.966  0.00  0.00    +0.149 HD
ENDROOT
BRANCH   1   5
ATOM      5  C   UNL     1      -1.211   1.337  -3.449  0.00  0.00    +0.094 C 
BRANCH   5   6
ATOM      6  C   UNL     1      -0.145   1.005  -2.402  0.00  0.00    -0.013 C 
BRANCH   6  11
ATOM      7  C   UNL     1      -1.349   2.948   2.837  0.00  0.00    +0.007 C 
ATOM      8  C   UNL     1      -1.060   2.031   1.646  0.00  0.00    -0.018 C 
ATOM      9  C   UNL     1      -2.107   2.265   0.554  0.00  0.00    -0.015 C 
ATOM     10  C   UNL     1      -1.779   1.390  -0.657  0.00  0.00    -0.078 C 
ATOM     11  N   UNL     1      -0.440   1.727  -1.157  0.00  0.00    +0.386 N 
ATOM     12  C   UNL     1       0.588   1.465  -0.141  0.00  0.00    -0.078 C 
ATOM     13  C   UNL     1       0.330   2.343   1.085  0.00  0.00    -0.015 C 
ATOM     14  H   UNL     1      -0.426   2.805  -1.378  0.00  0.00    -0.081 HD
ENDBRANCH   6  11
BRANCH   6  15
ATOM     15  C   UNL     1      -0.148  -0.478  -2.135  0.00  0.00    -0.022 A 
ATOM     16  C   UNL     1       0.826  -1.390  -2.375  0.00  0.00    +0.009 A 
ATOM     17  C   UNL     1       0.601  -2.713  -2.044  0.00  0.00    +0.008 A 
ATOM     18  C   UNL     1      -0.587  -3.059  -1.490  0.00  0.00    +0.045 A 
ATOM     19  S   UNL     1      -1.431  -1.488  -1.415  0.00  0.00    -0.103 S 
ENDBRANCH   6  15
ENDBRANCH   5   6
ENDBRANCH   1   5
BRANCH   2  20
ATOM     20  C   UNL     1      -2.194   4.809  -4.726  0.00  0.00    +0.162 C 
BRANCH  20  21
ATOM     21  N   UNL     1      -3.130   5.123  -5.809  0.00  0.00    -0.297 N 
ATOM     22  C   UNL     1      -3.760   6.314  -5.831  0.00  0.00    +0.280 C 
ATOM     23  O   UNL     1      -3.550   7.130  -4.953  0.00  0.00    -0.267 OA
ATOM     24  H   UNL     1      -3.320   4.386  -6.603  0.00  0.00    +0.150 HD
BRANCH  22  25
ATOM     25  C   UNL     1      -4.697   6.628  -6.915  0.00  0.00    +0.189 A 
ATOM     26  C   UNL     1      -5.397   7.792  -7.058  0.00  0.00    +0.054 A 
ATOM     27  C   UNL     1      -6.165   7.660  -8.226  0.00  0.00    +0.042 A 
ATOM     28  C   UNL     1      -5.902   6.437  -8.738  0.00  0.00    +0.196 A 
ATOM     29  O   UNL     1      -5.013   5.821  -7.948  0.00  0.00    -0.458 OA
ENDBRANCH  22  25
ENDBRANCH  20  21
BRANCH  20  30
ATOM     30  C   UNL     1      -0.812   5.367  -5.070  0.00  0.00    +0.012 C 
ATOM     31  C   UNL     1      -0.370   4.831  -6.433  0.00  0.00    +0.009 C 
ATOM     32  C   UNL     1      -0.876   6.895  -5.119  0.00  0.00    +0.009 C 
ENDBRANCH  20  30
ENDBRANCH   2  20
TORSDOF 8
