REMARK  Name = ZINC18744348
REMARK  12 active torsions:
REMARK  status: ('A' for Active; 'I' for Inactive)
REMARK    1  A    between atoms: C_1  and  C_2
REMARK    2  A    between atoms: C_4  and  C_34
REMARK    3  A    between atoms: C_6  and  O_8
REMARK    4  A    between atoms: O_8  and  C_9
REMARK    5  A    between atoms: C_9  and  C_10
REMARK    6  A    between atoms: C_13  and  S_16
REMARK    7  A    between atoms: N_14  and  N_15
REMARK    8  A    between atoms: S_16  and  C_17
REMARK    9  A    between atoms: C_17  and  C_18
REMARK   10  A    between atoms: N_20  and  C_21
REMARK   11  A    between atoms: C_21  and  C_22
REMARK   12  A    between atoms: C_25  and  C_27
REMARK                            x       y       z     vdW  Elec       q    Type
REMARK                         _______ _______ _______ _____ _____    ______ ____
ROOT
ATOM      1  S   UNL     1       3.822   2.115  -0.023  0.00  0.00    -0.075 S 
ENDROOT
BRANCH   1   5
ATOM      2  C   UNL     1       7.211   0.185  -0.065  0.00  0.00    +0.189 A 
ATOM      3  N   UNL     1       6.337  -0.781  -0.061  0.00  0.00    -0.128 NA
ATOM      4  N   UNL     1       5.146  -0.299  -0.043  0.00  0.00    -0.121 NA
ATOM      5  C   UNL     1       5.197   1.013  -0.042  0.00  0.00    +0.209 A 
ATOM      6  N   UNL     1       6.517   1.363  -0.053  0.00  0.00    -0.225 N 
BRANCH   6   7
ATOM      7  N   UNL     1       7.035   2.626  -0.052  0.00  0.00    -0.295 N 
ATOM      8  H   UNL     1       7.181   2.956   0.890  0.00  0.00    +0.163 HD
ATOM      9  H   UNL     1       7.891   2.666  -0.585  0.00  0.00    +0.163 HD
ENDBRANCH   6   7
BRANCH   2  10
ATOM     10  C   UNL     1       8.711   0.032  -0.080  0.00  0.00    +0.306 C 
BRANCH  10  11
ATOM     11  O   UNL     1       9.197  -0.022   1.263  0.00  0.00    -0.484 OA
BRANCH  11  17
ATOM     12  C   UNL     1      13.638  -0.465  -0.713  0.00  0.00    +0.044 C 
ATOM     13  C   UNL     1      12.735  -0.378   0.490  0.00  0.00    -0.047 A 
ATOM     14  C   UNL     1      13.271  -0.438   1.763  0.00  0.00    +0.007 A 
ATOM     15  C   UNL     1      12.444  -0.358   2.869  0.00  0.00    -0.047 A 
ATOM     16  C   UNL     1      11.080  -0.219   2.704  0.00  0.00    +0.049 A 
ATOM     17  C   UNL     1      10.539  -0.159   1.428  0.00  0.00    +0.122 A 
ATOM     18  C   UNL     1      11.370  -0.245   0.320  0.00  0.00    +0.049 A 
ATOM     19  C   UNL     1      13.033  -0.423   4.255  0.00  0.00    +0.044 C 
ENDBRANCH  11  17
ENDBRANCH  10  11
ENDBRANCH   2  10
ENDBRANCH   1   5
BRANCH   1  20
ATOM     20  C   UNL     1       2.462   0.920  -0.017  0.00  0.00    +0.173 C 
BRANCH  20  21
ATOM     21  C   UNL     1       1.147   1.655   0.000  0.00  0.00    +0.224 C 
ATOM     22  O   UNL     1       1.130   2.868   0.007  0.00  0.00    -0.275 OA
ATOM     23  N   UNL     1      -0.011   0.966   0.007  0.00  0.00    -0.308 N 
ATOM     24  H   UNL     1       0.002  -0.004   0.002  0.00  0.00    +0.149 HD
BRANCH  23  25
ATOM     25  C   UNL     1      -1.290   1.681   0.017  0.00  0.00    +0.178 C 
BRANCH  25  26
ATOM     26  C   UNL     1      -2.422   0.686   0.017  0.00  0.00    +0.123 A 
ATOM     27  C   UNL     1      -3.006   0.162   1.112  0.00  0.00    +0.047 A 
ATOM     28  C   UNL     1      -4.012  -0.717   0.661  0.00  0.00    +0.050 A 
ATOM     29  C   UNL     1      -3.985  -0.680  -0.697  0.00  0.00    +0.135 A 
ATOM     30  O   UNL     1      -3.019   0.180  -1.074  0.00  0.00    -0.458 OA
BRANCH  29  31
ATOM     31  C   UNL     1      -4.866  -1.446  -1.603  0.00  0.00    +0.017 A 
ATOM     32  C   UNL     1      -5.832  -2.307  -1.080  0.00  0.00    +0.013 A 
ATOM     33  C   UNL     1      -6.654  -3.015  -1.931  0.00  0.00    +0.021 A 
ATOM     34  C   UNL     1      -6.517  -2.881  -3.302  0.00  0.00    +0.041 A 
ATOM     35  C   UNL     1      -5.558  -2.032  -3.828  0.00  0.00    +0.021 A 
ATOM     36  C   UNL     1      -4.732  -1.315  -2.987  0.00  0.00    +0.013 A 
ATOM     37 CL   UNL     1      -7.551  -3.781  -4.367  0.00  0.00    -0.084 Cl
ENDBRANCH  29  31
ENDBRANCH  25  26
ENDBRANCH  23  25
ENDBRANCH  20  21
ENDBRANCH   1  20
TORSDOF 10
