REMARK  Name = ZINC12736385
REMARK  5 active torsions:
REMARK  status: ('A' for Active; 'I' for Inactive)
REMARK    1  A    between atoms: C_1  and  C_2
REMARK    2  A    between atoms: C_3  and  N_9
REMARK    3  A    between atoms: C_10  and  C_12
REMARK    4  A    between atoms: C_12  and  N_13
REMARK    5  A    between atoms: C_14  and  C_16
REMARK                            x       y       z     vdW  Elec       q    Type
REMARK                         _______ _______ _______ _____ _____    ______ ____
ROOT
ATOM      1  N   UNL     1      -4.136   0.155   1.706  0.00  0.00    -0.306 N 
ATOM      2  C   UNL     1      -2.995   0.826   1.452  0.00  0.00    +0.221 C 
ATOM      3  O   UNL     1      -2.344   1.284   2.367  0.00  0.00    -0.275 OA
ATOM      4  H   UNL     1      -4.656  -0.211   0.974  0.00  0.00    +0.149 HD
ENDROOT
BRANCH   2   5
ATOM      5  C   UNL     1      -2.527   1.007   0.030  0.00  0.00    +0.115 C 
ATOM      6  C   UNL     1      -3.589   1.770  -0.762  0.00  0.00    +0.113 C 
ATOM      7  C   UNL     1      -3.623   3.208  -0.321  0.00  0.00    +0.218 C 
ATOM      8  O   UNL     1      -4.680   3.802  -0.289  0.00  0.00    -0.275 OA
ATOM      9  N   UNL     1      -2.493   3.844   0.039  0.00  0.00    -0.285 N 
ATOM     10  C   UNL     1      -1.266   3.172   0.026  0.00  0.00    +0.037 A 
ATOM     11  C   UNL     1      -1.237   1.784   0.016  0.00  0.00    -0.014 A 
ATOM     12  C   UNL     1      -0.027   1.120   0.009  0.00  0.00    +0.006 A 
ATOM     13  C   UNL     1       1.156   1.837   0.001  0.00  0.00    +0.000 A 
ATOM     14  C   UNL     1       1.130   3.219   0.006  0.00  0.00    +0.002 A 
ATOM     15  C   UNL     1      -0.078   3.889   0.018  0.00  0.00    +0.023 A 
ATOM     16  H   UNL     1      -2.529   4.775   0.309  0.00  0.00    +0.155 HD
ENDBRANCH   2   5
BRANCH   1  17
ATOM     17  C   UNL     1      -4.590  -0.020   3.088  0.00  0.00    +0.200 C 
BRANCH  17  19
ATOM     18  N   UNL     1      -6.488  -1.082   4.267  0.00  0.00    -0.284 N 
ATOM     19  C   UNL     1      -5.880  -0.799   3.097  0.00  0.00    +0.234 C 
ATOM     20  O   UNL     1      -6.372  -1.171   2.053  0.00  0.00    -0.274 OA
ATOM     21  H   UNL     1      -6.056  -0.856   5.105  0.00  0.00    +0.155 HD
BRANCH  18  24
ATOM     22  C   UNL     1      -7.227  -2.602   6.556  0.00  0.00    +0.047 C 
ATOM     23  C   UNL     1      -8.142  -2.454   5.368  0.00  0.00    -0.011 A 
ATOM     24  C   UNL     1      -7.742  -1.703   4.271  0.00  0.00    +0.038 A 
ATOM     25  C   UNL     1      -8.586  -1.573   3.176  0.00  0.00    +0.023 A 
ATOM     26  C   UNL     1      -9.823  -2.187   3.183  0.00  0.00    +0.003 A 
ATOM     27  C   UNL     1     -10.222  -2.931   4.278  0.00  0.00    +0.020 A 
ATOM     28  C   UNL     1      -9.383  -3.062   5.372  0.00  0.00    +0.046 A 
ATOM     29 CL   UNL     1      -9.889  -3.996   6.745  0.00  0.00    -0.083 Cl
ENDBRANCH  18  24
ENDBRANCH  17  19
ENDBRANCH   1  17
TORSDOF 4
