REMARK  Name = ZINC35248195
REMARK  3 active torsions:
REMARK  status: ('A' for Active; 'I' for Inactive)
REMARK    1  A    between atoms: C_3  and  C_8
REMARK    2  A    between atoms: N_10  and  C_11
REMARK    3  A    between atoms: C_12  and  C_20
REMARK                            x       y       z     vdW  Elec       q    Type
REMARK                         _______ _______ _______ _____ _____    ______ ____
ROOT
ATOM      1  C   UNL     1      -6.079   1.924  -0.164  0.00  0.00    +0.090 A 
ATOM      2  C   UNL     1      -7.340   1.357  -0.267  0.00  0.00    +0.083 A 
ATOM      3  C   UNL     1      -8.467   2.264  -0.354  0.00  0.00    -0.022 A 
ATOM      4  C   UNL     1      -8.130   3.574  -0.322  0.00  0.00    -0.021 A 
ATOM      5  S   UNL     1      -6.370   3.578  -0.172  0.00  0.00    -0.079 S 
ATOM      6  C   UNL     1      -9.076   4.730  -0.398  0.00  0.00    -0.039 C 
ATOM      7  N   UNL     1     -10.375   4.235  -0.891  0.00  0.00    +0.382 N 
ATOM      8  C   UNL     1     -10.789   3.066  -0.104  0.00  0.00    -0.077 C 
ATOM      9  C   UNL     1      -9.928   1.852  -0.468  0.00  0.00    +0.018 C 
ATOM     10  H   UNL     1     -11.068   4.963  -0.802  0.00  0.00    -0.085 HD
ATOM     11  H   UNL     1     -10.287   3.972  -1.862  0.00  0.00    -0.085 HD
ENDROOT
BRANCH   1  14
ATOM     12  C   UNL     1      -3.719   1.989   0.031  0.00  0.00    +0.254 C 
ATOM     13  O   UNL     1      -3.769   3.200   0.135  0.00  0.00    -0.270 OA
ATOM     14  N   UNL     1      -4.857   1.274  -0.069  0.00  0.00    -0.275 N 
ATOM     15  H   UNL     1      -4.822   0.305  -0.075  0.00  0.00    +0.156 HD
BRANCH  12  18
ATOM     16  C   UNL     1      -0.016   1.355  -0.017  0.00  0.00    +0.018 A 
ATOM     17  C   UNL     1      -1.232   2.038  -0.002  0.00  0.00    +0.020 A 
ATOM     18  C   UNL     1      -2.418   1.306   0.015  0.00  0.00    +0.101 A 
ATOM     19  C   UNL     1      -2.346  -0.112   0.018  0.00  0.00    +0.261 A 
ATOM     20  N   UNL     1      -1.145  -0.721   0.004  0.00  0.00    -0.328 N 
ATOM     21  C   UNL     1       0.003  -0.003  -0.013  0.00  0.00    +0.086 A 
ATOM     22  O   UNL     1      -3.368  -0.775   0.034  0.00  0.00    -0.267 OA
ATOM     23  H   UNL     1      -1.102  -1.690   0.006  0.00  0.00    +0.168 HD
ENDBRANCH  12  18
ENDBRANCH   1  14
BRANCH   2  24
ATOM     24  C   UNL     1      -7.521  -0.064  -0.289  0.00  0.00    +0.102 C 
ATOM     25  N   UNL     1      -7.664  -1.190  -0.305  0.00  0.00    -0.191 NA
ENDBRANCH   2  24
TORSDOF 3
