REMARK  Name = ZINC12744262
REMARK  11 active torsions:
REMARK  status: ('A' for Active; 'I' for Inactive)
REMARK    1  A    between atoms: C_1  and  C_2
REMARK    2  A    between atoms: C_2  and  C_4
REMARK    3  A    between atoms: C_2  and  N_73
REMARK    4  A    between atoms: C_7  and  S_15
REMARK    5  A    between atoms: N_8  and  C_9
REMARK    6  A    between atoms: S_15  and  C_16
REMARK    7  A    between atoms: C_16  and  C_17
REMARK    8  A    between atoms: N_19  and  C_20
REMARK    9  A    between atoms: C_27  and  C_31
REMARK   10  A    between atoms: C_28  and  C_29
REMARK   11  A    between atoms: C_28  and  C_30
REMARK                            x       y       z     vdW  Elec       q    Type
REMARK                         _______ _______ _______ _____ _____    ______ ____
ROOT
ATOM      1  C   UNL     1       0.593  -3.442   1.703  0.00  0.00    +0.125 A 
ATOM      2  N   UNL     1       0.651  -4.614   1.135  0.00  0.00    -0.135 NA
ATOM      3  N   UNL     1       0.134  -4.562  -0.040  0.00  0.00    -0.122 NA
ATOM      4  C   UNL     1      -0.293  -3.345  -0.288  0.00  0.00    +0.197 A 
ATOM      5  N   UNL     1      -0.016  -2.591   0.820  0.00  0.00    -0.275 N 
ENDROOT
BRANCH   5   6
ATOM      6  C   UNL     1      -0.293  -1.230   1.009  0.00  0.00    +0.050 A 
ATOM      7  C   UNL     1      -1.609  -0.788   1.057  0.00  0.00    +0.026 A 
ATOM      8  C   UNL     1      -1.879   0.554   1.244  0.00  0.00    +0.002 A 
ATOM      9  C   UNL     1      -0.841   1.457   1.383  0.00  0.00    +0.000 A 
ATOM     10  C   UNL     1       0.470   1.019   1.336  0.00  0.00    +0.002 A 
ATOM     11  C   UNL     1       0.747  -0.321   1.150  0.00  0.00    +0.026 A 
ENDBRANCH   5   6
BRANCH   1  13
ATOM     12  C   UNL     1       0.170  -3.693   4.134  0.00  0.00    -0.005 C 
ATOM     13  C   UNL     1       1.100  -3.090   3.078  0.00  0.00    -0.002 C 
BRANCH  13  19
ATOM     14  C   UNL     1       2.993  -3.280   4.575  0.00  0.00    -0.078 C 
ATOM     15  C   UNL     1       4.340  -3.977   4.779  0.00  0.00    -0.019 C 
ATOM     16  C   UNL     1       5.310  -3.536   3.679  0.00  0.00    -0.004 C 
ATOM     17  C   UNL     1       4.704  -3.868   2.312  0.00  0.00    -0.019 C 
ATOM     18  C   UNL     1       3.346  -3.174   2.180  0.00  0.00    -0.078 C 
ATOM     19  N   UNL     1       2.452  -3.659   3.252  0.00  0.00    +0.386 N 
ATOM     20  H   UNL     1       2.393  -4.683   3.198  0.00  0.00    -0.081 HD
ENDBRANCH  13  19
ENDBRANCH   1  13
BRANCH   4  21
ATOM     21  S   UNL     1      -1.073  -2.789  -1.766  0.00  0.00    -0.076 S 
BRANCH  21  22
ATOM     22  C   UNL     1      -1.076  -4.328  -2.718  0.00  0.00    +0.173 C 
BRANCH  22  23
ATOM     23  C   UNL     1      -1.715  -4.086  -4.061  0.00  0.00    +0.224 C 
ATOM     24  O   UNL     1      -2.128  -2.982  -4.347  0.00  0.00    -0.275 OA
ATOM     25  N   UNL     1      -1.829  -5.097  -4.946  0.00  0.00    -0.311 N 
ATOM     26  H   UNL     1      -1.499  -5.981  -4.717  0.00  0.00    +0.149 HD
BRANCH  25  27
ATOM     27  C   UNL     1      -2.450  -4.863  -6.251  0.00  0.00    +0.080 C 
ATOM     28  C   UNL     1      -1.465  -4.135  -7.194  0.00  0.00    +0.027 C 
ATOM     29  C   UNL     1      -1.260  -5.118  -8.386  0.00  0.00    -0.003 C 
ATOM     30  C   UNL     1      -2.621  -5.098  -9.147  0.00  0.00    +0.005 C 
ATOM     31  C   UNL     1      -3.609  -5.825  -8.203  0.00  0.00    +0.009 C 
ATOM     32  C   UNL     1      -2.751  -6.218  -6.962  0.00  0.00    -0.008 C 
ATOM     33  C   UNL     1      -1.363  -6.498  -7.645  0.00  0.00    -0.025 C 
ATOM     34  C   UNL     1      -1.432  -7.671  -8.624  0.00  0.00    +0.012 C 
ATOM     35  C   UNL     1      -0.243  -6.683  -6.619  0.00  0.00    +0.012 C 
ATOM     36  C   UNL     1      -3.306  -7.331  -6.071  0.00  0.00    +0.013 C 
ENDBRANCH  25  27
ENDBRANCH  22  23
ENDBRANCH  21  22
ENDBRANCH   4  21
TORSDOF 7
