REMARK  Name = ZINC04521884
REMARK  8 active torsions:
REMARK  status: ('A' for Active; 'I' for Inactive)
REMARK    1  A    between atoms: C_4  and  C_29
REMARK    2  A    between atoms: C_11  and  O_12
REMARK    3  A    between atoms: O_12  and  C_13
REMARK    4  A    between atoms: C_15  and  O_28
REMARK    5  A    between atoms: C_17  and  O_27
REMARK    6  A    between atoms: C_19  and  O_26
REMARK    7  A    between atoms: C_21  and  C_24
REMARK    8  A    between atoms: C_24  and  O_25
REMARK                            x       y       z     vdW  Elec       q    Type
REMARK                         _______ _______ _______ _____ _____    ______ ____
ROOT
ATOM      1  O   UNL     1       2.246  -0.296   1.212  0.00  0.00    -0.461 OA
ENDROOT
BRANCH   1  12
ATOM      2  C   UNL     1       3.028  -0.093   3.449  0.00  0.00    +0.046 A 
ATOM      3  C   UNL     1       3.511  -0.665   4.591  0.00  0.00    +0.016 A 
ATOM      4  C   UNL     1       3.719  -2.048   4.641  0.00  0.00    +0.029 A 
ATOM      5  C   UNL     1       4.242  -2.688   5.850  0.00  0.00    +0.072 A 
ATOM      6  C   UNL     1       4.421  -4.035   5.837  0.00  0.00    +0.105 A 
ATOM      7  C   UNL     1       4.106  -4.773   4.678  0.00  0.00    +0.338 A 
ATOM      8  O   UNL     1       4.271  -5.980   4.680  0.00  0.00    -0.245 OA
ATOM      9  O   UNL     1       3.627  -4.180   3.573  0.00  0.00    -0.422 OA
ATOM     10  C   UNL     1       3.425  -2.846   3.520  0.00  0.00    +0.143 A 
ATOM     11  C   UNL     1       2.930  -2.250   2.370  0.00  0.00    +0.092 A 
ATOM     12  C   UNL     1       2.730  -0.879   2.338  0.00  0.00    +0.128 A 
BRANCH   5  13
ATOM     13  C   UNL     1       4.571  -1.875   7.076  0.00  0.00    +0.418 C 
ATOM     14  F   UNL     1       5.049  -2.721   8.082  0.00  0.00    -0.166 F 
ATOM     15  F   UNL     1       5.551  -0.929   6.758  0.00  0.00    -0.166 F 
ATOM     16  F   UNL     1       3.419  -1.221   7.525  0.00  0.00    -0.166 F 
ENDBRANCH   5  13
ENDBRANCH   1  12
BRANCH   1  17
ATOM     17  C   UNL     1       2.062   1.121   1.242  0.00  0.00    +0.339 C 
ATOM     18  C   UNL     1       1.286   1.562  -0.002  0.00  0.00    +0.214 C 
ATOM     19  C   UNL     1       1.146   3.087   0.008  0.00  0.00    +0.180 C 
ATOM     20  C   UNL     1       2.541   3.717   0.076  0.00  0.00    +0.177 C 
ATOM     21  C   UNL     1       3.268   3.192   1.317  0.00  0.00    +0.179 C 
ATOM     22  O   UNL     1       3.337   1.766   1.260  0.00  0.00    -0.331 OA
BRANCH  20  23
ATOM     23  O   UNL     1       3.280   3.368  -1.095  0.00  0.00    -0.386 OA
ATOM     24  H   UNL     1       2.874   3.666  -1.921  0.00  0.00    +0.210 HD
ENDBRANCH  20  23
BRANCH  19  25
ATOM     25  O   UNL     1       0.487   3.514  -1.186  0.00  0.00    -0.386 OA
ATOM     26  H   UNL     1      -0.401   3.147  -1.298  0.00  0.00    +0.210 HD
ENDBRANCH  19  25
BRANCH  18  27
ATOM     27  O   UNL     1      -0.011   0.963   0.007  0.00  0.00    -0.383 OA
ATOM     28  H   UNL     1       0.002  -0.004   0.002  0.00  0.00    +0.210 HD
ENDBRANCH  18  27
BRANCH  21  29
ATOM     29  C   UNL     1       4.684   3.770   1.361  0.00  0.00    +0.190 C 
BRANCH  29  30
ATOM     30  O   UNL     1       5.323   3.375   2.576  0.00  0.00    -0.392 OA
ATOM     31  H   UNL     1       6.226   3.706   2.672  0.00  0.00    +0.210 HD
ENDBRANCH  29  30
ENDBRANCH  21  29
ENDBRANCH   1  17
TORSDOF 8
