REMARK  Name = ZINC67452734
REMARK  6 active torsions:
REMARK  status: ('A' for Active; 'I' for Inactive)
REMARK    1  A    between atoms: C_1  and  C_2
REMARK    2  A    between atoms: C_2  and  N_3
REMARK    3  A    between atoms: C_5  and  N_8
REMARK    4  A    between atoms: C_12  and  N_16
REMARK    5  A    between atoms: C_24  and  C_29
REMARK    6  A    between atoms: C_26  and  C_28
REMARK                            x       y       z     vdW  Elec       q    Type
REMARK                         _______ _______ _______ _____ _____    ______ ____
ROOT
ATOM      1  N   UNL     1       4.281  -4.522  -5.408  0.00  0.00    -0.288 NA
ATOM      2  C   UNL     1       2.958  -4.905  -4.899  0.00  0.00    +0.104 C 
ATOM      3  C   UNL     1       2.582  -6.285  -5.450  0.00  0.00    +0.122 C 
ATOM      4  N   UNL     1       2.698  -6.250  -6.916  0.00  0.00    -0.313 N 
ATOM      5  C   UNL     1       3.949  -5.746  -7.503  0.00  0.00    +0.122 C 
ATOM      6  C   UNL     1       4.271  -4.388  -6.871  0.00  0.00    +0.104 C 
ATOM      7  C   UNL     1       1.657  -6.680  -7.722  0.00  0.00    +0.125 A 
ATOM      8  C   UNL     1       0.563  -7.350  -7.171  0.00  0.00    +0.064 A 
ATOM      9  C   UNL     1      -0.449  -7.759  -8.017  0.00  0.00    +0.017 A 
ATOM     10  N   UNL     1      -0.350  -7.505  -9.314  0.00  0.00    -0.347 N 
ATOM     11  C   UNL     1       0.696  -6.871  -9.804  0.00  0.00    +0.106 A 
ATOM     12  N   UNL     1       1.682  -6.458  -9.033  0.00  0.00    -0.220 NA
ATOM     13  C   UNL     1       0.764  -6.607 -11.286  0.00  0.00    +0.086 C 
ATOM     14  C   UNL     1      -1.652  -8.485  -7.471  0.00  0.00    +0.063 C 
ATOM     15  H   UNL     1      -1.059  -7.790  -9.912  0.00  0.00    +0.167 HD
ENDROOT
BRANCH   1  20
ATOM     16  N   UNL     1       3.353  -1.891  -3.542  0.00  0.00    -0.206 N 
ATOM     17  C   UNL     1       4.034  -2.554  -2.599  0.00  0.00    +0.228 C 
ATOM     18  O   UNL     1       3.900  -2.409  -1.403  0.00  0.00    -0.275 OA
ATOM     19  C   UNL     1       4.998  -3.513  -3.264  0.00  0.00    +0.125 C 
ATOM     20  C   UNL     1       4.753  -3.286  -4.769  0.00  0.00    +0.153 C 
ATOM     21  C   UNL     1       3.673  -2.227  -4.798  0.00  0.00    +0.244 C 
ATOM     22  O   UNL     1       3.177  -1.756  -5.799  0.00  0.00    -0.273 OA
BRANCH  16  25
ATOM     23  N   UNL     1       1.041   0.413  -2.134  0.00  0.00    -0.270 N 
ATOM     24  C   UNL     1       1.999  -0.530  -1.994  0.00  0.00    +0.132 A 
ATOM     25  C   UNL     1       2.376  -0.923  -3.237  0.00  0.00    +0.081 A 
ATOM     26  C   UNL     1       1.619  -0.192  -4.165  0.00  0.00    +0.158 A 
ATOM     27  N   UNL     1       0.817   0.603  -3.503  0.00  0.00    -0.178 NA
BRANCH  23  29
ATOM     28  C   UNL     1       0.493   2.620  -1.235  0.00  0.00    +0.029 C 
ATOM     29  C   UNL     1       0.352   1.109  -1.044  0.00  0.00    +0.140 C 
ENDBRANCH  23  29
ENDBRANCH  16  25
ENDBRANCH   1  20
TORSDOF 3
