REMARK  Name = ZINC36304584
REMARK  2 active torsions:
REMARK  status: ('A' for Active; 'I' for Inactive)
REMARK    1  A    between atoms: C_5  and  N_8
REMARK    2  A    between atoms: N_8  and  C_9
REMARK                            x       y       z     vdW  Elec       q    Type
REMARK                         _______ _______ _______ _____ _____    ______ ____
ROOT
ATOM      1  C   UNL     1       1.991  -1.548  -3.582  0.00  0.00    +0.032 A 
ATOM      2  C   UNL     1       1.311  -0.367  -3.820  0.00  0.00    +0.020 A 
ATOM      3  C   UNL     1       0.607   0.247  -2.799  0.00  0.00    +0.032 A 
ATOM      4  C   UNL     1       0.581  -0.318  -1.538  0.00  0.00    +0.041 A 
ATOM      5  C   UNL     1       1.262  -1.504  -1.296  0.00  0.00    +0.056 A 
ATOM      6  C   UNL     1       1.968  -2.119  -2.323  0.00  0.00    +0.041 A 
ATOM      7 BR   UNL     1       2.897  -3.734  -1.999  0.00  0.00    -0.048 Br
ATOM      8 BR   UNL     1      -0.381   0.522  -0.144  0.00  0.00    -0.048 Br
ATOM      9 BR   UNL     1       1.346   0.410  -5.543  0.00  0.00    -0.050 Br
ENDROOT
BRANCH   5  10
ATOM     10  N   UNL     1       1.238  -2.079  -0.022  0.00  0.00    -0.339 N 
ATOM     11  H   UNL     1       2.000  -1.978   0.570  0.00  0.00    +0.146 HD
BRANCH  10  12
ATOM     12  C   UNL     1       0.062  -2.833   0.419  0.00  0.00    +0.075 C 
ATOM     13  C   UNL     1       0.035  -2.891   1.950  0.00  0.00    +0.050 C 
ATOM     14  C   UNL     1      -1.153  -3.746   2.399  0.00  0.00    +0.161 C 
ATOM     15  O   UNL     1      -1.043  -5.050   1.825  0.00  0.00    -0.380 OA
ATOM     16  C   UNL     1      -1.060  -5.062   0.397  0.00  0.00    +0.161 C 
ATOM     17  C   UNL     1       0.131  -4.260  -0.134  0.00  0.00    +0.050 C 
ENDBRANCH  10  12
ENDBRANCH   5  10
TORSDOF 2
