REMARK  Name = ZINC12529427
REMARK  4 active torsions:
REMARK  status: ('A' for Active; 'I' for Inactive)
REMARK    1  A    between atoms: C_1  and  N_2
REMARK    2  A    between atoms: C_10  and  S_11
REMARK    3  A    between atoms: S_11  and  C_12
REMARK    4  A    between atoms: C_12  and  C_13
REMARK                            x       y       z     vdW  Elec       q    Type
REMARK                         _______ _______ _______ _____ _____    ______ ____
ROOT
ATOM      1  C   UNL     1       0.315   5.767   0.034  0.00  0.00    +0.143 A 
ATOM      2  N   UNL     1       0.357   6.417  -1.115  0.00  0.00    -0.216 NA
ATOM      3  C   UNL     1       0.317   7.738  -1.181  0.00  0.00    +0.128 A 
ATOM      4  C   UNL     1       0.227   8.487   0.026  0.00  0.00    +0.051 A 
ATOM      5  C   UNL     1       0.167   9.943   0.194  0.00  0.00    -0.025 A 
ATOM      6  C   UNL     1       0.092  10.404   1.458  0.00  0.00    -0.004 A 
ATOM      7  S   UNL     1       0.079   8.955   2.483  0.00  0.00    -0.073 S 
ATOM      8  C   UNL     1       0.187   7.726   1.210  0.00  0.00    +0.114 A 
ATOM      9  N   UNL     1       0.226   6.408   1.184  0.00  0.00    -0.224 NA
ATOM     10  C   UNL     1       0.035  11.829   1.914  0.00  0.00    +0.043 C 
ATOM     11  C   UNL     1      -1.036  12.577   1.110  0.00  0.00    +0.005 C 
ATOM     12  C   UNL     1      -0.381  13.159  -0.139  0.00  0.00    +0.001 C 
ATOM     13  C   UNL     1       0.738  12.237  -0.619  0.00  0.00    +0.005 C 
ATOM     14  C   UNL     1       0.177  10.876  -1.014  0.00  0.00    +0.037 C 
ATOM     15  N   UNL     1       0.362   8.381  -2.404  0.00  0.00    -0.343 N 
ATOM     16  H   UNL     1      -0.043   9.257  -2.507  0.00  0.00    +0.144 HD
ATOM     17  H   UNL     1       0.799   7.957  -3.159  0.00  0.00    +0.144 HD
ENDROOT
BRANCH   1  18
ATOM     18  C   UNL     1       0.365   4.261   0.032  0.00  0.00    +0.153 C 
BRANCH  18  19
ATOM     19  S   UNL     1       2.088   3.714   0.125  0.00  0.00    -0.080 S 
BRANCH  19  29
ATOM     20  C   UNL     1       4.295   1.320   0.238  0.00  0.00    +0.151 C 
ATOM     21  N   UNL     1       2.859   1.042   0.158  0.00  0.00    -0.322 N 
ATOM     22  C   UNL     1       2.266  -0.209   0.121  0.00  0.00    +0.069 A 
ATOM     23  C   UNL     1       2.755  -1.507   0.144  0.00  0.00    +0.028 A 
ATOM     24  C   UNL     1       1.879  -2.572   0.092  0.00  0.00    +0.002 A 
ATOM     25  C   UNL     1       0.511  -2.354   0.018  0.00  0.00    +0.002 A 
ATOM     26  C   UNL     1       0.008  -1.073  -0.006  0.00  0.00    +0.030 A 
ATOM     27  C   UNL     1       0.881   0.017   0.045  0.00  0.00    +0.090 A 
ATOM     28  N   UNL     1       0.695   1.363   0.040  0.00  0.00    -0.222 NA
ATOM     29  C   UNL     1       1.856   1.968   0.106  0.00  0.00    +0.170 A 
ENDBRANCH  19  29
ENDBRANCH  18  19
ENDBRANCH   1  18
TORSDOF 3
