REMARK  Name = ZINC65182457
REMARK  9 active torsions:
REMARK  status: ('A' for Active; 'I' for Inactive)
REMARK    1  A    between atoms: C_1  and  C_2
REMARK    2  A    between atoms: C_2  and  C_3
REMARK    3  A    between atoms: C_6  and  C_33
REMARK    4  A    between atoms: C_11  and  C_13
REMARK    5  A    between atoms: C_16  and  C_19
REMARK    6  A    between atoms: C_19  and  C_20
REMARK    7  A    between atoms: C_20  and  N_21
REMARK    8  A    between atoms: N_21  and  C_22
REMARK    9  A    between atoms: C_23  and  C_25
REMARK                            x       y       z     vdW  Elec       q    Type
REMARK                         _______ _______ _______ _____ _____    ______ ____
ROOT
ATOM      1  C   UNL     1       1.733  -2.780  -1.119  0.00  0.00    +0.318 C 
ATOM      2  N   UNL     1       2.199  -4.061  -1.673  0.00  0.00    -0.291 N 
ATOM      3  C   UNL     1       3.550  -4.133  -1.428  0.00  0.00    +0.139 C 
ATOM      4  N   UNL     1       3.973  -3.091  -0.811  0.00  0.00    -0.072 NA
ATOM      5  O   UNL     1       2.915  -2.179  -0.566  0.00  0.00    -0.367 OA
ATOM      6  H   UNL     1       1.657  -4.728  -2.123  0.00  0.00    +0.151 HD
ENDROOT
BRANCH   1  15
ATOM      7  C   UNL     1       0.717  -0.566  -1.657  0.00  0.00    -0.033 C 
ATOM      8  C   UNL     1       1.457   0.372  -2.290  0.00  0.00    -0.000 A 
ATOM      9  C   UNL     1       1.509   1.835  -2.185  0.00  0.00    +0.013 A 
ATOM     10  C   UNL     1       2.373   2.519  -2.970  0.00  0.00    -0.050 A 
ATOM     11  C   UNL     1       3.216   1.867  -3.880  0.00  0.00    +0.005 A 
ATOM     12  C   UNL     1       3.225   0.526  -4.033  0.00  0.00    +0.026 A 
ATOM     13  C   UNL     1       2.358  -0.293  -3.258  0.00  0.00    +0.043 A 
ATOM     14  N   UNL     1       2.182  -1.591  -3.225  0.00  0.00    -0.373 N 
ATOM     15  C   UNL     1       1.152  -1.898  -2.226  0.00  0.00    +0.169 C 
ATOM     16  C   UNL     1       2.429   4.021  -2.863  0.00  0.00    +0.044 C 
ATOM     17  H   UNL     1       2.657  -2.241  -3.767  0.00  0.00    +0.160 HD
BRANCH   7  19
ATOM     18  C   UNL     1      -0.448   1.168  -0.321  0.00  0.00    +0.008 C 
ATOM     19  C   UNL     1      -0.326  -0.333  -0.594  0.00  0.00    +0.030 C 
ENDBRANCH   7  19
ENDBRANCH   1  15
BRANCH   3  20
ATOM     20  C   UNL     1       4.425  -5.292  -1.834  0.00  0.00    +0.094 C 
BRANCH  20  21
ATOM     21  C   UNL     1       5.866  -5.021  -1.397  0.00  0.00    +0.115 C 
BRANCH  21  22
ATOM     22  N   UNL     1       6.716  -6.147  -1.792  0.00  0.00    -0.300 N 
ATOM     23  C   UNL     1       7.372  -6.146  -3.101  0.00  0.00    +0.132 C 
ATOM     24  C   UNL     1       6.894  -7.184  -0.949  0.00  0.00    +0.249 C 
ATOM     25  O   UNL     1       6.276  -7.231   0.096  0.00  0.00    -0.270 OA
BRANCH  24  26
ATOM     26  C   UNL     1       7.840  -8.263  -1.297  0.00  0.00    +0.075 A 
ATOM     27  C   UNL     1       9.088  -7.953  -1.842  0.00  0.00    +0.054 A 
ATOM     28  C   UNL     1       9.968  -8.967  -2.164  0.00  0.00    +0.124 A 
ATOM     29  C   UNL     1       9.616 -10.290  -1.948  0.00  0.00    +0.041 A 
ATOM     30  C   UNL     1       8.383 -10.605  -1.409  0.00  0.00    +0.042 A 
ATOM     31  C   UNL     1       7.494  -9.599  -1.077  0.00  0.00    +0.136 A 
ATOM     32  F   UNL     1       6.291  -9.908  -0.544  0.00  0.00    -0.205 F 
ATOM     33  F   UNL     1      11.176  -8.669  -2.692  0.00  0.00    -0.205 F 
ENDBRANCH  24  26
ENDBRANCH  21  22
ENDBRANCH  20  21
ENDBRANCH   3  20
TORSDOF 6
