REMARK  Name = ZINC21728850
REMARK  7 active torsions:
REMARK  status: ('A' for Active; 'I' for Inactive)
REMARK    1  A    between atoms: C_1  and  C_2
REMARK    2  A    between atoms: C_2  and  O_3
REMARK    3  A    between atoms: O_3  and  C_4
REMARK    4  A    between atoms: C_9  and  C_10
REMARK    5  A    between atoms: C_18  and  C_28
REMARK    6  A    between atoms: N_20  and  C_21
REMARK    7  A    between atoms: C_24  and  C_27
REMARK                            x       y       z     vdW  Elec       q    Type
REMARK                         _______ _______ _______ _____ _____    ______ ____
ROOT
ATOM      1  C   UNL     1      -5.838   0.352   1.340  0.00  0.00    +0.067 C 
ATOM      2  C   UNL     1      -5.921   1.149   2.646  0.00  0.00    +0.109 C 
ATOM      3  C   UNL     1      -5.165   2.443   2.541  0.00  0.00    +0.219 C 
ATOM      4  O   UNL     1      -5.625   3.436   3.064  0.00  0.00    -0.275 OA
ATOM      5  N   UNL     1      -3.990   2.535   1.883  0.00  0.00    -0.270 N 
ATOM      6  C   UNL     1      -3.574   1.440   1.127  0.00  0.00    +0.133 A 
ATOM      7  C   UNL     1      -4.414   0.397   0.848  0.00  0.00    +0.028 A 
ATOM      8  C   UNL     1      -3.710  -0.526   0.070  0.00  0.00    +0.099 A 
ATOM      9  N   UNL     1      -2.492  -0.052  -0.124  0.00  0.00    -0.164 NA
ATOM     10  N   UNL     1      -2.390   1.187   0.529  0.00  0.00    -0.217 N 
ATOM     11  H   UNL     1      -3.391   3.455   1.953  0.00  0.00    +0.156 HD
ENDROOT
BRANCH  10  12
ATOM     12  C   UNL     1      -1.259   2.012   0.559  0.00  0.00    +0.067 A 
ATOM     13  C   UNL     1       0.011   1.451   0.594  0.00  0.00    +0.028 A 
ATOM     14  C   UNL     1       1.125   2.268   0.618  0.00  0.00    +0.005 A 
ATOM     15  C   UNL     1       0.976   3.642   0.612  0.00  0.00    -0.050 A 
ATOM     16  C   UNL     1      -0.287   4.204   0.583  0.00  0.00    +0.005 A 
ATOM     17  C   UNL     1      -1.405   3.393   0.559  0.00  0.00    +0.028 A 
ATOM     18  C   UNL     1       2.194   4.530   0.638  0.00  0.00    +0.044 C 
ENDBRANCH  10  12
BRANCH   1  24
ATOM     19  C   UNL     1      -7.398  -1.584   1.011  0.00  0.00    +0.124 A 
ATOM     20  C   UNL     1      -7.766  -2.901   1.240  0.00  0.00    +0.046 A 
ATOM     21  C   UNL     1      -6.989  -3.704   2.052  0.00  0.00    +0.004 A 
ATOM     22  C   UNL     1      -5.841  -3.196   2.633  0.00  0.00    +0.001 A 
ATOM     23  C   UNL     1      -5.470  -1.884   2.403  0.00  0.00    +0.008 A 
ATOM     24  C   UNL     1      -6.244  -1.078   1.591  0.00  0.00    +0.002 A 
BRANCH  19  25
ATOM     25  O   UNL     1      -8.164  -0.791   0.216  0.00  0.00    -0.492 OA
BRANCH  25  27
ATOM     26  C   UNL     1     -10.066  -0.342  -1.206  0.00  0.00    +0.048 C 
ATOM     27  C   UNL     1      -9.338  -1.379  -0.347  0.00  0.00    +0.225 C 
ENDBRANCH  25  27
ENDBRANCH  19  25
ENDBRANCH   1  24
BRANCH   8  28
ATOM     28  C   UNL     1      -4.238  -1.813  -0.448  0.00  0.00    +0.002 A 
ATOM     29  C   UNL     1      -3.470  -2.972  -0.353  0.00  0.00    +0.010 A 
ATOM     30  C   UNL     1      -3.968  -4.167  -0.833  0.00  0.00    +0.001 A 
ATOM     31  C   UNL     1      -5.222  -4.213  -1.415  0.00  0.00    +0.000 A 
ATOM     32  C   UNL     1      -5.986  -3.064  -1.516  0.00  0.00    +0.001 A 
ATOM     33  C   UNL     1      -5.500  -1.865  -1.036  0.00  0.00    +0.010 A 
ENDBRANCH   8  28
TORSDOF 5
