REMARK  Name = ZINC04648311
REMARK  11 active torsions:
REMARK  status: ('A' for Active; 'I' for Inactive)
REMARK    1  A    between atoms: C_1  and  C_2
REMARK    2  A    between atoms: C_2  and  O_3
REMARK    3  A    between atoms: O_3  and  C_4
REMARK    4  A    between atoms: C_6  and  C_11
REMARK    5  A    between atoms: C_9  and  O_10
REMARK    6  A    between atoms: C_14  and  C_25
REMARK    7  A    between atoms: C_20  and  N_24
REMARK    8  A    between atoms: C_21  and  C_22
REMARK    9  A    between atoms: C_25  and  C_26
REMARK   10  A    between atoms: C_25  and  C_27
REMARK   11  A    between atoms: C_25  and  C_28
REMARK                            x       y       z     vdW  Elec       q    Type
REMARK                         _______ _______ _______ _____ _____    ______ ____
ROOT
ATOM      1  C   UNL     1      -0.380  -5.199   0.798  0.00  0.00    +0.101 C 
ATOM      2  C   UNL     1       0.839  -6.037   1.087  0.00  0.00    +0.050 A 
ATOM      3  C   UNL     1       1.966  -5.713   1.739  0.00  0.00    +0.049 A 
ATOM      4  N   UNL     1       2.768  -6.802   1.737  0.00  0.00    -0.277 N 
ATOM      5  H   UNL     1       3.650  -6.861   2.137  0.00  0.00    +0.189 HD
ATOM      6  N   UNL     1       2.103  -7.833   1.056  0.00  0.00    -0.135 NA
ATOM      7  C   UNL     1       0.947  -7.380   0.665  0.00  0.00    +0.245 A 
ATOM      8  O   UNL     1      -0.047  -8.001  -0.025  0.00  0.00    -0.421 OA
ATOM      9  C   UNL     1      -1.248  -7.392  -0.066  0.00  0.00    +0.201 C 
ATOM     10  C   UNL     1      -1.471  -6.112   0.299  0.00  0.00    +0.098 C 
ENDROOT
BRANCH   1  13
ATOM     11  C   UNL     1      -0.255  -1.942  -1.113  0.00  0.00    +0.162 A 
ATOM     12  C   UNL     1      -0.553  -2.888  -0.145  0.00  0.00    +0.054 A 
ATOM     13  C   UNL     1      -0.054  -4.172  -0.256  0.00  0.00    -0.031 A 
ATOM     14  C   UNL     1       0.744  -4.517  -1.331  0.00  0.00    +0.008 A 
ATOM     15  C   UNL     1       1.046  -3.578  -2.300  0.00  0.00    +0.049 A 
ATOM     16  C   UNL     1       0.544  -2.291  -2.198  0.00  0.00    +0.158 A 
BRANCH  16  17
ATOM     17  O   UNL     1       0.835  -1.368  -3.154  0.00  0.00    -0.503 OA
ATOM     18  H   UNL     1       1.639  -0.860  -2.978  0.00  0.00    +0.292 HD
ENDBRANCH  16  17
BRANCH  11  19
ATOM     19  O   UNL     1      -0.745  -0.678  -1.006  0.00  0.00    -0.489 OA
BRANCH  19  21
ATOM     20  C   UNL     1      -2.013   1.067   0.083  0.00  0.00    +0.048 C 
ATOM     21  C   UNL     1      -1.557  -0.392   0.134  0.00  0.00    +0.226 C 
ENDBRANCH  19  21
ENDBRANCH  11  19
ENDBRANCH   1  13
BRANCH   3  22
ATOM     22  C   UNL     1       2.280  -4.377   2.362  0.00  0.00    +0.004 C 
ATOM     23  C   UNL     1       3.598  -4.472   3.134  0.00  0.00    +0.017 C 
ATOM     24  C   UNL     1       2.408  -3.320   1.263  0.00  0.00    +0.017 C 
ATOM     25  C   UNL     1       1.155  -3.983   3.320  0.00  0.00    +0.017 C 
ENDBRANCH   3  22
BRANCH   9  26
ATOM     26  N   UNL     1      -2.321  -8.125  -0.510  0.00  0.00    -0.328 N 
ATOM     27  H   UNL     1      -2.199  -9.049  -0.781  0.00  0.00    +0.145 HD
ATOM     28  H   UNL     1      -3.201  -7.720  -0.552  0.00  0.00    +0.145 HD
ENDBRANCH   9  26
BRANCH  10  29
ATOM     29  C   UNL     1      -2.804  -5.597   0.209  0.00  0.00    +0.101 C 
ATOM     30  N   UNL     1      -3.862  -5.188   0.138  0.00  0.00    -0.191 NA
ENDBRANCH  10  29
TORSDOF 7
