REMARK  Name = ZINC08750832
REMARK  7 active torsions:
REMARK  status: ('A' for Active; 'I' for Inactive)
REMARK    1  A    between atoms: C_1  and  C_2
REMARK    2  A    between atoms: C_5  and  N_8
REMARK    3  A    between atoms: C_12  and  C_13
REMARK    4  A    between atoms: C_22  and  S_23
REMARK    5  A    between atoms: S_23  and  C_24
REMARK    6  A    between atoms: C_24  and  C_26
REMARK    7  A    between atoms: C_24  and  C_27
REMARK                            x       y       z     vdW  Elec       q    Type
REMARK                         _______ _______ _______ _____ _____    ______ ____
ROOT
ATOM      1  N   UNL     1       4.294   5.662  -0.303  0.00  0.00    -0.214 N 
ATOM      2  C   UNL     1       4.802   4.410  -0.264  0.00  0.00    +0.275 C 
ATOM      3  O   UNL     1       5.974   4.088  -0.327  0.00  0.00    -0.268 OA
ATOM      4  C   UNL     1       3.635   3.516  -0.129  0.00  0.00    +0.129 C 
ATOM      5  C   UNL     1       3.648   2.154  -0.048  0.00  0.00    +0.041 C 
ATOM      6  N   UNL     1       2.539   4.332  -0.106  0.00  0.00    -0.220 NA
ATOM      7  C   UNL     1       2.926   5.577  -0.203  0.00  0.00    +0.169 C 
ENDROOT
BRANCH   5   8
ATOM      8  C   UNL     1       2.385   1.408  -0.020  0.00  0.00    -0.021 A 
ATOM      9  C   UNL     1       1.165   2.093   0.062  0.00  0.00    +0.009 A 
ATOM     10  C   UNL     1      -0.017   1.386   0.089  0.00  0.00    +0.022 A 
ATOM     11  C   UNL     1      -0.003   0.001   0.034  0.00  0.00    +0.059 A 
ATOM     12  C   UNL     1       1.200  -0.684  -0.048  0.00  0.00    +0.060 A 
ATOM     13  C   UNL     1       2.392   0.009  -0.075  0.00  0.00    +0.029 A 
ATOM     14 CL   UNL     1       1.205  -2.419  -0.116  0.00  0.00    -0.082 Cl
ATOM     15 CL   UNL     1      -1.499  -0.879   0.067  0.00  0.00    -0.082 Cl
ENDBRANCH   5   8
BRANCH   1  20
ATOM     16  C   UNL     1       7.298  10.451  -0.803  0.00  0.00    +0.044 C 
ATOM     17  C   UNL     1       6.500   9.180  -0.670  0.00  0.00    -0.050 A 
ATOM     18  C   UNL     1       6.768   8.302   0.364  0.00  0.00    +0.005 A 
ATOM     19  C   UNL     1       6.039   7.135   0.488  0.00  0.00    +0.024 A 
ATOM     20  C   UNL     1       5.036   6.845  -0.427  0.00  0.00    +0.044 A 
ATOM     21  C   UNL     1       4.772   7.726  -1.467  0.00  0.00    +0.024 A 
ATOM     22  C   UNL     1       5.501   8.893  -1.582  0.00  0.00    +0.005 A 
ENDBRANCH   1  20
BRANCH   7  23
ATOM     23  S   UNL     1       1.838   6.962  -0.209  0.00  0.00    -0.077 S 
BRANCH  23  24
ATOM     24  C   UNL     1       0.247   6.114  -0.047  0.00  0.00    +0.137 C 
ATOM     25  C   UNL     1      -0.004   5.259  -1.291  0.00  0.00    +0.029 C 
BRANCH  24  26
ATOM     26  C   UNL     1      -0.854   7.133   0.093  0.00  0.00    +0.233 C 
ATOM     27  O   UNL     1      -0.705   8.251  -0.351  0.00  0.00    -0.274 OA
ATOM     28  N   UNL     1      -2.005   6.801   0.712  0.00  0.00    -0.239 N 
ATOM     29  C   UNL     1      -2.990   7.712   0.837  0.00  0.00    +0.303 C 
ATOM     30  O   UNL     1      -2.840   8.833   0.393  0.00  0.00    -0.253 OA
ATOM     31  N   UNL     1      -4.140   7.380   1.456  0.00  0.00    -0.313 N 
ATOM     32  H   UNL     1      -2.124   5.906   1.067  0.00  0.00    +0.159 HD
ATOM     33  H   UNL     1      -4.259   6.485   1.811  0.00  0.00    +0.146 HD
ATOM     34  H   UNL     1      -4.849   8.036   1.546  0.00  0.00    +0.146 HD
ENDBRANCH  24  26
ENDBRANCH  23  24
ENDBRANCH   7  23
TORSDOF 5
