REMARK  Name = ZINC39638823
REMARK  5 active torsions:
REMARK  status: ('A' for Active; 'I' for Inactive)
REMARK    1  A    between atoms: C_5  and  C_7
REMARK    2  A    between atoms: C_7  and  C_8
REMARK    3  A    between atoms: C_8  and  N_9
REMARK    4  A    between atoms: C_10  and  C_12
REMARK    5  A    between atoms: C_23  and  C_25
REMARK                            x       y       z     vdW  Elec       q    Type
REMARK                         _______ _______ _______ _____ _____    ______ ____
ROOT
ATOM      1  C   UNL     1       1.293  -6.192   2.594  0.00  0.00    +0.100 C 
ATOM      2  C   UNL     1      -0.045  -6.847   2.182  0.00  0.00    +0.121 C 
ATOM      3  N   UNL     1      -0.124  -8.081   2.998  0.00  0.00    -0.296 N 
ATOM      4  C   UNL     1       0.407  -7.682   4.324  0.00  0.00    +0.115 C 
ATOM      5  C   UNL     1       1.586  -6.743   4.000  0.00  0.00    -0.004 C 
ATOM      6  C   UNL     1       2.897  -7.523   4.000  0.00  0.00    -0.010 C 
ATOM      7  C   UNL     1       3.195  -8.012   5.420  0.00  0.00    -0.082 C 
ATOM      8  N   UNL     1       3.287  -6.861   6.326  0.00  0.00    +0.379 N 
ATOM      9  C   UNL     1       1.994  -6.170   6.392  0.00  0.00    -0.082 C 
ATOM     10  C   UNL     1       1.645  -5.603   5.012  0.00  0.00    -0.010 C 
ATOM     11  C   UNL     1      -0.578  -9.293   2.621  0.00  0.00    +0.247 C 
ATOM     12  O   UNL     1      -0.663 -10.191   3.436  0.00  0.00    -0.270 OA
ATOM     13  H   UNL     1       3.544  -7.180   7.248  0.00  0.00    -0.086 HD
ATOM     14  H   UNL     1       3.991  -6.222   5.987  0.00  0.00    -0.086 HD
ENDROOT
BRANCH  11  15
ATOM     15  C   UNL     1      -0.972  -9.530   1.217  0.00  0.00    +0.045 A 
ATOM     16  C   UNL     1      -1.845  -8.646   0.573  0.00  0.00    +0.014 A 
ATOM     17  C   UNL     1      -2.214  -8.864  -0.736  0.00  0.00    +0.001 A 
ATOM     18  C   UNL     1      -1.725  -9.960  -1.430  0.00  0.00    +0.012 A 
ATOM     19  C   UNL     1      -0.857 -10.850  -0.810  0.00  0.00    +0.031 A 
ATOM     20  C   UNL     1      -0.468 -10.637   0.522  0.00  0.00    +0.006 A 
ATOM     21  C   UNL     1       0.459 -11.723   0.927  0.00  0.00    -0.006 A 
ATOM     22  C   UNL     1       1.118 -11.981   2.122  0.00  0.00    +0.009 A 
ATOM     23  C   UNL     1       1.944 -13.089   2.233  0.00  0.00    +0.001 A 
ATOM     24  C   UNL     1       2.118 -13.942   1.161  0.00  0.00    +0.001 A 
ATOM     25  C   UNL     1       1.468 -13.698  -0.038  0.00  0.00    +0.012 A 
ATOM     26  C   UNL     1       0.637 -12.592  -0.163  0.00  0.00    +0.030 A 
ATOM     27  C   UNL     1      -0.187 -12.083  -1.286  0.00  0.00    +0.194 C 
ATOM     28  O   UNL     1      -0.283 -12.576  -2.391  0.00  0.00    -0.287 OA
ENDBRANCH  11  15
BRANCH   1  30
ATOM     29  N   UNL     1       2.245  -3.910   2.530  0.00  0.00    -0.315 N 
ATOM     30  C   UNL     1       1.153  -4.693   2.637  0.00  0.00    +0.218 C 
ATOM     31  O   UNL     1       0.057  -4.190   2.767  0.00  0.00    -0.275 OA
ATOM     32  H   UNL     1       3.122  -4.312   2.425  0.00  0.00    +0.149 HD
BRANCH  29  33
ATOM     33  C   UNL     1       2.108  -2.452   2.571  0.00  0.00    +0.109 C 
BRANCH  33  34
ATOM     34  C   UNL     1       3.488  -1.806   2.429  0.00  0.00    +0.056 C 
BRANCH  34  39
ATOM     35  C   UNL     1       3.127   1.788   1.334  0.00  0.00    +0.000 A 
ATOM     36  C   UNL     1       3.091   2.447   2.550  0.00  0.00    +0.003 A 
ATOM     37  C   UNL     1       3.183   1.730   3.727  0.00  0.00    +0.038 A 
ATOM     38  C   UNL     1       3.312   0.351   3.689  0.00  0.00    +0.127 A 
ATOM     39  C   UNL     1       3.348  -0.307   2.472  0.00  0.00    -0.011 A 
ATOM     40  C   UNL     1       3.256   0.413   1.295  0.00  0.00    +0.006 A 
ATOM     41  F   UNL     1       3.402  -0.351   4.840  0.00  0.00    -0.205 F 
ENDBRANCH  34  39
ENDBRANCH  33  34
ENDBRANCH  29  33
ENDBRANCH   1  30
TORSDOF 5
