REMARK  Name = ZINC08307354
REMARK  7 active torsions:
REMARK  status: ('A' for Active; 'I' for Inactive)
REMARK    1  A    between atoms: C_1  and  C_2
REMARK    2  A    between atoms: C_5  and  C_29
REMARK    3  A    between atoms: C_9  and  C_11
REMARK    4  A    between atoms: C_9  and  C_12
REMARK    5  A    between atoms: C_9  and  N_58
REMARK    6  A    between atoms: N_17  and  S_20
REMARK    7  A    between atoms: S_20  and  C_23
REMARK                            x       y       z     vdW  Elec       q    Type
REMARK                         _______ _______ _______ _____ _____    ______ ____
ROOT
ATOM      1  C   UNL     1       1.723  -3.991   2.159  0.00  0.00    +0.202 C 
ATOM      2  O   UNL     1       1.136  -4.555   1.259  0.00  0.00    -0.277 OA
ATOM      3  N   UNL     1       2.515  -4.695   2.991  0.00  0.00    -0.300 N 
ATOM      4  C   UNL     1       2.764  -6.125   2.757  0.00  0.00    +0.125 C 
ATOM      5  C   UNL     1       4.284  -6.347   2.681  0.00  0.00    +0.128 C 
ATOM      6  N   UNL     1       4.910  -5.700   3.843  0.00  0.00    -0.174 NA
ATOM      7  C   UNL     1       4.657  -4.272   4.080  0.00  0.00    +0.128 C 
ATOM      8  C   UNL     1       3.142  -4.048   4.153  0.00  0.00    +0.125 C 
ENDROOT
BRANCH   6   9
ATOM      9  S   UNL     1       5.883  -6.565   4.866  0.00  0.00    +0.061 S 
ATOM     10  O   UNL     1       6.377  -7.670   4.121  0.00  0.00    -0.153 OA
ATOM     11  O   UNL     1       6.744  -5.627   5.498  0.00  0.00    -0.153 OA
BRANCH   9  12
ATOM     12  C   UNL     1       4.850  -7.231   6.129  0.00  0.00    +0.105 A 
ATOM     13  C   UNL     1       4.626  -6.512   7.288  0.00  0.00    +0.028 A 
ATOM     14  C   UNL     1       3.812  -7.032   8.277  0.00  0.00    +0.002 A 
ATOM     15  C   UNL     1       3.230  -8.275   8.110  0.00  0.00    +0.000 A 
ATOM     16  C   UNL     1       3.458  -8.996   6.953  0.00  0.00    +0.002 A 
ATOM     17  C   UNL     1       4.269  -8.473   5.962  0.00  0.00    +0.028 A 
ENDBRANCH   9  12
ENDBRANCH   6   9
BRANCH   1  18
ATOM     18  C   UNL     1       1.565  -2.504   2.346  0.00  0.00    +0.016 C 
ATOM     19  C   UNL     1       0.712  -2.233   3.586  0.00  0.00    -0.004 C 
BRANCH  18  27
ATOM     20  C   UNL     1       0.413   1.628  -0.060  0.00  0.00    +0.005 C 
ATOM     21  C   UNL     1       0.390   0.099  -0.108  0.00  0.00    -0.031 C 
ATOM     22  C   UNL     1      -1.052  -0.385  -0.290  0.00  0.00    +0.003 C 
ATOM     23  C   UNL     1      -1.073  -1.916  -0.276  0.00  0.00    -0.031 C 
ATOM     24  C   UNL     1      -0.470  -2.418   1.038  0.00  0.00    -0.075 C 
ATOM     25  C   UNL     1       0.950  -0.462   1.201  0.00  0.00    -0.075 C 
ATOM     26  C   UNL     1      -2.517  -2.409  -0.397  0.00  0.00    +0.005 C 
ATOM     27  N   UNL     1       0.924  -1.939   1.141  0.00  0.00    +0.387 N 
ATOM     28  H   UNL     1       1.444  -2.247   0.311  0.00  0.00    -0.081 HD
ENDBRANCH  18  27
ENDBRANCH   1  18
TORSDOF 4
