REMARK  Name = ZINC22653037
REMARK  9 active torsions:
REMARK  status: ('A' for Active; 'I' for Inactive)
REMARK    1  A    between atoms: C_1  and  C_2
REMARK    2  A    between atoms: C_2  and  O_3
REMARK    3  A    between atoms: O_3  and  C_4
REMARK    4  A    between atoms: C_4  and  C_6
REMARK    5  A    between atoms: C_6  and  C_7
REMARK    6  A    between atoms: C_8  and  C_31
REMARK    7  A    between atoms: C_15  and  N_16
REMARK    8  A    between atoms: N_19  and  C_22
REMARK    9  A    between atoms: C_22  and  C_23
REMARK                            x       y       z     vdW  Elec       q    Type
REMARK                         _______ _______ _______ _____ _____    ______ ____
ROOT
ATOM      1  C   UNL     1      -0.979  -0.689   0.878  0.00  0.00    +0.024 A 
ATOM      2  C   UNL     1      -0.935  -2.080   0.868  0.00  0.00    +0.049 A 
ATOM      3  N   UNL     1      -0.167  -2.717   0.009  0.00  0.00    -0.215 NA
ATOM      4  C   UNL     1       0.588  -2.051  -0.872  0.00  0.00    +0.255 A 
ATOM      5  N   UNL     1       1.428  -2.456  -1.819  0.00  0.00    -0.197 NA
ATOM      6  C   UNL     1       1.934  -1.403  -2.449  0.00  0.00    +0.247 A 
ATOM      7  N   UNL     1       1.451  -0.302  -1.925  0.00  0.00    -0.151 NA
ATOM      8  N   UNL     1       0.574  -0.685  -0.903  0.00  0.00    -0.182 N 
ATOM      9  C   UNL     1      -0.205   0.013  -0.026  0.00  0.00    +0.132 A 
ATOM     10  C   UNL     1      -1.773  -2.863   1.847  0.00  0.00    +0.066 C 
ENDROOT
BRANCH   9  11
ATOM     11  N   UNL     1      -0.224   1.390  -0.046  0.00  0.00    -0.318 N 
ATOM     12  C   UNL     1      -0.757   1.891  -1.320  0.00  0.00    +0.088 C 
ATOM     13  C   UNL     1      -0.835   3.419  -1.271  0.00  0.00    -0.059 C 
ATOM     14  N   UNL     1       0.504   3.967  -1.012  0.00  0.00    +0.387 N 
ATOM     15  C   UNL     1       1.037   3.466   0.262  0.00  0.00    -0.059 C 
ATOM     16  C   UNL     1       1.115   1.938   0.214  0.00  0.00    +0.088 C 
ATOM     17  H   UNL     1       1.172   3.628  -1.817  0.00  0.00    -0.081 HD
BRANCH  14  18
ATOM     18  C   UNL     1       0.484   5.436  -1.033  0.00  0.00    +0.019 C 
BRANCH  18  19
ATOM     19  C   UNL     1       1.898   5.957  -1.014  0.00  0.00    +0.199 C 
ATOM     20  O   UNL     1       2.830   5.186  -1.099  0.00  0.00    -0.278 OA
ATOM     21  N   UNL     1       2.127   7.281  -0.902  0.00  0.00    -0.303 N 
ATOM     22  C   UNL     1       1.008   8.228  -0.804  0.00  0.00    +0.107 C 
ATOM     23  C   UNL     1       1.212   9.098   0.446  0.00  0.00    +0.019 C 
ATOM     24  C   UNL     1       2.591   9.759   0.381  0.00  0.00    +0.003 C 
ATOM     25  C   UNL     1       3.675   8.679   0.363  0.00  0.00    +0.019 C 
ATOM     26  C   UNL     1       3.499   7.804  -0.882  0.00  0.00    +0.107 C 
ENDBRANCH  18  19
ENDBRANCH  14  18
ENDBRANCH   9  11
BRANCH   1  27
ATOM     27  C   UNL     1      -1.858   0.042   1.861  0.00  0.00    +0.161 C 
BRANCH  27  28
ATOM     28  C   UNL     1      -3.220   0.258   1.253  0.00  0.00    +0.312 C 
ATOM     29  O   UNL     1      -3.453  -0.139   0.136  0.00  0.00    -0.250 OA
BRANCH  28  30
ATOM     30  O   UNL     1      -4.173   0.893   1.952  0.00  0.00    -0.465 OA
BRANCH  30  32
ATOM     31  C   UNL     1      -6.412   1.805   2.248  0.00  0.00    +0.048 C 
ATOM     32  C   UNL     1      -5.461   1.066   1.304  0.00  0.00    +0.229 C 
ENDBRANCH  30  32
ENDBRANCH  28  30
ENDBRANCH  27  28
ENDBRANCH   1  27
TORSDOF 7
