REMARK  Name = ZINC66925400
REMARK  9 active torsions:
REMARK  status: ('A' for Active; 'I' for Inactive)
REMARK    1  A    between atoms: C_1  and  C_2
REMARK    2  A    between atoms: N_7  and  C_9
REMARK    3  A    between atoms: C_9  and  C_10
REMARK    4  A    between atoms: C_9  and  C_11
REMARK    5  A    between atoms: C_9  and  C_12
REMARK    6  A    between atoms: C_12  and  N_13
REMARK    7  A    between atoms: N_16  and  N_17
REMARK    8  A    between atoms: C_18  and  C_20
REMARK    9  A    between atoms: C_20  and  C_21
REMARK                            x       y       z     vdW  Elec       q    Type
REMARK                         _______ _______ _______ _____ _____    ______ ____
ROOT
ATOM      1  N   UNL     1      -0.065  -4.403   2.277  0.00  0.00    -0.300 N 
ATOM      2  C   UNL     1      -0.407  -5.702   2.380  0.00  0.00    +0.316 C 
ATOM      3  O   UNL     1       0.432  -6.531   2.675  0.00  0.00    -0.251 OA
ATOM      4  N   UNL     1      -1.681  -6.083   2.157  0.00  0.00    -0.218 N 
ATOM      5  H   UNL     1      -0.734  -3.742   2.042  0.00  0.00    +0.150 HD
ATOM      6  H   UNL     1      -1.928  -7.018   2.232  0.00  0.00    +0.174 HD
ENDROOT
BRANCH   4   7
ATOM      7  N   UNL     1      -2.648  -5.128   1.818  0.00  0.00    -0.233 N 
ATOM      8  C   UNL     1      -3.922  -5.509   1.595  0.00  0.00    +0.234 C 
ATOM      9  O   UNL     1      -4.230  -6.678   1.688  0.00  0.00    -0.274 OA
ATOM     10  H   UNL     1      -2.402  -4.193   1.744  0.00  0.00    +0.173 HD
BRANCH   8  11
ATOM     11  C   UNL     1      -4.963  -4.481   1.230  0.00  0.00    +0.135 C 
BRANCH  11  12
ATOM     12  C   UNL     1      -6.293  -5.162   1.036  0.00  0.00    -0.003 A 
ATOM     13  C   UNL     1      -6.696  -5.544  -0.230  0.00  0.00    +0.007 A 
ATOM     14  C   UNL     1      -7.916  -6.168  -0.408  0.00  0.00    +0.000 A 
ATOM     15  C   UNL     1      -8.736  -6.410   0.679  0.00  0.00    +0.003 A 
ATOM     16  C   UNL     1      -8.335  -6.029   1.945  0.00  0.00    +0.038 A 
ATOM     17  C   UNL     1      -7.111  -5.408   2.126  0.00  0.00    +0.127 A 
ATOM     18  F   UNL     1      -6.716  -5.039   3.364  0.00  0.00    -0.205 F 
ENDBRANCH  11  12
ENDBRANCH   8  11
ENDBRANCH   4   7
BRANCH   1  19
ATOM     19  C   UNL     1       1.320  -3.989   2.519  0.00  0.00    +0.093 C 
BRANCH  19  20
ATOM     20  C   UNL     1       1.467  -2.497   2.214  0.00  0.00    -0.055 C 
ATOM     21  C   UNL     1       2.930  -2.083   2.387  0.00  0.00    -0.008 C 
ATOM     22  C   UNL     1       0.591  -1.691   3.175  0.00  0.00    -0.008 C 
BRANCH  20  28
ATOM     23  C   UNL     1       0.868   0.971  -1.189  0.00  0.00    +0.005 C 
ATOM     24  C   UNL     1       0.694  -0.517  -0.879  0.00  0.00    -0.031 C 
ATOM     25  C   UNL     1       1.493  -1.346  -1.889  0.00  0.00    -0.001 C 
ATOM     26  C   UNL     1       1.376  -2.829  -1.523  0.00  0.00    -0.018 C 
ATOM     27  C   UNL     1       1.865  -3.034  -0.088  0.00  0.00    -0.078 C 
ATOM     28  N   UNL     1       1.045  -2.236   0.831  0.00  0.00    +0.384 N 
ATOM     29  C   UNL     1       1.207  -0.808   0.533  0.00  0.00    -0.075 C 
ATOM     30  H   UNL     1       0.075  -2.493   0.724  0.00  0.00    -0.081 HD
ENDBRANCH  20  28
ENDBRANCH  19  20
ENDBRANCH   1  19
TORSDOF 6
