REMARK  Name = ZINC10215344
REMARK  3 active torsions:
REMARK  status: ('A' for Active; 'I' for Inactive)
REMARK    1  A    between atoms: C_3  and  O_29
REMARK    2  A    between atoms: C_4  and  C_8
REMARK    3  A    between atoms: C_21  and  C_23
REMARK                            x       y       z     vdW  Elec       q    Type
REMARK                         _______ _______ _______ _____ _____    ______ ____
ROOT
ATOM      1  C   UNL     1       3.853   4.723  -1.824  0.00  0.00    +0.072 C 
ATOM      2  N   UNL     1       4.331   3.609  -1.372  0.00  0.00    -0.184 NA
ATOM      3  N   UNL     1       3.559   3.042  -0.374  0.00  0.00    -0.205 N 
ATOM      4  C   UNL     1       2.515   4.008   0.034  0.00  0.00    +0.136 C 
ATOM      5  C   UNL     1       2.586   5.072  -1.070  0.00  0.00    +0.086 C 
ATOM      6  C   UNL     1       1.208   3.260   0.010  0.00  0.00    +0.018 A 
ATOM      7  C   UNL     1       0.023   3.971   0.011  0.00  0.00    +0.029 A 
ATOM      8  C   UNL     1      -1.190   3.307   0.013  0.00  0.00    +0.042 A 
ATOM      9  C   UNL     1      -1.213   1.923   0.007  0.00  0.00    +0.023 A 
ATOM     10  C   UNL     1      -0.033   1.211   0.005  0.00  0.00    +0.047 A 
ATOM     11  C   UNL     1       1.195   1.873  -0.005  0.00  0.00    +0.129 A 
ATOM     12  O   UNL     1       2.315   1.108  -0.060  0.00  0.00    -0.465 OA
ATOM     13  C   UNL     1       3.598   1.690   0.198  0.00  0.00    +0.311 C 
ATOM     14 CL   UNL     1      -2.676   4.204   0.013  0.00  0.00    -0.084 Cl
ENDROOT
BRANCH   1  18
ATOM     15  C   UNL     1       5.572   7.041  -4.941  0.00  0.00    +0.023 A 
ATOM     16  C   UNL     1       6.182   5.864  -4.547  0.00  0.00    +0.047 A 
ATOM     17  C   UNL     1       5.629   5.102  -3.532  0.00  0.00    +0.126 A 
ATOM     18  C   UNL     1       4.450   5.527  -2.905  0.00  0.00    +0.041 A 
ATOM     19  C   UNL     1       3.840   6.714  -3.315  0.00  0.00    +0.033 A 
ATOM     20  C   UNL     1       4.407   7.466  -4.325  0.00  0.00    +0.042 A 
ATOM     21 CL   UNL     1       3.651   8.945  -4.830  0.00  0.00    -0.084 Cl
BRANCH  17  22
ATOM     22  O   UNL     1       6.228   3.946  -3.144  0.00  0.00    -0.506 OA
ATOM     23  H   UNL     1       5.925   3.165  -3.627  0.00  0.00    +0.292 HD
ENDBRANCH  17  22
ENDBRANCH   1  18
BRANCH  13  24
ATOM     24  C   UNL     1       3.844   1.764   1.683  0.00  0.00    +0.020 A 
ATOM     25  C   UNL     1       4.708   2.708   2.205  0.00  0.00    +0.016 A 
ATOM     26  C   UNL     1       4.907   2.747   3.545  0.00  0.00    +0.045 A 
ATOM     27  S   UNL     1       3.855   1.422   4.114  0.00  0.00    -0.105 S 
ATOM     28  C   UNL     1       3.216   0.908   2.527  0.00  0.00    +0.054 A 
ENDBRANCH  13  24
TORSDOF 3
