REMARK  Name = ZINC37944139
REMARK  3 active torsions:
REMARK  status: ('A' for Active; 'I' for Inactive)
REMARK    1  A    between atoms: C_5  and  N_7
REMARK    2  A    between atoms: N_7  and  C_8
REMARK    3  A    between atoms: C_8  and  C_16
REMARK                            x       y       z     vdW  Elec       q    Type
REMARK                         _______ _______ _______ _____ _____    ______ ____
ROOT
ATOM      1  C   UNL     1      -0.013  -2.833   0.098  0.00  0.00    +0.096 C 
ATOM      2  C   UNL     1      -0.924  -2.690  -1.123  0.00  0.00    -0.043 C 
ATOM      3  N   UNL     1      -1.114  -3.994  -1.763  0.00  0.00    +0.381 N 
ATOM      4  C   UNL     1       0.167  -4.529  -2.232  0.00  0.00    -0.078 C 
ATOM      5  C   UNL     1       1.115  -4.733  -1.047  0.00  0.00    -0.013 C 
ATOM      6  C   UNL     1       0.397  -4.304   0.240  0.00  0.00    +0.016 C 
ATOM      7  C   UNL     1      -0.875  -5.149   0.389  0.00  0.00    -0.013 C 
ATOM      8  C   UNL     1      -1.759  -4.932  -0.841  0.00  0.00    -0.078 C 
ATOM      9  H   UNL     1      -1.713  -3.871  -2.566  0.00  0.00    -0.082 HD
ENDROOT
BRANCH   1  10
ATOM     10  C   UNL     1      -0.751  -2.393   1.336  0.00  0.00    +0.232 C 
ATOM     11  O   UNL     1      -1.963  -2.437   1.368  0.00  0.00    -0.274 OA
ATOM     12  N   UNL     1      -0.065  -1.950   2.409  0.00  0.00    -0.328 N 
ATOM     13  H   UNL     1       0.905  -1.982   2.410  0.00  0.00    +0.145 HD
ATOM     14  H   UNL     1      -0.540  -1.601   3.178  0.00  0.00    +0.145 HD
ENDBRANCH   1  10
BRANCH   1  15
ATOM     15  N   UNL     1       1.182  -2.005  -0.082  0.00  0.00    -0.331 N 
ATOM     16  H   UNL     1       2.055  -2.421  -0.149  0.00  0.00    +0.147 HD
BRANCH  15  21
ATOM     17  C   UNL     1      -0.306   1.352  -0.252  0.00  0.00    +0.002 A 
ATOM     18  C   UNL     1       0.830   2.139  -0.304  0.00  0.00    +0.001 A 
ATOM     19  C   UNL     1       2.082   1.554  -0.283  0.00  0.00    +0.017 A 
ATOM     20  C   UNL     1       2.203   0.180  -0.209  0.00  0.00    +0.039 A 
ATOM     21  C   UNL     1       1.064  -0.614  -0.156  0.00  0.00    +0.042 A 
ATOM     22  C   UNL     1      -0.193  -0.023  -0.178  0.00  0.00    +0.024 A 
ATOM     23 BR   UNL     1       3.916  -0.620  -0.180  0.00  0.00    -0.048 Br
ENDBRANCH  15  21
ENDBRANCH   1  15
TORSDOF 3
