REMARK  Name = ZINC67400754
REMARK  12 active torsions:
REMARK  status: ('A' for Active; 'I' for Inactive)
REMARK    1  A    between atoms: C_1  and  C_2
REMARK    2  A    between atoms: C_2  and  C_4
REMARK    3  A    between atoms: C_2  and  N_14
REMARK    4  A    between atoms: N_6  and  C_7
REMARK    5  A    between atoms: C_7  and  C_8
REMARK    6  A    between atoms: C_7  and  C_9
REMARK    7  A    between atoms: C_7  and  C_11
REMARK    8  A    between atoms: C_11  and  C_12
REMARK    9  A    between atoms: C_11  and  C_13
REMARK   10  A    between atoms: C_17  and  C_20
REMARK   11  A    between atoms: C_20  and  C_22
REMARK   12  A    between atoms: C_20  and  O_29
REMARK                            x       y       z     vdW  Elec       q    Type
REMARK                         _______ _______ _______ _____ _____    ______ ____
ROOT
ATOM      1  N   UNL     1      -0.969  -0.944   0.578  0.00  0.00    +0.387 N 
ATOM      2  C   UNL     1      -0.287  -2.193   0.934  0.00  0.00    -0.077 C 
ATOM      3  C   UNL     1      -1.308  -3.204   1.460  0.00  0.00    -0.012 C 
ATOM      4  C   UNL     1      -2.000  -2.627   2.698  0.00  0.00    +0.019 C 
ATOM      5  C   UNL     1      -2.645  -1.287   2.332  0.00  0.00    -0.012 C 
ATOM      6  C   UNL     1      -1.574  -0.347   1.775  0.00  0.00    -0.077 C 
ATOM      7  H   UNL     1      -1.690  -1.138  -0.101  0.00  0.00    -0.081 HD
ENDROOT
BRANCH   1   9
ATOM      8  C   UNL     1      -0.703   1.309  -0.346  0.00  0.00    -0.004 C 
ATOM      9  C   UNL     1       0.002  -0.004   0.002  0.00  0.00    +0.016 C 
BRANCH   9  10
ATOM     10  C   UNL     1       0.598  -0.601  -1.247  0.00  0.00    +0.200 C 
ATOM     11  O   UNL     1      -0.039  -1.397  -1.903  0.00  0.00    -0.278 OA
ATOM     12  N   UNL     1       1.840  -0.249  -1.635  0.00  0.00    -0.299 N 
ATOM     13  H   UNL     1       2.350   0.388  -1.110  0.00  0.00    +0.150 HD
BRANCH  12  14
ATOM     14  C   UNL     1       2.420  -0.829  -2.849  0.00  0.00    +0.121 C 
ATOM     15  C   UNL     1       1.543  -0.476  -4.052  0.00  0.00    +0.048 C 
BRANCH  14  16
ATOM     16  C   UNL     1       3.827  -0.267  -3.061  0.00  0.00    +0.020 C 
ATOM     17  C   UNL     1       4.737  -0.725  -1.919  0.00  0.00    +0.010 C 
ATOM     18  C   UNL     1       4.384  -0.775  -4.392  0.00  0.00    +0.010 C 
ENDBRANCH  14  16
BRANCH  14  19
ATOM     19  C   UNL     1       2.493  -2.292  -2.707  0.00  0.00    +0.088 C 
ATOM     20  N   UNL     1       2.549  -3.422  -2.598  0.00  0.00    -0.194 NA
ENDBRANCH  14  19
ENDBRANCH  12  14
ENDBRANCH   9  10
ENDBRANCH   1   9
BRANCH   4  21
ATOM     21  C   UNL     1      -3.078  -3.599   3.182  0.00  0.00    +0.147 C 
BRANCH  21  22
ATOM     22  C   UNL     1      -3.758  -3.030   4.400  0.00  0.00    -0.019 A 
ATOM     23  C   UNL     1      -4.813  -2.148   4.255  0.00  0.00    +0.007 A 
ATOM     24  C   UNL     1      -5.436  -1.626   5.372  0.00  0.00    +0.020 A 
ATOM     25  C   UNL     1      -5.005  -1.985   6.636  0.00  0.00    +0.041 A 
ATOM     26  C   UNL     1      -3.949  -2.867   6.781  0.00  0.00    +0.020 A 
ATOM     27  C   UNL     1      -3.330  -3.393   5.663  0.00  0.00    +0.007 A 
ATOM     28 CL   UNL     1      -5.787  -1.329   8.040  0.00  0.00    -0.084 Cl
ENDBRANCH  21  22
BRANCH  21  29
ATOM     29  O   UNL     1      -4.043  -3.794   2.146  0.00  0.00    -0.387 OA
ATOM     30  H   UNL     1      -4.493  -2.984   1.869  0.00  0.00    +0.210 HD
ENDBRANCH  21  29
ENDBRANCH   4  21
TORSDOF 8
