REMARK  Name = ZINC24910331
REMARK  6 active torsions:
REMARK  status: ('A' for Active; 'I' for Inactive)
REMARK    1  A    between atoms: C_2  and  C_3
REMARK    2  A    between atoms: C_3  and  N_4
REMARK    3  A    between atoms: C_8  and  C_24
REMARK    4  A    between atoms: C_13  and  S_14
REMARK    5  A    between atoms: S_14  and  C_15
REMARK    6  A    between atoms: C_15  and  C_16
REMARK                            x       y       z     vdW  Elec       q    Type
REMARK                         _______ _______ _______ _____ _____    ______ ____
ROOT
ATOM      1  N   UNL     1      -2.388   0.111   0.026  0.00  0.00    -0.283 N 
ATOM      2  C   UNL     1      -1.275  -0.645   0.011  0.00  0.00    +0.264 A 
ATOM      3  O   UNL     1      -1.355  -1.861   0.005  0.00  0.00    -0.267 OA
ATOM      4  C   UNL     1       0.002  -0.004   0.002  0.00  0.00    +0.080 A 
ATOM      5  C   UNL     1       1.333  -0.603  -0.014  0.00  0.00    +0.004 A 
ATOM      6  C   UNL     1       2.414   0.212  -0.020  0.00  0.00    +0.056 A 
ATOM      7  S   UNL     1       1.701   1.845  -0.004  0.00  0.00    -0.076 S 
ATOM      8  C   UNL     1      -0.017   1.401   0.010  0.00  0.00    +0.117 A 
ATOM      9  N   UNL     1      -1.152   2.090   0.029  0.00  0.00    -0.216 NA
ATOM     10  C   UNL     1      -2.317   1.474   0.033  0.00  0.00    +0.173 A 
ENDROOT
BRANCH   5  11
ATOM     11  C   UNL     1       1.498  -2.076  -0.024  0.00  0.00    -0.017 A 
ATOM     12  C   UNL     1       0.819  -2.862   0.906  0.00  0.00    +0.008 A 
ATOM     13  C   UNL     1       0.973  -4.234   0.888  0.00  0.00    +0.001 A 
ATOM     14  C   UNL     1       1.807  -4.827  -0.042  0.00  0.00    +0.000 A 
ATOM     15  C   UNL     1       2.488  -4.051  -0.963  0.00  0.00    +0.001 A 
ATOM     16  C   UNL     1       2.338  -2.680  -0.959  0.00  0.00    +0.008 A 
ENDBRANCH   5  11
BRANCH   1  17
ATOM     17  C   UNL     1      -3.700  -0.540   0.035  0.00  0.00    +0.154 C 
BRANCH  17  19
ATOM     18  C   UNL     1      -5.291  -0.312   1.874  0.00  0.00    +0.005 C 
ATOM     19  C   UNL     1      -4.136  -0.772   1.459  0.00  0.00    -0.013 C 
ENDBRANCH  17  19
ENDBRANCH   1  17
BRANCH  10  20
ATOM     20  S   UNL     1      -3.802   2.422   0.053  0.00  0.00    -0.078 S 
BRANCH  20  21
ATOM     21  C   UNL     1      -3.108   4.094   0.055  0.00  0.00    +0.173 C 
BRANCH  21  22
ATOM     22  C   UNL     1      -4.227   5.103   0.071  0.00  0.00    +0.233 C 
ATOM     23  O   UNL     1      -5.380   4.729   0.081  0.00  0.00    -0.274 OA
ATOM     24  N   UNL     1      -3.946   6.421   0.076  0.00  0.00    -0.224 N 
ATOM     25  C   UNL     1      -4.941   7.504   0.091  0.00  0.00    +0.136 C 
ATOM     26  C   UNL     1      -4.089   8.788   0.090  0.00  0.00    +0.125 C 
ATOM     27  N   UNL     1      -2.704   8.292   0.073  0.00  0.00    -0.297 N 
ATOM     28  C   UNL     1      -2.717   6.952   0.072  0.00  0.00    +0.309 C 
ATOM     29  O   UNL     1      -1.704   6.280   0.064  0.00  0.00    -0.252 OA
ATOM     30  H   UNL     1      -1.865   9.003   0.065  0.00  0.00    +0.150 HD
ENDBRANCH  21  22
ENDBRANCH  20  21
ENDBRANCH  10  20
TORSDOF 6
