REMARK  Name = ZINC13729550
REMARK  10 active torsions:
REMARK  status: ('A' for Active; 'I' for Inactive)
REMARK    1  A    between atoms: C_4  and  N_7
REMARK    2  A    between atoms: C_8  and  O_12
REMARK    3  A    between atoms: O_12  and  C_13
REMARK    4  A    between atoms: C_17  and  C_19
REMARK    5  A    between atoms: C_19  and  N_52
REMARK    6  A    between atoms: C_20  and  C_21
REMARK    7  A    between atoms: C_20  and  N_52
REMARK    8  A    between atoms: C_21  and  N_22
REMARK    9  A    between atoms: N_22  and  C_23
REMARK   10  A    between atoms: C_26  and  N_30
REMARK                            x       y       z     vdW  Elec       q    Type
REMARK                         _______ _______ _______ _____ _____    ______ ____
ROOT
ATOM      1  C   UNL     1       1.176   2.086   0.005  0.00  0.00    +0.132 A 
ATOM      2  C   UNL     1       0.005   1.378  -0.225  0.00  0.00    +0.046 A 
ATOM      3  C   UNL     1       0.023  -0.003  -0.229  0.00  0.00    +0.004 A 
ATOM      4  C   UNL     1       1.208  -0.680  -0.005  0.00  0.00    +0.002 A 
ATOM      5  C   UNL     1       2.376   0.022   0.224  0.00  0.00    -0.061 A 
ATOM      6  C   UNL     1       2.363   1.404   0.231  0.00  0.00    +0.048 A 
ENDROOT
BRANCH   1   7
ATOM      7  O   UNL     1       1.161   3.445   0.009  0.00  0.00    -0.423 OA
BRANCH   7   9
ATOM      8  N   UNL     1      -0.247   5.402  -0.184  0.00  0.00    -0.162 N 
ATOM      9  C   UNL     1      -0.039   4.067  -0.081  0.00  0.00    +0.347 A 
ATOM     10  N   UNL     1      -1.219   3.490  -0.090  0.00  0.00    -0.070 NA
ATOM     11  N   UNL     1      -2.150   4.370  -0.183  0.00  0.00    -0.019 NA
ATOM     12  N   UNL     1      -1.644   5.553  -0.248  0.00  0.00    -0.036 NA
BRANCH   8  16
ATOM     13  C   UNL     1       2.634   8.414  -0.288  0.00  0.00    +0.000 A 
ATOM     14  C   UNL     1       1.475   8.541  -1.032  0.00  0.00    +0.002 A 
ATOM     15  C   UNL     1       0.518   7.545  -1.000  0.00  0.00    +0.028 A 
ATOM     16  C   UNL     1       0.722   6.415  -0.220  0.00  0.00    +0.072 A 
ATOM     17  C   UNL     1       1.884   6.292   0.530  0.00  0.00    +0.028 A 
ATOM     18  C   UNL     1       2.839   7.289   0.489  0.00  0.00    +0.002 A 
ENDBRANCH   8  16
ENDBRANCH   7   9
ENDBRANCH   1   7
BRANCH   5  19
ATOM     19  C   UNL     1       3.665  -0.719   0.468  0.00  0.00    -0.047 C 
BRANCH  19  20
ATOM     20  N   UNL     1       4.342  -0.949  -0.822  0.00  0.00    +0.383 N 
ATOM     21  H   UNL     1       4.539  -0.045  -1.267  0.00  0.00    -0.085 HD
ATOM     22  H   UNL     1       3.731  -1.504  -1.431  0.00  0.00    -0.085 HD
BRANCH  20  23
ATOM     23  C   UNL     1       5.610  -1.675  -0.613  0.00  0.00    -0.063 C 
BRANCH  23  24
ATOM     24  C   UNL     1       6.288  -1.898  -1.966  0.00  0.00    +0.082 C 
BRANCH  24  25
ATOM     25  N   UNL     1       7.548  -2.618  -1.767  0.00  0.00    -0.345 N 
ATOM     26  H   UNL     1       7.826  -2.873  -0.873  0.00  0.00    +0.146 HD
BRANCH  25  27
ATOM     27  C   UNL     1       8.351  -2.939  -2.865  0.00  0.00    +0.046 A 
ATOM     28  C   UNL     1       7.955  -2.575  -4.146  0.00  0.00    +0.026 A 
ATOM     29  C   UNL     1       8.750  -2.894  -5.229  0.00  0.00    +0.034 A 
ATOM     30  C   UNL     1       9.940  -3.574  -5.041  0.00  0.00    +0.128 A 
ATOM     31  C   UNL     1      10.337  -3.938  -3.767  0.00  0.00    +0.054 A 
ATOM     32  C   UNL     1       9.549  -3.618  -2.678  0.00  0.00    +0.064 A 
ATOM     33 CL   UNL     1      10.053  -4.068  -1.079  0.00  0.00    -0.082 Cl
BRANCH  30  34
ATOM     34  N   UNL     1      10.789  -3.913  -6.204  0.00  0.00    +0.056 N 
ATOM     35  O   UNL     1      10.441  -3.593  -7.327  0.00  0.00    -0.126 OA
ATOM     36  O   UNL     1      11.837  -4.512  -6.040  0.00  0.00    -0.126 OA
ENDBRANCH  30  34
ENDBRANCH  25  27
ENDBRANCH  24  25
ENDBRANCH  23  24
ENDBRANCH  20  23
ENDBRANCH  19  20
ENDBRANCH   5  19
TORSDOF 10
