REMARK  Name = ZINC39929170
REMARK  11 active torsions:
REMARK  status: ('A' for Active; 'I' for Inactive)
REMARK    1  A    between atoms: C_1  and  C_2
REMARK    2  A    between atoms: C_5  and  O_37
REMARK    3  A    between atoms: C_7  and  C_35
REMARK    4  A    between atoms: C_7  and  C_36
REMARK    5  A    between atoms: C_12  and  C_34
REMARK    6  A    between atoms: C_20  and  C_31
REMARK    7  A    between atoms: C_20  and  C_32
REMARK    8  A    between atoms: C_22  and  O_30
REMARK    9  A    between atoms: C_24  and  C_29
REMARK   10  A    between atoms: C_27  and  C_28
REMARK   11  A    between atoms: C_32  and  O_33
REMARK                            x       y       z     vdW  Elec       q    Type
REMARK                         _______ _______ _______ _____ _____    ______ ____
ROOT
ATOM      1  C   UNL     1       2.368  -0.049   1.715  0.00  0.00    +0.012 C 
ATOM      2  C   UNL     1       1.958  -1.483   1.294  0.00  0.00    -0.022 C 
ATOM      3  C   UNL     1       0.562  -1.674   1.900  0.00  0.00    +0.010 C 
ATOM      4  C   UNL     1       0.166  -3.145   1.931  0.00  0.00    +0.032 C 
ATOM      5  C   UNL     1       1.152  -3.882   2.832  0.00  0.00    +0.120 C 
ATOM      6  C   UNL     1       2.546  -3.837   2.198  0.00  0.00    -0.006 C 
ATOM      7  C   UNL     1       2.984  -2.424   1.886  0.00  0.00    +0.004 C 
ATOM      8  C   UNL     1       4.309  -2.366   1.139  0.00  0.00    +0.005 C 
ATOM      9  C   UNL     1       4.186  -2.513  -0.368  0.00  0.00    +0.008 C 
ATOM     10  C   UNL     1       3.181  -1.536  -0.966  0.00  0.00    -0.016 C 
ATOM     11  C   UNL     1       1.855  -1.578  -0.220  0.00  0.00    +0.025 C 
ATOM     12  C   UNL     1       1.003  -0.440  -0.755  0.00  0.00    -0.022 C 
ATOM     13  C   UNL     1       0.873  -0.397  -2.088  0.00  0.00    +0.000 C 
ATOM     14  C   UNL     1       1.561  -1.447  -2.859  0.00  0.00    -0.041 C 
ATOM     15  C   UNL     1       0.941  -1.959  -3.932  0.00  0.00    -0.057 C 
ATOM     16  C   UNL     1      -0.401  -1.368  -4.255  0.00  0.00    +0.040 C 
ATOM     17  C   UNL     1      -1.154  -2.058  -5.361  0.00  0.00    -0.003 C 
ATOM     18  C   UNL     1      -0.802  -3.515  -5.519  0.00  0.00    +0.041 C 
ATOM     19  C   UNL     1       0.663  -3.787  -5.660  0.00  0.00    +0.125 C 
ATOM     20  C   UNL     1       1.587  -3.034  -4.727  0.00  0.00    +0.015 C 
ATOM     21  C   UNL     1       2.428  -3.978  -3.897  0.00  0.00    +0.014 C 
ATOM     22  C   UNL     1       3.072  -3.407  -2.647  0.00  0.00    +0.013 C 
ATOM     23  C   UNL     1       2.925  -1.912  -2.447  0.00  0.00    -0.001 C 
ATOM     24  C   UNL     1       4.001  -1.157  -3.243  0.00  0.00    +0.016 C 
ATOM     25  C   UNL     1       2.548  -2.345  -5.712  0.00  0.00    +0.018 C 
ATOM     26  C   UNL     1      -2.660  -1.944  -5.077  0.00  0.00    +0.014 C 
ATOM     27  C   UNL     1       3.792  -0.129  -0.991  0.00  0.00    +0.012 C 
ATOM     28  C   UNL     1       3.520  -4.442   3.234  0.00  0.00    +0.014 C 
ATOM     29  C   UNL     1       2.553  -4.763   0.981  0.00  0.00    +0.014 C 
ENDROOT
BRANCH  19  30
ATOM     30  O   UNL     1       0.895  -5.189  -5.501  0.00  0.00    -0.391 OA
ATOM     31  H   UNL     1       0.435  -5.740  -6.149  0.00  0.00    +0.210 HD
ENDBRANCH  19  30
BRANCH   5  32
ATOM     32  O   UNL     1       0.743  -5.245   2.979  0.00  0.00    -0.391 OA
ATOM     33  H   UNL     1      -0.134  -5.352   3.371  0.00  0.00    +0.210 HD
ENDBRANCH   5  32
BRANCH  17  34
ATOM     34  C   UNL     1      -0.877  -1.327  -6.682  0.00  0.00    +0.162 C 
BRANCH  34  35
ATOM     35  O   UNL     1      -1.588  -1.972  -7.741  0.00  0.00    -0.394 OA
ATOM     36  H   UNL     1      -1.459  -1.563  -8.608  0.00  0.00    +0.209 HD
ENDBRANCH  34  35
ENDBRANCH  17  34
TORSDOF 4
