REMARK  Name = ZINC36346570
REMARK  17 active torsions:
REMARK  status: ('A' for Active; 'I' for Inactive)
REMARK    1  A    between atoms: C_1  and  C_2
REMARK    2  A    between atoms: C_3  and  C_22
REMARK    3  A    between atoms: C_4  and  O_14
REMARK    4  A    between atoms: N_5  and  C_7
REMARK    5  A    between atoms: O_14  and  C_15
REMARK    6  A    between atoms: C_22  and  N_23
REMARK    7  A    between atoms: N_23  and  C_24
REMARK    8  A    between atoms: N_23  and  C_28
REMARK    9  A    between atoms: C_24  and  C_25
REMARK   10  A    between atoms: C_25  and  O_26
REMARK   11  A    between atoms: O_26  and  C_27
REMARK   12  A    between atoms: C_28  and  C_29
REMARK   13  A    between atoms: C_29  and  C_31
REMARK   14  A    between atoms: C_29  and  O_36
REMARK   15  A    between atoms: C_31  and  O_32
REMARK   16  A    between atoms: O_32  and  C_33
REMARK   17  A    between atoms: C_33  and  C_34
REMARK                            x       y       z     vdW  Elec       q    Type
REMARK                         _______ _______ _______ _____ _____    ______ ____
ROOT
ATOM      1  C   UNL     1       0.365   2.186   0.382  0.00  0.00    +0.068 C 
ATOM      2  C   UNL     1       0.659   0.709   0.442  0.00  0.00    +0.065 A 
ATOM      3  C   UNL     1       0.609  -0.179  -0.637  0.00  0.00    +0.021 A 
ATOM      4  C   UNL     1       0.939  -1.415  -0.176  0.00  0.00    +0.225 A 
ATOM      5  N   UNL     1       1.187  -1.302   1.156  0.00  0.00    -0.200 N 
ATOM      6  N   UNL     1       1.009   0.041   1.512  0.00  0.00    -0.168 NA
ENDROOT
BRANCH   5   7
ATOM      7  C   UNL     1       1.561  -2.342   2.019  0.00  0.00    +0.069 A 
ATOM      8  C   UNL     1       0.943  -3.582   1.922  0.00  0.00    +0.031 A 
ATOM      9  C   UNL     1       1.312  -4.605   2.772  0.00  0.00    +0.040 A 
ATOM     10  C   UNL     1       2.299  -4.396   3.722  0.00  0.00    +0.124 A 
ATOM     11  C   UNL     1       2.916  -3.160   3.820  0.00  0.00    +0.040 A 
ATOM     12  C   UNL     1       2.554  -2.136   2.968  0.00  0.00    +0.031 A 
ATOM     13  F   UNL     1       2.658  -5.398   4.553  0.00  0.00    -0.205 F 
ENDBRANCH   5   7
BRANCH   4  14
ATOM     14  O   UNL     1       1.006  -2.555  -0.911  0.00  0.00    -0.435 OA
BRANCH  14  15
ATOM     15  C   UNL     1      -0.138  -3.265  -1.093  0.00  0.00    +0.165 A 
ATOM     16  C   UNL     1      -1.347  -2.768  -0.628  0.00  0.00    +0.049 A 
ATOM     17  C   UNL     1      -2.509  -3.492  -0.815  0.00  0.00    +0.004 A 
ATOM     18  C   UNL     1      -2.469  -4.711  -1.466  0.00  0.00    +0.003 A 
ATOM     19  C   UNL     1      -1.266  -5.210  -1.931  0.00  0.00    +0.042 A 
ATOM     20  C   UNL     1      -0.101  -4.488  -1.752  0.00  0.00    +0.165 A 
ATOM     21  F   UNL     1       1.073  -4.973  -2.212  0.00  0.00    -0.202 F 
ENDBRANCH  14  15
ENDBRANCH   4  14
BRANCH   3  22
ATOM     22  C   UNL     1       0.253   0.171  -2.058  0.00  0.00    -0.036 C 
BRANCH  22  23
ATOM     23  N   UNL     1       1.471   0.540  -2.792  0.00  0.00    +0.386 N 
ATOM     24  H   UNL     1       1.947   1.282  -2.302  0.00  0.00    -0.081 HD
BRANCH  23  25
ATOM     25  C   UNL     1       2.356  -0.629  -2.890  0.00  0.00    -0.050 C 
BRANCH  25  26
ATOM     26  C   UNL     1       3.685  -0.210  -3.522  0.00  0.00    +0.141 C 
BRANCH  26  27
ATOM     27  O   UNL     1       4.345   0.725  -2.668  0.00  0.00    -0.385 OA
ATOM     28  C   UNL     1       5.603   1.182  -3.168  0.00  0.00    +0.193 C 
ENDBRANCH  26  27
ENDBRANCH  25  26
ENDBRANCH  23  25
BRANCH  23  29
ATOM     29  C   UNL     1       1.111   0.996  -4.141  0.00  0.00    -0.044 C 
BRANCH  29  30
ATOM     30  C   UNL     1       0.313   2.298  -4.044  0.00  0.00    +0.124 C 
BRANCH  30  31
ATOM     31  O   UNL     1       1.119   3.305  -3.428  0.00  0.00    -0.391 OA
ATOM     32  H   UNL     1       1.895   3.559  -3.947  0.00  0.00    +0.210 HD
ENDBRANCH  30  31
BRANCH  30  33
ATOM     33  C   UNL     1      -0.091   2.755  -5.447  0.00  0.00    +0.189 C 
BRANCH  33  34
ATOM     34  O   UNL     1      -0.933   3.905  -5.349  0.00  0.00    -0.373 OA
BRANCH  34  35
ATOM     35  C   UNL     1      -1.370   4.415  -6.611  0.00  0.00    +0.186 C 
BRANCH  35  36
ATOM     36  C   UNL     1      -2.246   5.620  -6.389  0.00  0.00    -0.007 C 
ATOM     37  C   UNL     1      -2.077   6.696  -7.117  0.00  0.00    +0.006 C 
ENDBRANCH  35  36
ENDBRANCH  34  35
ENDBRANCH  33  34
ENDBRANCH  30  33
ENDBRANCH  29  30
ENDBRANCH  23  29
ENDBRANCH  22  23
ENDBRANCH   3  22
TORSDOF 15
