REMARK  Name = ZINC43735786
REMARK  15 active torsions:
REMARK  status: ('A' for Active; 'I' for Inactive)
REMARK    1  A    between atoms: C_1  and  C_2
REMARK    2  A    between atoms: C_19  and  C_21
REMARK    3  A    between atoms: C_21  and  N_22
REMARK    4  A    between atoms: N_22  and  C_23
REMARK    5  A    between atoms: N_22  and  C_24
REMARK    6  A    between atoms: C_24  and  C_25
REMARK    7  A    between atoms: C_25  and  C_27
REMARK    8  A    between atoms: C_25  and  O_38
REMARK    9  A    between atoms: C_27  and  C_29
REMARK   10  A    between atoms: C_27  and  O_37
REMARK   11  A    between atoms: C_29  and  C_31
REMARK   12  A    between atoms: C_29  and  O_36
REMARK   13  A    between atoms: C_31  and  C_33
REMARK   14  A    between atoms: C_31  and  O_35
REMARK   15  A    between atoms: C_33  and  O_34
REMARK                            x       y       z     vdW  Elec       q    Type
REMARK                         _______ _______ _______ _____ _____    ______ ____
ROOT
ATOM      1  N   UNL     1      -0.548  -1.882   4.985  0.00  0.00    +0.380 N 
ATOM      2  C   UNL     1       0.473  -2.783   4.434  0.00  0.00    -0.096 C 
ATOM      3  H   UNL     1      -0.179  -0.944   5.030  0.00  0.00    -0.082 HD
ENDROOT
BRANCH   1   4
ATOM      4  C   UNL     1      -1.736  -1.901   4.122  0.00  0.00    -0.064 C 
BRANCH   4  20
ATOM      5  C   UNL     1       0.625   2.341   0.869  0.00  0.00    +0.012 C 
ATOM      6  C   UNL     1       0.538   0.851   0.530  0.00  0.00    -0.022 C 
ATOM      7  C   UNL     1       1.312   0.572  -0.757  0.00  0.00    +0.007 C 
ATOM      8  C   UNL     1       2.757   1.052  -0.604  0.00  0.00    +0.005 C 
ATOM      9  C   UNL     1       3.449   0.254   0.505  0.00  0.00    +0.030 C 
ATOM     10  C   UNL     1       2.617   0.353   1.766  0.00  0.00    -0.073 C 
ATOM     11  C   UNL     1       3.159   0.712   2.904  0.00  0.00    +0.008 C 
ATOM     12  C   UNL     1       1.145   0.026   1.675  0.00  0.00    +0.021 C 
ATOM     13  C   UNL     1       0.448   0.446   2.969  0.00  0.00    +0.016 C 
ATOM     14  C   UNL     1      -1.038   0.197   2.900  0.00  0.00    +0.042 C 
ATOM     15  C   UNL     1      -1.712   0.774   1.640  0.00  0.00    +0.181 C 
ATOM     16  C   UNL     1      -0.925   0.445   0.380  0.00  0.00    +0.052 C 
ATOM     17  O   UNL     1      -2.933  -0.016   1.584  0.00  0.00    -0.461 OA
ATOM     18  C   UNL     1      -2.603  -1.296   1.861  0.00  0.00    +0.309 C 
ATOM     19  O   UNL     1      -3.179  -2.276   1.452  0.00  0.00    -0.251 OA
ATOM     20  C   UNL     1      -1.386  -1.298   2.760  0.00  0.00    +0.088 C 
ENDBRANCH   4  20
ENDBRANCH   1   4
BRANCH   1  21
ATOM     21  C   UNL     1      -0.917  -2.327   6.336  0.00  0.00    -0.045 C 
BRANCH  21  22
ATOM     22  C   UNL     1       0.290  -2.189   7.266  0.00  0.00    +0.129 C 
BRANCH  22  23
ATOM     23  O   UNL     1       0.630  -0.808   7.403  0.00  0.00    -0.391 OA
ATOM     24  H   UNL     1      -0.079  -0.263   7.772  0.00  0.00    +0.210 HD
ENDBRANCH  22  23
BRANCH  22  25
ATOM     25  C   UNL     1      -0.056  -2.768   8.639  0.00  0.00    +0.172 C 
BRANCH  25  26
ATOM     26  O   UNL     1      -1.236  -2.136   9.139  0.00  0.00    -0.387 OA
ATOM     27  H   UNL     1      -1.155  -1.178   9.246  0.00  0.00    +0.210 HD
ENDBRANCH  25  26
BRANCH  25  28
ATOM     28  C   UNL     1       1.104  -2.518   9.605  0.00  0.00    +0.176 C 
BRANCH  28  29
ATOM     29  O   UNL     1       2.284  -3.150   9.105  0.00  0.00    -0.387 OA
ATOM     30  H   UNL     1       2.203  -4.107   8.999  0.00  0.00    +0.210 HD
ENDBRANCH  28  29
BRANCH  28  31
ATOM     31  C   UNL     1       0.758  -3.097  10.978  0.00  0.00    +0.171 C 
BRANCH  31  32
ATOM     32  O   UNL     1      -0.422  -2.465  11.478  0.00  0.00    -0.387 OA
ATOM     33  H   UNL     1      -0.340  -1.507  11.585  0.00  0.00    +0.210 HD
ENDBRANCH  31  32
BRANCH  31  34
ATOM     34  C   UNL     1       1.919  -2.847  11.944  0.00  0.00    +0.189 C 
BRANCH  34  35
ATOM     35  O   UNL     1       1.646  -3.488  13.192  0.00  0.00    -0.392 OA
ATOM     36  H   UNL     1       2.341  -3.371  13.854  0.00  0.00    +0.210 HD
ENDBRANCH  34  35
ENDBRANCH  31  34
ENDBRANCH  28  31
ENDBRANCH  25  28
ENDBRANCH  22  25
ENDBRANCH  21  22
ENDBRANCH   1  21
TORSDOF 13
