REMARK  Name = ZINC12935137
REMARK  8 active torsions:
REMARK  status: ('A' for Active; 'I' for Inactive)
REMARK    1  A    between atoms: C_1  and  C_2
REMARK    2  A    between atoms: C_2  and  C_3
REMARK    3  A    between atoms: C_4  and  C_9
REMARK    4  A    between atoms: C_5  and  C_8
REMARK    5  A    between atoms: N_11  and  N_12
REMARK    6  A    between atoms: C_13  and  C_15
REMARK    7  A    between atoms: C_15  and  O_16
REMARK    8  A    between atoms: O_16  and  C_17
REMARK                            x       y       z     vdW  Elec       q    Type
REMARK                         _______ _______ _______ _____ _____    ______ ____
ROOT
ATOM      1  N   UNL     1      -3.529  -1.563  -3.026  0.00  0.00    -0.231 N 
ATOM      2  C   UNL     1      -4.362  -2.608  -2.852  0.00  0.00    +0.267 C 
ATOM      3  O   UNL     1      -3.937  -3.657  -2.415  0.00  0.00    -0.271 OA
ATOM      4  H   UNL     1      -3.869  -0.725  -3.375  0.00  0.00    +0.173 HD
ENDROOT
BRANCH   1   7
ATOM      5  C   UNL     1      -1.338  -0.644  -2.875  0.00  0.00    +0.265 C 
ATOM      6  O   UNL     1      -1.764   0.408  -3.313  0.00  0.00    -0.268 OA
ATOM      7  N   UNL     1      -2.171  -1.689  -2.701  0.00  0.00    -0.230 N 
ATOM      8  H   UNL     1      -1.832  -2.527  -2.352  0.00  0.00    +0.173 HD
BRANCH   5  10
ATOM      9  C   UNL     1       0.707  -0.490  -1.238  0.00  0.00    +0.096 A 
ATOM     10  C   UNL     1       0.090  -0.775  -2.534  0.00  0.00    +0.103 A 
ATOM     11  C   UNL     1       1.091  -1.188  -3.366  0.00  0.00    +0.147 A 
ATOM     12  O   UNL     1       2.235  -1.170  -2.678  0.00  0.00    -0.359 OA
ATOM     13  N   UNL     1       1.980  -0.729  -1.359  0.00  0.00    -0.082 NA
ATOM     14  C   UNL     1       0.932  -1.593  -4.809  0.00  0.00    +0.090 C 
BRANCH   9  16
ATOM     15  C   UNL     1      -0.019   1.526   0.010  0.00  0.00    +0.010 C 
ATOM     16  C   UNL     1       0.002  -0.004   0.002  0.00  0.00    +0.056 C 
ENDBRANCH   9  16
ENDBRANCH   5  10
ENDBRANCH   1   7
BRANCH   2  17
ATOM     17  C   UNL     1      -5.822  -2.473  -3.201  0.00  0.00    +0.326 C 
BRANCH  17  18
ATOM     18  O   UNL     1      -6.492  -3.706  -2.931  0.00  0.00    -0.483 OA
BRANCH  18  19
ATOM     19  C   UNL     1      -7.825  -3.754  -3.192  0.00  0.00    +0.121 A 
ATOM     20  C   UNL     1      -8.473  -2.640  -3.704  0.00  0.00    +0.047 A 
ATOM     21  C   UNL     1      -9.828  -2.691  -3.969  0.00  0.00    +0.019 A 
ATOM     22  C   UNL     1     -10.538  -3.852  -3.724  0.00  0.00    +0.018 A 
ATOM     23  C   UNL     1      -9.894  -4.965  -3.214  0.00  0.00    +0.019 A 
ATOM     24  C   UNL     1      -8.538  -4.920  -2.953  0.00  0.00    +0.047 A 
ATOM     25 BR   UNL     1     -12.393  -3.919  -4.088  0.00  0.00    -0.050 Br
ENDBRANCH  18  19
ENDBRANCH  17  18
ENDBRANCH   2  17
TORSDOF 6
