REMARK  Name = ZINC09840572
REMARK  11 active torsions:
REMARK  status: ('A' for Active; 'I' for Inactive)
REMARK    1  A    between atoms: C_1  and  C_2
REMARK    2  A    between atoms: C_2  and  C_4
REMARK    3  A    between atoms: C_2  and  S_10
REMARK    4  A    between atoms: S_10  and  C_11
REMARK    5  A    between atoms: C_14  and  C_21
REMARK    6  A    between atoms: N_15  and  C_16
REMARK    7  A    between atoms: C_16  and  C_17
REMARK    8  A    between atoms: C_17  and  C_18
REMARK    9  A    between atoms: C_18  and  C_19
REMARK   10  A    between atoms: C_18  and  C_20
REMARK   11  A    between atoms: C_23  and  C_31
REMARK                            x       y       z     vdW  Elec       q    Type
REMARK                         _______ _______ _______ _____ _____    ______ ____
ROOT
ATOM      1  C   UNL     1      -2.358  -0.109  -1.534  0.00  0.00    +0.193 A 
ATOM      2  N   UNL     1      -1.738   0.616  -2.441  0.00  0.00    -0.122 NA
ATOM      3  N   UNL     1      -2.522   0.847  -3.433  0.00  0.00    -0.128 NA
ATOM      4  C   UNL     1      -3.691   0.285  -3.219  0.00  0.00    +0.166 A 
ATOM      5  N   UNL     1      -3.618  -0.348  -1.999  0.00  0.00    -0.302 N 
ENDROOT
BRANCH   4   6
ATOM      6  C   UNL     1      -4.859   0.322  -4.119  0.00  0.00    +0.030 A 
ATOM      7  C   UNL     1      -5.562  -0.835  -4.439  0.00  0.00    +0.040 A 
ATOM      8  C   UNL     1      -6.663  -0.753  -5.297  0.00  0.00    +0.072 A 
ATOM      9  N   UNL     1      -7.066   0.388  -5.821  0.00  0.00    -0.247 NA
ATOM     10  C   UNL     1      -6.451   1.547  -5.569  0.00  0.00    +0.072 A 
ATOM     11  C   UNL     1      -5.328   1.579  -4.707  0.00  0.00    +0.011 A 
ATOM     12  C   UNL     1      -4.689   2.794  -4.440  0.00  0.00    +0.011 A 
ATOM     13  C   UNL     1      -5.160   3.941  -5.009  0.00  0.00    +0.001 A 
ATOM     14  C   UNL     1      -6.268   3.917  -5.852  0.00  0.00    +0.002 A 
ATOM     15  C   UNL     1      -6.904   2.748  -6.143  0.00  0.00    +0.028 A 
BRANCH   8  16
ATOM     16  C   UNL     1      -7.404  -1.994  -5.630  0.00  0.00    +0.000 A 
ATOM     17  C   UNL     1      -7.005  -3.214  -5.087  0.00  0.00    +0.010 A 
ATOM     18  C   UNL     1      -7.698  -4.365  -5.401  0.00  0.00    +0.001 A 
ATOM     19  C   UNL     1      -8.787  -4.310  -6.252  0.00  0.00    +0.000 A 
ATOM     20  C   UNL     1      -9.188  -3.102  -6.794  0.00  0.00    +0.001 A 
ATOM     21  C   UNL     1      -8.506  -1.944  -6.482  0.00  0.00    +0.010 A 
ENDBRANCH   8  16
ENDBRANCH   4   6
BRANCH   1  22
ATOM     22  S   UNL     1      -1.684  -0.672  -0.006  0.00  0.00    -0.074 S 
BRANCH  22  24
ATOM     23  C   UNL     1      -0.040   1.514   0.039  0.00  0.00    +0.029 C 
ATOM     24  C   UNL     1       0.007  -0.015  -0.005  0.00  0.00    +0.137 C 
BRANCH  24  25
ATOM     25  C   UNL     1       0.745  -0.529   1.204  0.00  0.00    +0.233 C 
ATOM     26  O   UNL     1       0.127  -0.950   2.158  0.00  0.00    -0.274 OA
ATOM     27  N   UNL     1       2.093  -0.522   1.225  0.00  0.00    -0.239 N 
ATOM     28  C   UNL     1       2.752  -0.982   2.306  0.00  0.00    +0.303 C 
ATOM     29  O   UNL     1       2.132  -1.404   3.263  0.00  0.00    -0.253 OA
ATOM     30  N   UNL     1       4.100  -0.975   2.327  0.00  0.00    -0.313 N 
ATOM     31  H   UNL     1       2.588  -0.185   0.462  0.00  0.00    +0.159 HD
ATOM     32  H   UNL     1       4.595  -0.639   1.563  0.00  0.00    +0.146 HD
ATOM     33  H   UNL     1       4.575  -1.306   3.105  0.00  0.00    +0.146 HD
ENDBRANCH  24  25
ENDBRANCH  22  24
ENDBRANCH   1  22
BRANCH   5  34
ATOM     34  C   UNL     1      -4.675  -1.117  -1.336  0.00  0.00    +0.126 C 
BRANCH  34  35
ATOM     35  C   UNL     1      -5.586  -0.165  -0.558  0.00  0.00    +0.024 C 
BRANCH  35  36
ATOM     36  C   UNL     1      -6.690  -0.967   0.134  0.00  0.00    -0.016 C 
ATOM     37  C   UNL     1      -6.068  -1.885   1.189  0.00  0.00    +0.007 C 
ATOM     38  C   UNL     1      -7.672  -0.007   0.808  0.00  0.00    +0.007 C 
ENDBRANCH  35  36
ENDBRANCH  34  35
ENDBRANCH   5  34
TORSDOF 8
