REMARK  Name = ZINC09668419
REMARK  4 active torsions:
REMARK  status: ('A' for Active; 'I' for Inactive)
REMARK    1  A    between atoms: C_7  and  C_18
REMARK    2  A    between atoms: C_8  and  C_11
REMARK    3  A    between atoms: N_28  and  C_29
REMARK    4  A    between atoms: C_29  and  C_30
REMARK                            x       y       z     vdW  Elec       q    Type
REMARK                         _______ _______ _______ _____ _____    ______ ____
ROOT
ATOM      1  C   UNL     1       1.736  -6.715   0.357  0.00  0.00    +0.001 A 
ATOM      2  C   UNL     1       0.745  -6.684  -0.614  0.00  0.00    +0.002 A 
ATOM      3  C   UNL     1       0.249  -5.484  -1.075  0.00  0.00    +0.026 A 
ATOM      4  C   UNL     1       0.744  -4.289  -0.563  0.00  0.00    +0.047 A 
ATOM      5  C   UNL     1       1.749  -4.326   0.423  0.00  0.00    +0.006 A 
ATOM      6  C   UNL     1       2.238  -5.555   0.875  0.00  0.00    +0.010 A 
ATOM      7  C   UNL     1       2.056  -2.933   0.747  0.00  0.00    +0.010 A 
ATOM      8  C   UNL     1       1.248  -2.161  -0.021  0.00  0.00    +0.053 A 
ATOM      9  N   UNL     1       0.460  -2.965  -0.812  0.00  0.00    -0.354 N 
ATOM     10  H   UNL     1      -0.198  -2.646  -1.450  0.00  0.00    +0.166 HD
ENDROOT
BRANCH   7  11
ATOM     11  C   UNL     1       3.075  -2.448   1.746  0.00  0.00    +0.141 C 
ATOM     12  C   UNL     1       2.594  -2.721   3.150  0.00  0.00    -0.010 A 
ATOM     13  C   UNL     1       1.495  -2.308   3.866  0.00  0.00    +0.006 A 
ATOM     14  C   UNL     1       1.320  -2.736   5.172  0.00  0.00    +0.000 A 
ATOM     15  C   UNL     1       2.248  -3.579   5.758  0.00  0.00    +0.001 A 
ATOM     16  C   UNL     1       3.354  -3.999   5.048  0.00  0.00    +0.013 A 
ATOM     17  C   UNL     1       3.537  -3.571   3.732  0.00  0.00    +0.042 A 
ATOM     18  C   UNL     1       4.593  -3.841   2.737  0.00  0.00    +0.248 C 
ATOM     19  O   UNL     1       5.564  -4.547   2.929  0.00  0.00    -0.270 OA
ATOM     20  N   UNL     1       4.329  -3.193   1.589  0.00  0.00    -0.279 N 
BRANCH  20  21
ATOM     21  C   UNL     1       5.156  -3.227   0.381  0.00  0.00    +0.183 C 
BRANCH  21  22
ATOM     22  C   UNL     1       6.168  -2.111   0.434  0.00  0.00    +0.122 A 
ATOM     23  C   UNL     1       7.400  -2.191   0.968  0.00  0.00    +0.046 A 
ATOM     24  C   UNL     1       8.002  -0.923   0.799  0.00  0.00    +0.041 A 
ATOM     25  C   UNL     1       7.099  -0.142   0.180  0.00  0.00    +0.195 A 
ATOM     26  O   UNL     1       5.990  -0.867  -0.039  0.00  0.00    -0.466 OA
ENDBRANCH  21  22
ENDBRANCH  20  21
ENDBRANCH   7  11
BRANCH   8  27
ATOM     27  C   UNL     1       1.221  -0.683  -0.013  0.00  0.00    -0.001 A 
ATOM     28  C   UNL     1       0.002  -0.004   0.002  0.00  0.00    +0.013 A 
ATOM     29  C   UNL     1      -0.017   1.375   0.010  0.00  0.00    +0.039 A 
ATOM     30  C   UNL     1       1.173   2.087   0.002  0.00  0.00    +0.123 A 
ATOM     31  C   UNL     1       2.386   1.417  -0.013  0.00  0.00    +0.039 A 
ATOM     32  C   UNL     1       2.416   0.039  -0.021  0.00  0.00    +0.013 A 
ATOM     33  F   UNL     1       1.149   3.437   0.009  0.00  0.00    -0.205 F 
ENDBRANCH   8  27
TORSDOF 4
