REMARK  Name = ZINC17211571
REMARK  11 active torsions:
REMARK  status: ('A' for Active; 'I' for Inactive)
REMARK    1  A    between atoms: C_1  and  C_2
REMARK    2  A    between atoms: C_3  and  N_9
REMARK    3  A    between atoms: C_10  and  C_12
REMARK    4  A    between atoms: C_12  and  C_15
REMARK    5  A    between atoms: N_13  and  O_14
REMARK    6  A    between atoms: C_15  and  C_17
REMARK    7  A    between atoms: C_15  and  C_30
REMARK    8  A    between atoms: C_17  and  C_18
REMARK    9  A    between atoms: C_19  and  O_29
REMARK   10  A    between atoms: C_30  and  O_32
REMARK   11  A    between atoms: O_32  and  C_33
REMARK                            x       y       z     vdW  Elec       q    Type
REMARK                         _______ _______ _______ _____ _____    ______ ____
ROOT
ATOM      1  C   UNL     1      -1.200   6.583   0.241  0.00  0.00    +0.161 C 
ENDROOT
BRANCH   1   2
ATOM      2  C   UNL     1       0.061   5.777   0.063  0.00  0.00    +0.156 C 
ATOM      3  N   UNL     1       0.369   4.860   0.921  0.00  0.00    -0.086 NA
BRANCH   2   5
ATOM      4  N   UNL     1       2.071   5.313  -1.250  0.00  0.00    -0.280 N 
ATOM      5  C   UNL     1       0.944   6.034  -1.091  0.00  0.00    +0.266 C 
ATOM      6  O   UNL     1       0.654   6.896  -1.898  0.00  0.00    -0.268 OA
ATOM      7  H   UNL     1       2.263   4.574  -0.652  0.00  0.00    +0.155 HD
BRANCH   4  10
ATOM      8  C   UNL     1       3.787   3.260  -2.220  0.00  0.00    +0.047 C 
ATOM      9  C   UNL     1       3.820   4.659  -2.781  0.00  0.00    -0.011 A 
ATOM     10  C   UNL     1       2.964   5.630  -2.278  0.00  0.00    +0.038 A 
ATOM     11  C   UNL     1       2.997   6.918  -2.799  0.00  0.00    +0.023 A 
ATOM     12  C   UNL     1       3.880   7.228  -3.815  0.00  0.00    +0.003 A 
ATOM     13  C   UNL     1       4.731   6.259  -4.314  0.00  0.00    +0.020 A 
ATOM     14  C   UNL     1       4.701   4.975  -3.798  0.00  0.00    +0.046 A 
ATOM     15 CL   UNL     1       5.771   3.762  -4.428  0.00  0.00    -0.083 Cl
ENDBRANCH   4  10
ENDBRANCH   2   5
BRANCH   3  16
ATOM     16  O   UNL     1      -0.529   4.540   1.967  0.00  0.00    -0.409 OA
ATOM     17  H   UNL     1      -0.212   3.843   2.558  0.00  0.00    +0.328 HD
ENDBRANCH   3  16
ENDBRANCH   1   2
BRANCH   1  18
ATOM     18  C   UNL     1      -2.057   6.454  -0.992  0.00  0.00    +0.316 C 
ATOM     19  O   UNL     1      -1.683   5.777  -1.920  0.00  0.00    -0.250 OA
BRANCH  18  20
ATOM     20  O   UNL     1      -3.236   7.092  -1.058  0.00  0.00    -0.467 OA
ATOM     21  C   UNL     1      -4.009   6.922  -2.276  0.00  0.00    +0.280 C 
ENDBRANCH  18  20
ENDBRANCH   1  18
BRANCH   1  22
ATOM     22  C   UNL     1      -0.838   8.054   0.459  0.00  0.00    +0.082 C 
BRANCH  22  23
ATOM     23  C   UNL     1      -2.085   8.834   0.787  0.00  0.00    +0.104 A 
ATOM     24  C   UNL     1      -2.486   8.975   2.125  0.00  0.00    +0.235 A 
ATOM     25  N   UNL     1      -3.572   9.655   2.431  0.00  0.00    -0.210 NA
ATOM     26  C   UNL     1      -4.300  10.214   1.456  0.00  0.00    +0.094 A 
ATOM     27  C   UNL     1      -5.463  10.945   1.750  0.00  0.00    +0.050 A 
ATOM     28  C   UNL     1      -6.184  11.504   0.738  0.00  0.00    +0.043 A 
ATOM     29  C   UNL     1      -5.783  11.361  -0.590  0.00  0.00    +0.022 A 
ATOM     30  C   UNL     1      -4.662  10.660  -0.911  0.00  0.00    +0.031 A 
ATOM     31  C   UNL     1      -3.893  10.070   0.107  0.00  0.00    +0.090 A 
ATOM     32  N   UNL     1      -2.783   9.380  -0.180  0.00  0.00    -0.245 NA
ATOM     33 CL   UNL     1      -7.620  12.406   1.107  0.00  0.00    -0.083 Cl
BRANCH  24  34
ATOM     34  O   UNL     1      -1.748   8.408   3.111  0.00  0.00    -0.491 OA
ATOM     35  H   UNL     1      -1.054   8.982   3.463  0.00  0.00    +0.294 HD
ENDBRANCH  24  34
ENDBRANCH  22  23
ENDBRANCH   1  22
TORSDOF 9
