REMARK  Name = ZINC11866405
REMARK  9 active torsions:
REMARK  status: ('A' for Active; 'I' for Inactive)
REMARK    1  A    between atoms: C_1  and  O_2
REMARK    2  A    between atoms: O_2  and  C_3
REMARK    3  A    between atoms: C_6  and  C_9
REMARK    4  A    between atoms: C_14  and  C_15
REMARK    5  A    between atoms: C_18  and  O_22
REMARK    6  A    between atoms: C_20  and  O_21
REMARK    7  A    between atoms: O_22  and  C_23
REMARK    8  A    between atoms: C_23  and  C_24
REMARK    9  A    between atoms: C_24  and  N_67
REMARK                            x       y       z     vdW  Elec       q    Type
REMARK                         _______ _______ _______ _____ _____    ______ ____
ROOT
ATOM      1  C   UNL     1       1.268   4.415  -0.337  0.00  0.00    +0.044 A 
ATOM      2  C   UNL     1       0.537   5.596  -0.448  0.00  0.00    +0.017 A 
ATOM      3  C   UNL     1       1.190   6.797  -0.623  0.00  0.00    +0.046 A 
ATOM      4  C   UNL     1       2.577   6.833  -0.701  0.00  0.00    +0.124 A 
ATOM      5  C   UNL     1       3.312   5.662  -0.596  0.00  0.00    +0.091 A 
ATOM      6  C   UNL     1       2.664   4.452  -0.415  0.00  0.00    +0.130 A 
ENDROOT
BRANCH   1  12
ATOM      7  C   UNL     1      -0.466   2.865   0.791  0.00  0.00    +0.027 A 
ATOM      8  C   UNL     1      -0.837   1.562   0.643  0.00  0.00    +0.114 A 
ATOM      9  N   UNL     1      -0.070   1.022  -0.328  0.00  0.00    -0.284 N 
ATOM     10  H   UNL     1      -0.115   0.076  -0.650  0.00  0.00    +0.188 HD
ATOM     11  N   UNL     1       0.797   2.011  -0.808  0.00  0.00    -0.173 NA
ATOM     12  C   UNL     1       0.569   3.122  -0.143  0.00  0.00    +0.104 A 
BRANCH   7  16
ATOM     13  C   UNL     1      -2.122   5.652   3.545  0.00  0.00    +0.120 A 
ATOM     14  C   UNL     1      -2.949   4.989   2.649  0.00  0.00    +0.046 A 
ATOM     15  C   UNL     1      -2.415   4.085   1.755  0.00  0.00    +0.012 A 
ATOM     16  C   UNL     1      -1.043   3.837   1.752  0.00  0.00    -0.014 A 
ATOM     17  C   UNL     1      -0.216   4.501   2.656  0.00  0.00    +0.012 A 
ATOM     18  C   UNL     1      -0.756   5.408   3.544  0.00  0.00    +0.046 A 
BRANCH  13  20
ATOM     19  C   UNL     1      -1.743   7.189   5.319  0.00  0.00    +0.277 C 
ATOM     20  O   UNL     1      -2.651   6.542   4.425  0.00  0.00    -0.495 OA
ENDBRANCH  13  20
ENDBRANCH   7  16
ENDBRANCH   1  12
BRANCH   6  21
ATOM     21  O   UNL     1       3.383   3.304  -0.313  0.00  0.00    -0.506 OA
ATOM     22  H   UNL     1       3.545   2.865  -1.159  0.00  0.00    +0.292 HD
ENDBRANCH   6  21
BRANCH   4  23
ATOM     23  O   UNL     1       3.214   8.020  -0.879  0.00  0.00    -0.494 OA
BRANCH  23  24
ATOM     24  C   UNL     1       2.397   9.188  -0.979  0.00  0.00    +0.210 C 
BRANCH  24  25
ATOM     25  C   UNL     1       3.285  10.417  -1.176  0.00  0.00    -0.037 C 
BRANCH  25  39
ATOM     26  C   UNL     1       5.017  11.348  -2.586  0.00  0.00    -0.073 C 
ATOM     27  C   UNL     1       5.778  11.208  -3.896  0.00  0.00    -0.007 C 
ATOM     28  C   UNL     1       4.817  11.235  -5.088  0.00  0.00    +0.011 C 
ATOM     29  C   UNL     1       3.797  10.109  -4.886  0.00  0.00    +0.020 C 
ATOM     30  C   UNL     1       3.027  10.392  -3.585  0.00  0.00    -0.069 C 
ATOM     31  C   UNL     1       4.533   8.800  -4.703  0.00  0.00    +0.023 A 
ATOM     32  C   UNL     1       3.898   7.663  -5.093  0.00  0.00    +0.022 A 
ATOM     33  C   UNL     1       4.493   6.413  -4.894  0.00  0.00    +0.007 A 
ATOM     34  C   UNL     1       5.709   6.352  -4.278  0.00  0.00    +0.070 A 
ATOM     35  C   UNL     1       6.335   7.544  -3.885  0.00  0.00    +0.251 A 
ATOM     36  O   UNL     1       7.393   7.499  -3.278  0.00  0.00    -0.268 OA
ATOM     37  N   UNL     1       5.777   8.745  -4.173  0.00  0.00    -0.312 N 
ATOM     38  C   UNL     1       6.601   9.932  -3.939  0.00  0.00    +0.126 C 
ATOM     39  N   UNL     1       3.992  10.291  -2.467  0.00  0.00    +0.383 N 
ATOM     40  H   UNL     1       4.453   9.374  -2.506  0.00  0.00    -0.082 HD
ENDBRANCH  25  39
ENDBRANCH  24  25
ENDBRANCH  23  24
ENDBRANCH   4  23
TORSDOF 8
