REMARK  Name = ZINC40086971
REMARK  8 active torsions:
REMARK  status: ('A' for Active; 'I' for Inactive)
REMARK    1  A    between atoms: C_1  and  N_2
REMARK    2  A    between atoms: N_2  and  C_3
REMARK    3  A    between atoms: N_2  and  C_4
REMARK    4  A    between atoms: C_4  and  C_6
REMARK    5  A    between atoms: C_4  and  C_21
REMARK    6  A    between atoms: C_6  and  N_7
REMARK    7  A    between atoms: C_8  and  C_10
REMARK    8  A    between atoms: C_10  and  N_11
REMARK                            x       y       z     vdW  Elec       q    Type
REMARK                         _______ _______ _______ _____ _____    ______ ____
ROOT
ATOM      1  N   UNL     1      -1.702   1.302  -1.405  0.00  0.00    -0.315 N 
ATOM      2  C   UNL     1      -2.076   1.923  -2.541  0.00  0.00    +0.235 C 
ATOM      3  O   UNL     1      -2.645   1.302  -3.413  0.00  0.00    -0.274 OA
ATOM      4  H   UNL     1      -1.246   1.799  -0.708  0.00  0.00    +0.149 HD
ENDROOT
BRANCH   1   5
ATOM      5  C   UNL     1      -1.983  -0.125  -1.224  0.00  0.00    +0.093 C 
BRANCH   5   6
ATOM      6  C   UNL     1      -1.353  -0.606   0.085  0.00  0.00    -0.020 C 
BRANCH   6   7
ATOM      7  C   UNL     1       0.147  -0.502  -0.012  0.00  0.00    -0.041 A 
ATOM      8  C   UNL     1       0.805   0.566   0.570  0.00  0.00    +0.003 A 
ATOM      9  C   UNL     1       2.181   0.661   0.481  0.00  0.00    +0.000 A 
ATOM     10  C   UNL     1       2.901  -0.311  -0.189  0.00  0.00    +0.001 A 
ATOM     11  C   UNL     1       2.244  -1.379  -0.770  0.00  0.00    +0.020 A 
ATOM     12  C   UNL     1       0.868  -1.478  -0.677  0.00  0.00    +0.043 A 
ATOM     13 CL   UNL     1       0.043  -2.823  -1.402  0.00  0.00    -0.083 Cl
ENDBRANCH   6   7
BRANCH   6  15
ATOM     14  C   UNL     1      -3.300   0.231   1.207  0.00  0.00    -0.096 C 
ATOM     15  N   UNL     1      -1.831   0.228   1.195  0.00  0.00    +0.382 N 
ATOM     16  C   UNL     1      -1.332  -0.314   2.465  0.00  0.00    -0.096 C 
ATOM     17  H   UNL     1      -1.494   1.172   1.076  0.00  0.00    -0.082 HD
ENDBRANCH   6  15
ENDBRANCH   5   6
ENDBRANCH   1   5
BRANCH   2  18
ATOM     18  C   UNL     1      -1.787   3.390  -2.728  0.00  0.00    +0.244 C 
BRANCH  18  19
ATOM     19  N   UNL     1      -2.289   3.825  -4.033  0.00  0.00    -0.203 N 
ATOM     20  C   UNL     1      -3.519   4.313  -4.292  0.00  0.00    +0.351 A 
ATOM     21  O   UNL     1      -4.414   4.471  -3.479  0.00  0.00    -0.244 OA
ATOM     22  N   UNL     1      -3.585   4.595  -5.609  0.00  0.00    -0.251 N 
ATOM     23  C   UNL     1      -4.596   5.106  -6.387  0.00  0.00    +0.098 A 
ATOM     24  C   UNL     1      -4.415   5.301  -7.705  0.00  0.00    +0.018 A 
ATOM     25  C   UNL     1      -3.185   4.984  -8.315  0.00  0.00    +0.005 A 
ATOM     26  C   UNL     1      -2.172   4.479  -7.570  0.00  0.00    +0.049 A 
ATOM     27  C   UNL     1      -2.367   4.275  -6.180  0.00  0.00    +0.162 A 
ATOM     28  N   UNL     1      -1.575   3.815  -5.240  0.00  0.00    -0.148 NA
ENDBRANCH  18  19
ENDBRANCH   2  18
TORSDOF 6
