REMARK  Name = ZINC58859188
REMARK  6 active torsions:
REMARK  status: ('A' for Active; 'I' for Inactive)
REMARK    1  A    between atoms: C_1  and  N_2
REMARK    2  A    between atoms: N_2  and  C_3
REMARK    3  A    between atoms: N_2  and  C_26
REMARK    4  A    between atoms: C_3  and  C_4
REMARK    5  A    between atoms: C_9  and  N_10
REMARK    6  A    between atoms: C_19  and  C_21
REMARK                            x       y       z     vdW  Elec       q    Type
REMARK                         _______ _______ _______ _____ _____    ______ ____
ROOT
ATOM      1  N   UNL     1      -1.880  -1.838   1.813  0.00  0.00    -0.269 N 
ATOM      2  C   UNL     1      -2.818  -2.671   2.304  0.00  0.00    +0.307 C 
ATOM      3  O   UNL     1      -3.434  -2.370   3.307  0.00  0.00    -0.252 OA
ATOM      4  N   UNL     1      -3.074  -3.840   1.682  0.00  0.00    -0.282 N 
ATOM      5  C   UNL     1      -2.247  -4.281   0.550  0.00  0.00    +0.128 C 
ATOM      6  C   UNL     1      -1.695  -5.678   0.861  0.00  0.00    +0.127 C 
ATOM      7  N   UNL     1      -2.805  -6.533   1.303  0.00  0.00    -0.292 N 
ATOM      8  C   UNL     1      -3.632  -6.092   2.435  0.00  0.00    +0.127 C 
ATOM      9  C   UNL     1      -4.180  -4.698   2.127  0.00  0.00    +0.128 C 
ATOM     10  C   UNL     1      -3.060  -7.702   0.681  0.00  0.00    +0.282 C 
ATOM     11  O   UNL     1      -3.918  -8.447   1.116  0.00  0.00    -0.267 OA
ATOM     12  H   UNL     1      -1.430  -2.050   0.980  0.00  0.00    +0.156 HD
ENDROOT
BRANCH   1  18
ATOM     13  C   UNL     1      -0.269  -0.145   2.426  0.00  0.00    -0.043 A 
ATOM     14  C   UNL     1       0.047   1.015   3.106  0.00  0.00    +0.003 A 
ATOM     15  C   UNL     1      -0.912   1.655   3.868  0.00  0.00    +0.000 A 
ATOM     16  C   UNL     1      -2.192   1.136   3.953  0.00  0.00    +0.002 A 
ATOM     17  C   UNL     1      -2.514  -0.023   3.276  0.00  0.00    +0.023 A 
ATOM     18  C   UNL     1      -1.554  -0.666   2.505  0.00  0.00    +0.036 A 
BRANCH  13  19
ATOM     19  C   UNL     1       0.777  -0.843   1.596  0.00  0.00    -0.041 C 
BRANCH  19  21
ATOM     20  C   UNL     1       0.837   0.940  -0.009  0.00  0.00    -0.095 C 
ATOM     21  N   UNL     1       0.590  -0.496   0.180  0.00  0.00    +0.382 N 
ATOM     22  H   UNL     1      -0.355  -0.714  -0.097  0.00  0.00    -0.081 HD
BRANCH  21  23
ATOM     23  C   UNL     1       1.533  -1.267  -0.641  0.00  0.00    -0.069 C 
ATOM     24  C   UNL     1       1.338  -0.906  -2.115  0.00  0.00    -0.015 C 
ATOM     25  C   UNL     1       2.320  -1.709  -2.971  0.00  0.00    -0.002 C 
ATOM     26  C   UNL     1       2.062  -3.205  -2.774  0.00  0.00    -0.000 C 
ATOM     27  C   UNL     1       2.257  -3.566  -1.300  0.00  0.00    -0.002 C 
ATOM     28  C   UNL     1       1.276  -2.763  -0.444  0.00  0.00    -0.015 C 
ENDBRANCH  21  23
ENDBRANCH  19  21
ENDBRANCH  13  19
ENDBRANCH   1  18
BRANCH  10  29
ATOM     29  C   UNL     1      -2.304  -8.074  -0.519  0.00  0.00    +0.189 A 
ATOM     30  C   UNL     1      -2.578  -9.126  -1.345  0.00  0.00    +0.054 A 
ATOM     31  C   UNL     1      -1.607  -9.106  -2.359  0.00  0.00    +0.042 A 
ATOM     32  C   UNL     1      -0.793  -8.056  -2.110  0.00  0.00    +0.196 A 
ATOM     33  O   UNL     1      -1.220  -7.434  -1.003  0.00  0.00    -0.458 OA
ENDBRANCH  10  29
TORSDOF 5
