REMARK  Name = ZINC12020990
REMARK  7 active torsions:
REMARK  status: ('A' for Active; 'I' for Inactive)
REMARK    1  A    between atoms: C_1  and  N_2
REMARK    2  A    between atoms: C_4  and  C_17
REMARK    3  A    between atoms: C_5  and  C_7
REMARK    4  A    between atoms: C_17  and  N_51
REMARK    5  A    between atoms: C_18  and  C_19
REMARK    6  A    between atoms: C_18  and  N_51
REMARK    7  A    between atoms: C_24  and  N_25
REMARK                            x       y       z     vdW  Elec       q    Type
REMARK                         _______ _______ _______ _____ _____    ______ ____
ROOT
ATOM      1  C   UNL     1      -5.892  -3.511  -0.848  0.00  0.00    +0.172 C 
ATOM      2  N   UNL     1      -5.231  -2.303  -0.347  0.00  0.00    -0.274 N 
ATOM      3  C   UNL     1      -5.795  -1.359   0.438  0.00  0.00    +0.110 A 
ATOM      4  C   UNL     1      -4.863  -0.412   0.685  0.00  0.00    -0.019 A 
ATOM      5  C   UNL     1      -3.680  -0.786   0.018  0.00  0.00    +0.094 A 
ATOM      6  N   UNL     1      -3.906  -1.926  -0.599  0.00  0.00    -0.171 NA
ENDROOT
BRANCH   5   7
ATOM      7  C   UNL     1      -2.403  -0.030   0.016  0.00  0.00    +0.006 A 
ATOM      8  C   UNL     1      -2.416   1.363   0.026  0.00  0.00    +0.014 A 
ATOM      9  C   UNL     1      -1.228   2.064   0.019  0.00  0.00    +0.050 A 
ATOM     10  C   UNL     1      -0.017   1.387   0.010  0.00  0.00    +0.162 A 
ATOM     11  C   UNL     1       0.002  -0.004   0.002  0.00  0.00    +0.163 A 
ATOM     12  C   UNL     1      -1.189  -0.712   0.004  0.00  0.00    +0.059 A 
ATOM     13  O   UNL     1       1.181  -0.685  -0.007  0.00  0.00    -0.485 OA
ATOM     14  C   UNL     1       2.347   0.053  -0.387  0.00  0.00    +0.270 C 
ATOM     15  C   UNL     1       2.335   1.391   0.365  0.00  0.00    +0.270 C 
ATOM     16  O   UNL     1       1.144   2.098   0.002  0.00  0.00    -0.485 OA
ENDBRANCH   5   7
BRANCH   4  17
ATOM     17  C   UNL     1      -5.056   0.825   1.524  0.00  0.00    -0.043 C 
BRANCH  17  18
ATOM     18  N   UNL     1      -5.300   1.977   0.636  0.00  0.00    +0.385 N 
ATOM     19  H   UNL     1      -6.142   1.801   0.076  0.00  0.00    -0.085 HD
ATOM     20  H   UNL     1      -4.493   2.101   0.013  0.00  0.00    -0.085 HD
BRANCH  18  21
ATOM     21  C   UNL     1      -5.493   3.204   1.432  0.00  0.00    -0.044 C 
BRANCH  21  22
ATOM     22  C   UNL     1      -5.739   4.363   0.500  0.00  0.00    -0.039 A 
ATOM     23  C   UNL     1      -4.711   5.233   0.192  0.00  0.00    +0.004 A 
ATOM     24  C   UNL     1      -4.936   6.295  -0.663  0.00  0.00    +0.000 A 
ATOM     25  C   UNL     1      -6.190   6.492  -1.212  0.00  0.00    +0.002 A 
ATOM     26  C   UNL     1      -7.221   5.626  -0.908  0.00  0.00    +0.028 A 
ATOM     27  C   UNL     1      -6.997   4.554  -0.054  0.00  0.00    +0.068 A 
BRANCH  27  28
ATOM     28  N   UNL     1      -8.041   3.670   0.253  0.00  0.00    -0.220 N 
ATOM     29  C   UNL     1      -9.309   3.729  -0.200  0.00  0.00    +0.225 A 
ATOM     30  N   UNL     1      -9.970   2.723   0.315  0.00  0.00    -0.222 NA
ATOM     31  C   UNL     1      -9.166   2.010   1.103  0.00  0.00    +0.245 A 
ATOM     32  N   UNL     1      -7.975   2.550   1.097  0.00  0.00    -0.154 NA
ENDBRANCH  27  28
ENDBRANCH  21  22
ENDBRANCH  18  21
ENDBRANCH  17  18
ENDBRANCH   4  17
TORSDOF 6
