REMARK  Name = ZINC42015458
REMARK  5 active torsions:
REMARK  status: ('A' for Active; 'I' for Inactive)
REMARK    1  A    between atoms: C_3  and  C_9
REMARK    2  A    between atoms: C_4  and  N_8
REMARK    3  A    between atoms: C_6  and  N_7
REMARK    4  A    between atoms: N_13  and  C_14
REMARK    5  A    between atoms: C_14  and  C_15
REMARK                            x       y       z     vdW  Elec       q    Type
REMARK                         _______ _______ _______ _____ _____    ______ ____
ROOT
ATOM      1  C   UNL     1      -0.017   1.399  -0.201  0.00  0.00    +0.023 A 
ATOM      2  C   UNL     1       1.170   2.096  -0.224  0.00  0.00    +0.015 A 
ATOM      3  C   UNL     1       2.380   1.421  -0.054  0.00  0.00    +0.041 A 
ATOM      4  C   UNL     1       2.381   0.031   0.141  0.00  0.00    +0.037 A 
ATOM      5  C   UNL     1       1.181  -0.661   0.162  0.00  0.00    +0.046 A 
ATOM      6  C   UNL     1      -0.017   0.020  -0.009  0.00  0.00    +0.026 A 
ENDROOT
BRANCH   3   7
ATOM      7  C   UNL     1       3.655   2.166  -0.078  0.00  0.00    +0.184 A 
ATOM      8  N   UNL     1       4.729   1.859  -0.776  0.00  0.00    -0.108 NA
ATOM      9  N   UNL     1       5.661   2.718  -0.567  0.00  0.00    -0.023 NA
ATOM     10  N   UNL     1       5.266   3.622   0.262  0.00  0.00    -0.043 NA
ATOM     11  N   UNL     1       3.942   3.305   0.612  0.00  0.00    -0.216 N 
BRANCH  11  12
ATOM     12  C   UNL     1       3.062   4.040   1.523  0.00  0.00    +0.260 C 
BRANCH  12  13
ATOM     13  C   UNL     1       3.336   3.600   2.963  0.00  0.00    +0.409 C 
ATOM     14  F   UNL     1       4.671   3.868   3.286  0.00  0.00    -0.169 F 
ATOM     15  F   UNL     1       2.496   4.302   3.833  0.00  0.00    -0.169 F 
ATOM     16  F   UNL     1       3.093   2.228   3.085  0.00  0.00    -0.169 F 
ENDBRANCH  12  13
ENDBRANCH  11  12
ENDBRANCH   3   7
BRANCH   6  17
ATOM     17  N   UNL     1      -1.223  -0.678   0.013  0.00  0.00    -0.358 N 
ATOM     18  H   UNL     1      -2.061  -0.204  -0.106  0.00  0.00    +0.142 HD
ATOM     19  H   UNL     1      -1.225  -1.639   0.147  0.00  0.00    +0.142 HD
ENDBRANCH   6  17
BRANCH   4  20
ATOM     20  N   UNL     1       3.583  -0.650   0.310  0.00  0.00    -0.357 N 
ATOM     21  H   UNL     1       4.415  -0.155   0.385  0.00  0.00    +0.142 HD
ATOM     22  H   UNL     1       3.590  -1.619   0.354  0.00  0.00    +0.142 HD
ENDBRANCH   4  20
TORSDOF 5
