REMARK  Name = ZINC20082398
REMARK  5 active torsions:
REMARK  status: ('A' for Active; 'I' for Inactive)
REMARK    1  A    between atoms: C_1  and  C_2
REMARK    2  A    between atoms: C_3  and  N_15
REMARK    3  A    between atoms: C_7  and  N_8
REMARK    4  A    between atoms: N_8  and  S_9
REMARK    5  A    between atoms: S_9  and  C_12
REMARK                            x       y       z     vdW  Elec       q    Type
REMARK                         _______ _______ _______ _____ _____    ______ ____
ROOT
ATOM      1  C   UNL     1       3.776   2.390   0.163  0.00  0.00    +0.048 C 
ATOM      2  C   UNL     1       2.543   1.528   0.248  0.00  0.00    -0.005 A 
ATOM      3  C   UNL     1       2.665   0.154   0.406  0.00  0.00    +0.029 A 
ATOM      4  C   UNL     1       1.527  -0.638   0.484  0.00  0.00    +0.023 A 
ATOM      5  C   UNL     1       0.274  -0.061   0.404  0.00  0.00    +0.004 A 
ATOM      6  C   UNL     1       0.149   1.306   0.247  0.00  0.00    +0.027 A 
ATOM      7  C   UNL     1       1.284   2.105   0.168  0.00  0.00    +0.079 A 
ENDROOT
BRANCH   3   8
ATOM      8  N   UNL     1       3.931  -0.431   0.487  0.00  0.00    -0.358 N 
ATOM      9  H   UNL     1       4.027  -1.519   0.612  0.00  0.00    +0.142 HD
ATOM     10  H   UNL     1       4.832   0.198   0.425  0.00  0.00    +0.142 HD
ENDBRANCH   3   8
BRANCH   7  11
ATOM     11  N   UNL     1       1.157   3.486   0.009  0.00  0.00    -0.097 NA
BRANCH  11  12
ATOM     12  S   UNL     1      -0.090   4.293   0.742  0.00  0.00    +0.124 S 
ATOM     13  O   UNL     1       0.135   5.663   0.437  0.00  0.00    -0.148 OA
ATOM     14  O   UNL     1      -1.264   3.634   0.289  0.00  0.00    -0.148 OA
BRANCH  12  15
ATOM     15  C   UNL     1       0.145   4.001   2.517  0.00  0.00    +0.501 C 
ATOM     16  F   UNL     1      -0.929   4.550   3.226  0.00  0.00    -0.182 F 
ATOM     17  F   UNL     1       0.208   2.624   2.759  0.00  0.00    -0.182 F 
ENDBRANCH  12  15
ENDBRANCH  11  12
ENDBRANCH   7  11
TORSDOF 4
