REMARK  Name = ZINC31053585
REMARK  11 active torsions:
REMARK  status: ('A' for Active; 'I' for Inactive)
REMARK    1  A    between atoms: C_1  and  C_2
REMARK    2  A    between atoms: C_6  and  C_8
REMARK    3  A    between atoms: C_8  and  S_9
REMARK    4  A    between atoms: S_9  and  C_10
REMARK    5  A    between atoms: C_10  and  C_11
REMARK    6  A    between atoms: C_11  and  C_12
REMARK    7  A    between atoms: C_12  and  N_13
REMARK    8  A    between atoms: C_14  and  C_16
REMARK    9  A    between atoms: N_21  and  C_23
REMARK   10  A    between atoms: C_23  and  C_24
REMARK   11  A    between atoms: C_26  and  C_29
REMARK                            x       y       z     vdW  Elec       q    Type
REMARK                         _______ _______ _______ _____ _____    ______ ____
ROOT
ATOM      1  C   UNL     1      -2.946   3.866   2.925  0.00  0.00    +0.058 C 
ATOM      2  C   UNL     1      -3.406   2.616   3.681  0.00  0.00    +0.009 C 
ATOM      3  C   UNL     1      -2.328   1.534   3.566  0.00  0.00    -0.018 C 
ATOM      4  C   UNL     1      -2.068   1.236   2.088  0.00  0.00    -0.078 C 
ATOM      5  N   UNL     1      -1.631   2.462   1.409  0.00  0.00    +0.386 N 
ATOM      6  C   UNL     1      -2.669   3.499   1.465  0.00  0.00    -0.065 C 
ATOM      7  H   UNL     1      -0.747   2.843   1.941  0.00  0.00    -0.081 HD
ENDROOT
BRANCH   1   9
ATOM      8  N   UNL     1      -4.437   5.394   4.175  0.00  0.00    -0.315 N 
ATOM      9  C   UNL     1      -4.026   4.916   2.984  0.00  0.00    +0.214 C 
ATOM     10  O   UNL     1      -4.525   5.331   1.959  0.00  0.00    -0.276 OA
ATOM     11  H   UNL     1      -3.984   5.017   5.104  0.00  0.00    +0.149 HD
BRANCH   8  12
ATOM     12  C   UNL     1      -5.486   6.414   4.232  0.00  0.00    +0.105 C 
BRANCH  12  13
ATOM     13  C   UNL     1      -5.763   6.780   5.692  0.00  0.00    +0.029 C 
BRANCH  13  14
ATOM     14  C   UNL     1      -6.859   7.846   5.752  0.00  0.00    +0.071 C 
BRANCH  14  15
ATOM     15  S   UNL     1      -7.187   8.279   7.482  0.00  0.00    -0.156 S 
BRANCH  15  16
ATOM     16  C   UNL     1      -8.492   9.536   7.380  0.00  0.00    +0.104 C 
BRANCH  16  22
ATOM     17  C   UNL     1      -7.821  12.633  11.253  0.00  0.00    +0.044 C 
ATOM     18  C   UNL     1      -8.542  11.470  10.622  0.00  0.00    -0.050 A 
ATOM     19  C   UNL     1      -9.545  10.819  11.316  0.00  0.00    +0.003 A 
ATOM     20  C   UNL     1     -10.206   9.753  10.736  0.00  0.00    +0.001 A 
ATOM     21  C   UNL     1      -9.869   9.341   9.461  0.00  0.00    +0.004 A 
ATOM     22  C   UNL     1      -8.863   9.989   8.769  0.00  0.00    -0.037 A 
ATOM     23  C   UNL     1      -8.201  11.055   9.348  0.00  0.00    +0.007 A 
ENDBRANCH  16  22
ENDBRANCH  15  16
ENDBRANCH  14  15
ENDBRANCH  13  14
ENDBRANCH  12  13
ENDBRANCH   8  12
ENDBRANCH   1   9
BRANCH   5  24
ATOM     24  C   UNL     1      -1.240   2.184   0.020  0.00  0.00    +0.022 C 
BRANCH  24  25
ATOM     25  C   UNL     1      -0.016   1.306   0.009  0.00  0.00    +0.211 A 
ATOM     26  N   UNL     1       0.002  -0.004   0.002  0.00  0.00    -0.193 NA
ATOM     27  C   UNL     1       1.309  -0.349  -0.012  0.00  0.00    +0.202 A 
ATOM     28  N   UNL     1       2.002   0.760  -0.013  0.00  0.00    -0.056 NA
ATOM     29  O   UNL     1       1.256   1.716  -0.001  0.00  0.00    -0.340 OA
BRANCH  27  30
ATOM     30  C   UNL     1       1.856  -1.729  -0.025  0.00  0.00    +0.024 A 
ATOM     31  C   UNL     1       3.234  -1.935  -0.040  0.00  0.00    +0.012 A 
ATOM     32  C   UNL     1       3.738  -3.220  -0.052  0.00  0.00    +0.002 A 
ATOM     33  C   UNL     1       2.877  -4.303  -0.049  0.00  0.00    +0.020 A 
ATOM     34  C   UNL     1       1.508  -4.105  -0.035  0.00  0.00    +0.042 A 
ATOM     35  C   UNL     1       0.993  -2.823  -0.018  0.00  0.00    +0.031 A 
ATOM     36 CL   UNL     1       0.434  -5.470  -0.032  0.00  0.00    -0.084 Cl
ENDBRANCH  27  30
ENDBRANCH  24  25
ENDBRANCH   5  24
TORSDOF 10
