REMARK  Name = ZINC17655466
REMARK  6 active torsions:
REMARK  status: ('A' for Active; 'I' for Inactive)
REMARK    1  A    between atoms: C_1  and  C_2
REMARK    2  A    between atoms: C_5  and  N_9
REMARK    3  A    between atoms: C_6  and  C_8
REMARK    4  A    between atoms: C_10  and  S_14
REMARK    5  A    between atoms: S_14  and  C_15
REMARK    6  A    between atoms: C_15  and  C_16
REMARK                            x       y       z     vdW  Elec       q    Type
REMARK                         _______ _______ _______ _____ _____    ______ ____
ROOT
ATOM      1  S   UNL     1       0.540  -4.671  -2.527  0.00  0.00    -0.076 S 
ENDROOT
BRANCH   1   3
ATOM      2  N   UNL     1       0.453  -4.131   0.209  0.00  0.00    -0.187 N 
ATOM      3  C   UNL     1       0.595  -5.024  -0.802  0.00  0.00    +0.214 A 
ATOM      4  N   UNL     1       0.781  -6.204  -0.251  0.00  0.00    -0.101 NA
ATOM      5  N   UNL     1       0.765  -6.110   1.030  0.00  0.00    -0.022 NA
ATOM      6  N   UNL     1       0.577  -4.886   1.388  0.00  0.00    -0.038 NA
BRANCH   2  11
ATOM      7  C   UNL     1      -0.428   1.459  -0.230  0.00  0.00    +0.044 C 
ATOM      8  C   UNL     1      -0.194  -0.025  -0.113  0.00  0.00    -0.050 A 
ATOM      9  C   UNL     1       0.799  -0.628  -0.863  0.00  0.00    +0.005 A 
ATOM     10  C   UNL     1       1.016  -1.988  -0.759  0.00  0.00    +0.028 A 
ATOM     11  C   UNL     1       0.236  -2.750   0.101  0.00  0.00    +0.073 A 
ATOM     12  C   UNL     1      -0.759  -2.141   0.853  0.00  0.00    -0.025 A 
ATOM     13  C   UNL     1      -0.968  -0.780   0.748  0.00  0.00    +0.008 A 
ATOM     14  C   UNL     1      -1.608  -2.965   1.788  0.00  0.00    +0.046 C 
ENDBRANCH   2  11
ENDBRANCH   1   3
BRANCH   1  15
ATOM     15  C   UNL     1       0.796  -6.286  -3.314  0.00  0.00    +0.153 C 
BRANCH  15  16
ATOM     16  C   UNL     1       0.771  -6.124  -4.812  0.00  0.00    +0.146 A 
ATOM     17  N   UNL     1      -0.372  -6.227  -5.467  0.00  0.00    -0.199 NA
ATOM     18  C   UNL     1      -0.398  -6.085  -6.790  0.00  0.00    +0.217 A 
ATOM     19  N   UNL     1       0.727  -5.839  -7.452  0.00  0.00    -0.181 NA
ATOM     20  C   UNL     1       1.874  -5.736  -6.790  0.00  0.00    +0.217 A 
ATOM     21  N   UNL     1       1.891  -5.875  -5.467  0.00  0.00    -0.199 NA
ATOM     22  N   UNL     1       3.046  -5.481  -7.474  0.00  0.00    -0.327 N 
ATOM     23  N   UNL     1      -1.592  -6.193  -7.473  0.00  0.00    -0.327 N 
ATOM     24  H   UNL     1       3.032  -5.376  -8.438  0.00  0.00    +0.145 HD
ATOM     25  H   UNL     1       3.883  -5.406  -6.990  0.00  0.00    +0.145 HD
ATOM     26  H   UNL     1      -2.413  -6.373  -6.989  0.00  0.00    +0.145 HD
ATOM     27  H   UNL     1      -1.611  -6.089  -8.438  0.00  0.00    +0.145 HD
ENDBRANCH  15  16
ENDBRANCH   1  15
TORSDOF 4
