REMARK  Name = ZINC38966311
REMARK  10 active torsions:
REMARK  status: ('A' for Active; 'I' for Inactive)
REMARK    1  A    between atoms: C_1  and  C_2
REMARK    2  A    between atoms: C_2  and  C_3
REMARK    3  A    between atoms: C_3  and  C_4
REMARK    4  A    between atoms: C_4  and  C_5
REMARK    5  A    between atoms: C_8  and  N_11
REMARK    6  A    between atoms: N_11  and  C_12
REMARK    7  A    between atoms: N_15  and  S_16
REMARK    8  A    between atoms: S_16  and  C_19
REMARK    9  A    between atoms: C_22  and  O_25
REMARK   10  A    between atoms: O_25  and  C_26
REMARK                            x       y       z     vdW  Elec       q    Type
REMARK                         _______ _______ _______ _____ _____    ______ ____
ROOT
ATOM      1  C   UNL     1      -7.468  -4.175  -1.214  0.00  0.00    +0.237 C 
ATOM      2  C   UNL     1      -8.176  -5.511  -1.179  0.00  0.00    +0.192 C 
ATOM      3  N   UNL     1      -7.502  -6.611  -1.017  0.00  0.00    -0.110 NA
ATOM      4  N   UNL     1      -9.511  -5.545  -1.318  0.00  0.00    -0.226 NA
ATOM      5  C   UNL     1     -10.216  -4.445  -1.484  0.00  0.00    +0.089 A 
ATOM      6  C   UNL     1     -11.624  -4.518  -1.627  0.00  0.00    +0.030 A 
ATOM      7  C   UNL     1     -12.352  -3.393  -1.798  0.00  0.00    +0.002 A 
ATOM      8  C   UNL     1     -11.775  -2.113  -1.841  0.00  0.00    +0.002 A 
ATOM      9  C   UNL     1     -10.442  -1.931  -1.715  0.00  0.00    +0.027 A 
ATOM     10  C   UNL     1      -9.578  -3.106  -1.526  0.00  0.00    +0.063 A 
ATOM     11  N   UNL     1      -8.289  -2.968  -1.399  0.00  0.00    -0.359 N 
ATOM     12  H   UNL     1      -7.879  -2.090  -1.427  0.00  0.00    +0.162 HD
ENDROOT
BRANCH   3  13
ATOM     13  S   UNL     1      -8.289  -8.067  -0.981  0.00  0.00    +0.100 S 
ATOM     14  O   UNL     1      -9.095  -8.065   0.189  0.00  0.00    -0.146 OA
ATOM     15  O   UNL     1      -8.832  -8.268  -2.279  0.00  0.00    -0.146 OA
BRANCH  13  16
ATOM     16  C   UNL     1      -7.067  -9.315  -0.748  0.00  0.00    +0.113 A 
ATOM     17  C   UNL     1      -6.458  -9.897  -1.844  0.00  0.00    +0.032 A 
ATOM     18  C   UNL     1      -5.499 -10.876  -1.664  0.00  0.00    +0.047 A 
ATOM     19  C   UNL     1      -5.149 -11.274  -0.383  0.00  0.00    +0.120 A 
ATOM     20  C   UNL     1      -5.761 -10.688   0.716  0.00  0.00    +0.047 A 
ATOM     21  C   UNL     1      -6.715  -9.706   0.530  0.00  0.00    +0.032 A 
BRANCH  19  22
ATOM     22  O   UNL     1      -4.207 -12.237  -0.203  0.00  0.00    -0.495 OA
ATOM     23  C   UNL     1      -3.895 -12.597   1.145  0.00  0.00    +0.277 C 
ENDBRANCH  19  22
ENDBRANCH  13  16
ENDBRANCH   3  13
BRANCH   1  24
ATOM     24  N   UNL     1      -6.732  -4.027   0.045  0.00  0.00    -0.318 N 
ATOM     25  H   UNL     1      -7.186  -4.164   0.891  0.00  0.00    +0.148 HD
BRANCH  24  29
ATOM     26  C   UNL     1      -2.694  -3.013  -0.011  0.00  0.00    -0.047 A 
ATOM     27  C   UNL     1      -3.429  -2.985  -1.183  0.00  0.00    +0.005 A 
ATOM     28  C   UNL     1      -4.769  -3.321  -1.168  0.00  0.00    +0.023 A 
ATOM     29  C   UNL     1      -5.378  -3.687   0.026  0.00  0.00    +0.029 A 
ATOM     30  C   UNL     1      -4.637  -3.714   1.201  0.00  0.00    +0.023 A 
ATOM     31  C   UNL     1      -3.296  -3.382   1.177  0.00  0.00    +0.005 A 
BRANCH  26  32
ATOM     32  C   UNL     1      -1.233  -2.646  -0.032  0.00  0.00    +0.035 C 
BRANCH  32  33
ATOM     33  C   UNL     1      -0.396  -3.900  -0.293  0.00  0.00    +0.004 C 
BRANCH  33  35
ATOM     34  C   UNL     1       1.925  -4.781  -0.575  0.00  0.00    +0.004 C 
ATOM     35  C   UNL     1       1.088  -3.527  -0.314  0.00  0.00    -0.003 C 
ENDBRANCH  33  35
ENDBRANCH  32  33
ENDBRANCH  26  32
ENDBRANCH  24  29
ENDBRANCH   1  24
TORSDOF 8
