REMARK  Name = ZINC38692411
REMARK  10 active torsions:
REMARK  status: ('A' for Active; 'I' for Inactive)
REMARK    1  A    between atoms: C_1  and  C_2
REMARK    2  A    between atoms: C_4  and  C_29
REMARK    3  A    between atoms: C_5  and  C_28
REMARK    4  A    between atoms: C_6  and  S_9
REMARK    5  A    between atoms: C_7  and  C_8
REMARK    6  A    between atoms: S_9  and  N_12
REMARK    7  A    between atoms: N_12  and  C_13
REMARK    8  A    between atoms: C_23  and  C_25
REMARK    9  A    between atoms: C_25  and  C_26
REMARK   10  A    between atoms: C_25  and  C_27
REMARK                            x       y       z     vdW  Elec       q    Type
REMARK                         _______ _______ _______ _____ _____    ______ ____
ROOT
ATOM      1  N   UNL     1       0.890  -4.004   3.175  0.00  0.00    -0.216 N 
ATOM      2  H   UNL     1       1.100  -4.934   3.354  0.00  0.00    +0.174 HD
ENDROOT
BRANCH   1   3
ATOM      3  C   UNL     1       1.914  -3.056   3.110  0.00  0.00    +0.050 A 
ATOM      4  C   UNL     1       1.946  -2.133   2.071  0.00  0.00    +0.025 A 
ATOM      5  C   UNL     1       2.958  -1.198   2.007  0.00  0.00    +0.007 A 
ATOM      6  C   UNL     1       3.949  -1.171   2.976  0.00  0.00    -0.026 A 
ATOM      7  C   UNL     1       3.919  -2.088   4.015  0.00  0.00    +0.041 A 
ATOM      8  C   UNL     1       2.900  -3.029   4.085  0.00  0.00    +0.048 A 
ATOM      9  N   UNL     1       4.904  -2.075   5.013  0.00  0.00    -0.271 N 
ATOM     10  C   UNL     1       6.126  -1.290   4.793  0.00  0.00    +0.114 C 
ATOM     11  C   UNL     1       5.711   0.074   4.226  0.00  0.00    +0.024 C 
ATOM     12  C   UNL     1       5.041  -0.139   2.869  0.00  0.00    +0.038 C 
ATOM     13  C   UNL     1       4.733  -2.772   6.153  0.00  0.00    +0.222 C 
ATOM     14  O   UNL     1       3.733  -3.440   6.312  0.00  0.00    -0.275 OA
BRANCH  13  15
ATOM     15  C   UNL     1       5.784  -2.722   7.232  0.00  0.00    +0.069 C 
ATOM     16  C   UNL     1       5.348  -3.595   8.411  0.00  0.00    +0.017 C 
ATOM     17  C   UNL     1       7.111  -3.243   6.676  0.00  0.00    +0.017 C 
ENDBRANCH  13  15
ENDBRANCH   1   3
BRANCH   1  18
ATOM     18  S   UNL     1      -0.683  -3.540   2.946  0.00  0.00    +0.073 S 
ATOM     19  O   UNL     1      -0.884  -2.380   3.743  0.00  0.00    -0.150 OA
ATOM     20  O   UNL     1      -1.477  -4.710   3.091  0.00  0.00    -0.150 OA
BRANCH  18  26
ATOM     21  C   UNL     1      -1.155  -4.608  -2.148  0.00  0.00    +0.044 C 
ATOM     22  C   UNL     1      -1.052  -3.577  -1.054  0.00  0.00    -0.045 A 
ATOM     23  C   UNL     1      -1.078  -2.231  -1.369  0.00  0.00    +0.007 A 
ATOM     24  C   UNL     1      -0.984  -1.285  -0.365  0.00  0.00    -0.045 A 
ATOM     25  C   UNL     1      -0.863  -1.684   0.952  0.00  0.00    -0.021 A 
ATOM     26  C   UNL     1      -0.838  -3.030   1.267  0.00  0.00    +0.115 A 
ATOM     27  C   UNL     1      -0.937  -3.976   0.264  0.00  0.00    -0.021 A 
ATOM     28  C   UNL     1      -0.914  -5.444   0.607  0.00  0.00    +0.046 C 
ATOM     29  C   UNL     1      -0.759  -0.653   2.046  0.00  0.00    +0.046 C 
ATOM     30  C   UNL     1      -1.011   0.182  -0.708  0.00  0.00    +0.044 C 
ENDBRANCH  18  26
ENDBRANCH   1  18
TORSDOF 4
