REMARK  Name = ZINC54655992
REMARK  5 active torsions:
REMARK  status: ('A' for Active; 'I' for Inactive)
REMARK    1  A    between atoms: C_1  and  C_2
REMARK    2  A    between atoms: C_2  and  C_4
REMARK    3  A    between atoms: C_2  and  N_14
REMARK    4  A    between atoms: C_15  and  C_17
REMARK    5  A    between atoms: N_27  and  C_28
REMARK                            x       y       z     vdW  Elec       q    Type
REMARK                         _______ _______ _______ _____ _____    ______ ____
ROOT
ATOM      1  N   UNL     1       0.688  -0.476  -1.203  0.00  0.00    -0.305 N 
ATOM      2  C   UNL     1       2.031  -0.587  -1.215  0.00  0.00    +0.245 C 
ATOM      3  O   UNL     1       2.674  -0.294  -0.225  0.00  0.00    -0.270 OA
ATOM      4  H   UNL     1       0.175  -0.710  -1.993  0.00  0.00    +0.150 HD
ENDROOT
BRANCH   2   5
ATOM      5  C   UNL     1       2.721  -1.063  -2.429  0.00  0.00    +0.039 A 
ATOM      6  C   UNL     1       1.983  -1.393  -3.568  0.00  0.00    +0.015 A 
ATOM      7  C   UNL     1       2.627  -1.837  -4.704  0.00  0.00    +0.026 A 
ATOM      8  C   UNL     1       4.009  -1.955  -4.714  0.00  0.00    +0.051 A 
ATOM      9  C   UNL     1       4.756  -1.629  -3.577  0.00  0.00    +0.055 A 
ATOM     10  C   UNL     1       4.115  -1.177  -2.440  0.00  0.00    +0.038 A 
ATOM     11  N   UNL     1       6.150  -1.766  -3.604  0.00  0.00    -0.283 N 
ATOM     12  C   UNL     1       6.800  -1.924  -4.773  0.00  0.00    +0.235 C 
ATOM     13  O   UNL     1       8.003  -2.083  -4.773  0.00  0.00    -0.274 OA
ATOM     14  C   UNL     1       6.050  -1.906  -6.080  0.00  0.00    +0.200 C 
ATOM     15  N   UNL     1       4.682  -2.396  -5.854  0.00  0.00    -0.323 N 
ATOM     16  C   UNL     1       4.045  -3.318  -6.798  0.00  0.00    +0.130 C 
ATOM     17  H   UNL     1       6.651  -1.746  -2.774  0.00  0.00    +0.155 HD
ENDBRANCH   2   5
BRANCH   1  19
ATOM     18  C   UNL     1      -0.019   1.526   0.010  0.00  0.00    +0.033 C 
ATOM     19  C   UNL     1       0.002  -0.004   0.002  0.00  0.00    +0.100 C 
BRANCH  19  20
ATOM     20  C   UNL     1      -1.412  -0.526   0.013  0.00  0.00    -0.027 A 
ATOM     21  C   UNL     1      -2.138  -0.565  -1.176  0.00  0.00    +0.006 A 
ATOM     22  C   UNL     1      -3.417  -1.029  -1.201  0.00  0.00    +0.009 A 
ATOM     23  C   UNL     1      -4.017  -1.478  -0.012  0.00  0.00    -0.018 A 
ATOM     24  C   UNL     1      -5.335  -1.965   0.001  0.00  0.00    +0.008 A 
ATOM     25  C   UNL     1      -5.883  -2.392   1.172  0.00  0.00    +0.001 A 
ATOM     26  C   UNL     1      -5.157  -2.353   2.361  0.00  0.00    +0.001 A 
ATOM     27  C   UNL     1      -3.878  -1.888   2.386  0.00  0.00    +0.008 A 
ATOM     28  C   UNL     1      -3.278  -1.439   1.197  0.00  0.00    -0.018 A 
ATOM     29  C   UNL     1      -1.958  -0.957   1.182  0.00  0.00    +0.014 A 
ENDBRANCH  19  20
ENDBRANCH   1  19
TORSDOF 3
