REMARK  Name = ZINC52763189
REMARK  9 active torsions:
REMARK  status: ('A' for Active; 'I' for Inactive)
REMARK    1  A    between atoms: C_1  and  C_2
REMARK    2  A    between atoms: C_3  and  C_9
REMARK    3  A    between atoms: C_4  and  N_8
REMARK    4  A    between atoms: N_5  and  C_7
REMARK    5  A    between atoms: C_9  and  N_10
REMARK    6  A    between atoms: C_14  and  C_16
REMARK    7  A    between atoms: C_16  and  C_17
REMARK    8  A    between atoms: C_17  and  C_18
REMARK    9  A    between atoms: C_18  and  O_19
REMARK                            x       y       z     vdW  Elec       q    Type
REMARK                         _______ _______ _______ _____ _____    ______ ____
ROOT
ATOM      1  C   UNL     1      -0.005  -0.341  -2.566  0.00  0.00    -0.037 C 
ENDROOT
BRANCH   1   4
ATOM      2  C   UNL     1      -0.018   1.503   0.010  0.00  0.00    +0.065 C 
ATOM      3  C   UNL     1       0.002  -0.004   0.002  0.00  0.00    +0.034 A 
ATOM      4  C   UNL     1       0.008  -0.816  -1.136  0.00  0.00    -0.005 A 
ATOM      5  C   UNL     1       0.027  -2.113  -0.721  0.00  0.00    +0.114 A 
ATOM      6  N   UNL     1       0.034  -2.110   0.631  0.00  0.00    -0.276 N 
ATOM      7  N   UNL     1       0.023  -0.776   1.058  0.00  0.00    -0.300 N 
ATOM      8  C   UNL     1       0.053  -3.292   1.496  0.00  0.00    +0.172 C 
ATOM      9  H   UNL     1       0.028  -0.475   1.981  0.00  0.00    +0.187 HD
BRANCH   5  10
ATOM     10  N   UNL     1       0.038  -3.238  -1.541  0.00  0.00    -0.343 N 
ATOM     11  H   UNL     1       0.032  -3.136  -2.506  0.00  0.00    +0.144 HD
ATOM     12  H   UNL     1       0.052  -4.125  -1.147  0.00  0.00    +0.144 HD
ENDBRANCH   5  10
ENDBRANCH   1   4
BRANCH   1  13
ATOM     13  N   UNL     1       1.376  -0.168  -3.037  0.00  0.00    +0.384 N 
ATOM     14  C   UNL     1       2.052  -1.481  -3.088  0.00  0.00    -0.078 C 
ATOM     15  C   UNL     1       1.900  -1.947  -4.558  0.00  0.00    -0.020 C 
ATOM     16  C   UNL     1       2.053  -0.609  -5.328  0.00  0.00    -0.017 C 
ATOM     17  C   UNL     1       1.368   0.410  -4.393  0.00  0.00    -0.068 C 
ATOM     18  H   UNL     1       1.875   0.445  -2.409  0.00  0.00    -0.081 HD
BRANCH  17  19
ATOM     19  C   UNL     1       2.146   1.728  -4.401  0.00  0.00    -0.013 C 
BRANCH  19  20
ATOM     20  C   UNL     1       1.422   2.753  -3.526  0.00  0.00    +0.026 C 
BRANCH  20  21
ATOM     21  C   UNL     1       2.199   4.071  -3.534  0.00  0.00    +0.156 C 
BRANCH  21  22
ATOM     22  O   UNL     1       1.523   5.028  -2.716  0.00  0.00    -0.395 OA
ATOM     23  H   UNL     1       1.961   5.889  -2.675  0.00  0.00    +0.209 HD
ENDBRANCH  21  22
ENDBRANCH  20  21
ENDBRANCH  19  20
ENDBRANCH  17  19
ENDBRANCH   1  13
TORSDOF 7
