REMARK  Name = ZINC21527963
REMARK  11 active torsions:
REMARK  status: ('A' for Active; 'I' for Inactive)
REMARK    1  A    between atoms: C_1  and  C_2
REMARK    2  A    between atoms: C_5  and  C_35
REMARK    3  A    between atoms: N_8  and  C_10
REMARK    4  A    between atoms: C_10  and  C_11
REMARK    5  A    between atoms: C_11  and  C_12
REMARK    6  A    between atoms: C_12  and  N_13
REMARK    7  A    between atoms: C_14  and  C_16
REMARK    8  A    between atoms: C_16  and  C_17
REMARK    9  A    between atoms: C_17  and  C_18
REMARK   10  A    between atoms: N_20  and  C_27
REMARK   11  A    between atoms: C_27  and  C_28
REMARK                            x       y       z     vdW  Elec       q    Type
REMARK                         _______ _______ _______ _____ _____    ______ ____
ROOT
ATOM      1  C   UNL     1      -1.057   5.775   0.070  0.00  0.00    +0.046 C 
ENDROOT
BRANCH   1   2
ATOM      2  C   UNL     1       0.079   4.787   0.017  0.00  0.00    -0.022 A 
ATOM      3  C   UNL     1       1.390   5.074   0.048  0.00  0.00    +0.090 A 
ATOM      4  N   UNL     1       2.122   3.921  -0.020  0.00  0.00    -0.342 N 
ATOM      5  C   UNL     1       1.280   2.835  -0.098  0.00  0.00    +0.050 A 
ATOM      6  C   UNL     1      -0.038   3.329  -0.078  0.00  0.00    +0.003 A 
ATOM      7  C   UNL     1      -1.115   2.445  -0.144  0.00  0.00    +0.010 A 
ATOM      8  C   UNL     1      -0.885   1.101  -0.234  0.00  0.00    +0.001 A 
ATOM      9  C   UNL     1       0.412   0.607  -0.248  0.00  0.00    +0.002 A 
ATOM     10  C   UNL     1       1.491   1.463  -0.184  0.00  0.00    +0.026 A 
BRANCH   4  11
ATOM     11  C   UNL     1       3.586   3.851  -0.011  0.00  0.00    +0.159 C 
BRANCH  11  12
ATOM     12  C   UNL     1       4.069   3.628   1.399  0.00  0.00    +0.007 A 
ATOM     13  C   UNL     1       4.363   2.349   1.835  0.00  0.00    +0.008 A 
ATOM     14  C   UNL     1       4.807   2.144   3.127  0.00  0.00    +0.000 A 
ATOM     15  C   UNL     1       4.959   3.217   3.986  0.00  0.00    +0.003 A 
ATOM     16  C   UNL     1       4.666   4.496   3.552  0.00  0.00    +0.039 A 
ATOM     17  C   UNL     1       4.225   4.703   2.256  0.00  0.00    +0.128 A 
ATOM     18  F   UNL     1       3.944   5.954   1.829  0.00  0.00    -0.205 F 
ENDBRANCH  11  12
ENDBRANCH   4  11
ENDBRANCH   1   2
BRANCH   1  19
ATOM     19  C   UNL     1      -1.538   5.923   1.515  0.00  0.00    +0.100 C 
BRANCH  19  21
ATOM     20  N   UNL     1      -3.260   7.203   2.745  0.00  0.00    -0.315 N 
ATOM     21  C   UNL     1      -2.674   6.912   1.567  0.00  0.00    +0.213 C 
ATOM     22  O   UNL     1      -3.061   7.446   0.549  0.00  0.00    -0.276 OA
ATOM     23  H   UNL     1      -2.909   6.719   3.669  0.00  0.00    +0.149 HD
BRANCH  20  24
ATOM     24  C   UNL     1      -4.365   8.164   2.796  0.00  0.00    +0.102 C 
BRANCH  24  25
ATOM     25  C   UNL     1      -4.846   8.312   4.241  0.00  0.00    +0.000 C 
BRANCH  25  26
ATOM     26  C   UNL     1      -5.999   9.316   4.295  0.00  0.00    -0.077 C 
BRANCH  26  32
ATOM     27  C   UNL     1      -6.111   8.622   8.445  0.00  0.00    +0.005 C 
ATOM     28  C   UNL     1      -7.392   8.346   7.656  0.00  0.00    -0.031 C 
ATOM     29  C   UNL     1      -8.371   9.507   7.847  0.00  0.00    +0.003 C 
ATOM     30  C   UNL     1      -7.746  10.788   7.288  0.00  0.00    -0.031 C 
ATOM     31  C   UNL     1      -7.400  10.579   5.812  0.00  0.00    -0.076 C 
ATOM     32  N   UNL     1      -6.461   9.458   5.682  0.00  0.00    +0.380 N 
ATOM     33  C   UNL     1      -7.056   8.207   6.169  0.00  0.00    -0.076 C 
ATOM     34  C   UNL     1      -8.742  11.943   7.420  0.00  0.00    +0.005 C 
ATOM     35  H   UNL     1      -5.585   9.680   6.310  0.00  0.00    -0.082 HD
ENDBRANCH  26  32
ENDBRANCH  25  26
ENDBRANCH  24  25
ENDBRANCH  20  24
ENDBRANCH  19  21
ENDBRANCH   1  19
TORSDOF 9
