REMARK  Name = ZINC23310678
REMARK  7 active torsions:
REMARK  status: ('A' for Active; 'I' for Inactive)
REMARK    1  A    between atoms: C_1  and  C_2
REMARK    2  A    between atoms: C_2  and  C_26
REMARK    3  A    between atoms: N_6  and  C_8
REMARK    4  A    between atoms: C_8  and  C_9
REMARK    5  A    between atoms: N_11  and  C_14
REMARK    6  A    between atoms: N_17  and  C_20
REMARK    7  A    between atoms: C_26  and  O_27
REMARK                            x       y       z     vdW  Elec       q    Type
REMARK                         _______ _______ _______ _____ _____    ______ ____
ROOT
ATOM      1  C   UNL     1       4.282   1.259   2.264  0.00  0.00    +0.066 A 
ATOM      2  C   UNL     1       4.955   0.087   2.175  0.00  0.00    +0.132 A 
ATOM      3  N   UNL     1       5.458  -0.152   3.408  0.00  0.00    -0.248 N 
ATOM      4  N   UNL     1       5.101   0.811   4.184  0.00  0.00    -0.065 NA
ATOM      5  N   UNL     1       4.399   1.669   3.532  0.00  0.00    -0.136 NA
ENDROOT
BRANCH   3   6
ATOM      6  C   UNL     1       6.267  -1.311   3.794  0.00  0.00    +0.112 C 
ATOM      7  C   UNL     1       7.166  -1.721   2.625  0.00  0.00    +0.046 C 
ATOM      8  C   UNL     1       7.963  -2.968   3.013  0.00  0.00    +0.107 C 
ATOM      9  N   UNL     1       7.037  -4.058   3.347  0.00  0.00    -0.330 N 
ATOM     10  C   UNL     1       6.196  -3.705   4.498  0.00  0.00    +0.107 C 
ATOM     11  C   UNL     1       5.346  -2.480   4.154  0.00  0.00    +0.046 C 
BRANCH   9  12
ATOM     12  C   UNL     1       7.727  -5.245   3.578  0.00  0.00    +0.032 A 
ATOM     13  C   UNL     1       7.579  -5.936   4.780  0.00  0.00    +0.040 A 
ATOM     14  C   UNL     1       8.275  -7.111   4.968  0.00  0.00    +0.084 A 
ATOM     15  N   UNL     1       9.081  -7.577   4.032  0.00  0.00    -0.367 N 
ATOM     16  C   UNL     1       9.253  -6.949   2.884  0.00  0.00    +0.084 A 
ATOM     17  C   UNL     1       8.588  -5.771   2.616  0.00  0.00    +0.040 A 
ATOM     18  H   UNL     1       9.634  -8.513   4.198  0.00  0.00    +0.165 HD
ENDBRANCH   9  12
ENDBRANCH   3   6
BRANCH   1  19
ATOM     19  C   UNL     1       3.543   1.960   1.153  0.00  0.00    -0.019 C 
BRANCH  19  25
ATOM     20  C   UNL     1       0.002  -0.004   0.002  0.00  0.00    +0.011 C 
ATOM     21  C   UNL     1      -0.019   1.526   0.010  0.00  0.00    -0.024 C 
ATOM     22  C   UNL     1      -0.731   2.020   1.272  0.00  0.00    +0.005 C 
ATOM     23  C   UNL     1       0.051   1.558   2.505  0.00  0.00    -0.018 C 
ATOM     24  C   UNL     1       1.485   2.087   2.422  0.00  0.00    -0.078 C 
ATOM     25  N   UNL     1       2.123   1.586   1.198  0.00  0.00    +0.384 N 
ATOM     26  C   UNL     1       1.417   2.056  -0.000  0.00  0.00    -0.069 C 
ATOM     27  H   UNL     1       2.061   0.488   1.214  0.00  0.00    -0.081 HD
BRANCH  21  28
ATOM     28  C   UNL     1      -0.760   2.033  -1.228  0.00  0.00    +0.160 C 
BRANCH  28  29
ATOM     29  O   UNL     1      -2.101   1.539  -1.216  0.00  0.00    -0.395 OA
ATOM     30  H   UNL     1      -2.791   1.801  -2.032  0.00  0.00    +0.209 HD
ENDBRANCH  28  29
ENDBRANCH  21  28
ENDBRANCH  19  25
ENDBRANCH   1  19
TORSDOF 6
