REMARK  Name = ZINC39943556
REMARK  18 active torsions:
REMARK  status: ('A' for Active; 'I' for Inactive)
REMARK    1  A    between atoms: C_1  and  C_2
REMARK    2  A    between atoms: C_2  and  C_4
REMARK    3  A    between atoms: C_2  and  N_10
REMARK    4  A    between atoms: C_11  and  C_13
REMARK    5  A    between atoms: C_13  and  N_14
REMARK    6  A    between atoms: N_14  and  C_15
REMARK    7  A    between atoms: N_14  and  C_16
REMARK    8  A    between atoms: C_16  and  C_17
REMARK    9  A    between atoms: N_19  and  C_20
REMARK   10  A    between atoms: N_19  and  C_24
REMARK   11  A    between atoms: C_20  and  C_21
REMARK   12  A    between atoms: C_21  and  C_22
REMARK   13  A    between atoms: C_21  and  C_23
REMARK   14  A    between atoms: C_25  and  N_37
REMARK   15  A    between atoms: N_26  and  C_33
REMARK   16  A    between atoms: C_33  and  C_34
REMARK   17  A    between atoms: C_34  and  C_35
REMARK   18  A    between atoms: C_34  and  C_36
REMARK                            x       y       z     vdW  Elec       q    Type
REMARK                         _______ _______ _______ _____ _____    ______ ____
ROOT
ATOM      1  C   UNL     1      -0.454  -2.868   6.858  0.00  0.00    +0.203 C 
ATOM      2  O   UNL     1      -1.652  -2.877   6.668  0.00  0.00    -0.277 OA
ATOM      3  N   UNL     1       0.037  -3.152   8.083  0.00  0.00    -0.266 N 
ENDROOT
BRANCH   3   4
ATOM      4  C   UNL     1      -0.845  -3.367   9.163  0.00  0.00    +0.140 A 
ATOM      5  C   UNL     1      -1.716  -2.375   9.566  0.00  0.00    +0.127 A 
ATOM      6  N   UNL     1      -2.563  -2.615  10.623  0.00  0.00    -0.280 N 
ATOM      7  C   UNL     1      -2.543  -3.802  11.256  0.00  0.00    +0.331 A 
ATOM      8  O   UNL     1      -3.301  -3.994  12.188  0.00  0.00    -0.246 OA
ATOM      9  N   UNL     1      -1.702  -4.780  10.877  0.00  0.00    -0.273 N 
ATOM     10  H   UNL     1      -1.707  -5.627  11.349  0.00  0.00    +0.173 HD
ATOM     11  C   UNL     1      -0.855  -4.598   9.845  0.00  0.00    +0.277 A 
ATOM     12  O   UNL     1      -0.099  -5.493   9.507  0.00  0.00    -0.266 OA
BRANCH   5  13
ATOM     13  N   UNL     1      -1.736  -1.163   8.920  0.00  0.00    -0.343 N 
ATOM     14  H   UNL     1      -1.101  -0.981   8.210  0.00  0.00    +0.144 HD
ATOM     15  H   UNL     1      -2.385  -0.488   9.175  0.00  0.00    +0.144 HD
ENDBRANCH   5  13
BRANCH   6  16
ATOM     16  C   UNL     1      -3.493  -1.571  11.062  0.00  0.00    +0.131 C 
BRANCH  16  17
ATOM     17  C   UNL     1      -4.813  -1.711  10.301  0.00  0.00    +0.003 C 
ATOM     18  C   UNL     1      -5.482  -3.034  10.680  0.00  0.00    +0.009 C 
ATOM     19  C   UNL     1      -5.738  -0.548  10.667  0.00  0.00    +0.009 C 
ENDBRANCH  16  17
ENDBRANCH   6  16
ENDBRANCH   3   4
BRANCH   1  20
ATOM     20  C   UNL     1       0.486  -2.539   5.727  0.00  0.00    +0.019 C 
BRANCH  20  21
ATOM     21  N   UNL     1      -0.288  -2.270   4.509  0.00  0.00    +0.389 N 
ATOM     22  C   UNL     1      -1.101  -1.062   4.702  0.00  0.00    -0.095 C 
ATOM     23  H   UNL     1      -0.893  -3.054   4.314  0.00  0.00    -0.081 HD
BRANCH  21  24
ATOM     24  C   UNL     1       0.629  -2.067   3.380  0.00  0.00    +0.019 C 
BRANCH  24  26
ATOM     25  N   UNL     1       0.471  -1.716   0.936  0.00  0.00    -0.310 N 
ATOM     26  C   UNL     1      -0.165  -1.913   2.108  0.00  0.00    +0.197 C 
ATOM     27  O   UNL     1      -1.376  -1.967   2.139  0.00  0.00    -0.278 OA
ATOM     28  H   UNL     1       1.440  -1.673   0.911  0.00  0.00    +0.149 HD
BRANCH  25  30
ATOM     29  C   UNL     1      -0.734  -0.107  -0.457  0.00  0.00    +0.033 C 
ATOM     30  C   UNL     1      -0.301  -1.566  -0.300  0.00  0.00    +0.100 C 
BRANCH  30  31
ATOM     31  C   UNL     1       0.552  -1.967  -1.476  0.00  0.00    -0.027 A 
ATOM     32  C   UNL     1       1.888  -1.615  -1.512  0.00  0.00    +0.005 A 
ATOM     33  C   UNL     1       2.671  -1.982  -2.591  0.00  0.00    +0.000 A 
ATOM     34  C   UNL     1       2.116  -2.702  -3.634  0.00  0.00    +0.000 A 
ATOM     35  C   UNL     1       0.780  -3.054  -3.597  0.00  0.00    +0.000 A 
ATOM     36  C   UNL     1      -0.001  -2.690  -2.516  0.00  0.00    +0.005 A 
ENDBRANCH  30  31
ENDBRANCH  25  30
ENDBRANCH  24  26
ENDBRANCH  21  24
ENDBRANCH  20  21
ENDBRANCH   1  20
BRANCH   3  37
ATOM     37  C   UNL     1       1.484  -3.237   8.290  0.00  0.00    +0.117 C 
BRANCH  37  38
ATOM     38  C   UNL     1       2.041  -1.842   8.581  0.00  0.00    +0.001 C 
ATOM     39  C   UNL     1       1.478  -1.335   9.910  0.00  0.00    +0.009 C 
ATOM     40  C   UNL     1       3.567  -1.909   8.666  0.00  0.00    +0.009 C 
ENDBRANCH  37  38
ENDBRANCH   3  37
TORSDOF 12
