REMARK  Name = ZINC12710650
REMARK  9 active torsions:
REMARK  status: ('A' for Active; 'I' for Inactive)
REMARK    1  A    between atoms: C_1  and  C_2
REMARK    2  A    between atoms: C_5  and  C_8
REMARK    3  A    between atoms: C_8  and  C_10
REMARK    4  A    between atoms: C_8  and  N_15
REMARK    5  A    between atoms: C_16  and  C_18
REMARK    6  A    between atoms: C_18  and  C_19
REMARK    7  A    between atoms: C_19  and  S_20
REMARK    8  A    between atoms: S_20  and  C_21
REMARK    9  A    between atoms: C_21  and  C_22
REMARK                            x       y       z     vdW  Elec       q    Type
REMARK                         _______ _______ _______ _____ _____    ______ ____
ROOT
ATOM      1  C   UNL     1       1.498  -3.454  -3.153  0.00  0.00    +0.106 C 
ENDROOT
BRANCH   1   3
ATOM      2  N   UNL     1       1.913  -2.481  -0.917  0.00  0.00    -0.304 N 
ATOM      3  C   UNL     1       2.168  -2.460  -2.240  0.00  0.00    +0.215 C 
ATOM      4  O   UNL     1       2.937  -1.641  -2.697  0.00  0.00    -0.276 OA
ATOM      5  H   UNL     1       1.298  -3.136  -0.552  0.00  0.00    +0.150 HD
BRANCH   2   6
ATOM      6  C   UNL     1       2.565  -1.514  -0.030  0.00  0.00    +0.140 C 
BRANCH   6  11
ATOM      7  C   UNL     1       2.821  -3.676   5.322  0.00  0.00    +0.044 C 
ATOM      8  C   UNL     1       2.754  -3.113   3.926  0.00  0.00    -0.050 A 
ATOM      9  C   UNL     1       3.826  -2.405   3.415  0.00  0.00    +0.004 A 
ATOM     10  C   UNL     1       3.764  -1.888   2.134  0.00  0.00    +0.006 A 
ATOM     11  C   UNL     1       2.631  -2.078   1.366  0.00  0.00    -0.022 A 
ATOM     12  C   UNL     1       1.558  -2.781   1.879  0.00  0.00    +0.006 A 
ATOM     13  C   UNL     1       1.621  -3.303   3.158  0.00  0.00    +0.004 A 
ENDBRANCH   6  11
BRANCH   6  14
ATOM     14  C   UNL     1       1.773  -0.232  -0.016  0.00  0.00    +0.014 A 
ATOM     15  C   UNL     1       2.220   1.048  -0.013  0.00  0.00    +0.013 A 
ATOM     16  C   UNL     1       1.300   2.079   0.001  0.00  0.00    +0.008 A 
ATOM     17  C   UNL     1      -0.022   1.781   0.012  0.00  0.00    +0.045 A 
ATOM     18  S   UNL     1       0.002  -0.004   0.002  0.00  0.00    -0.099 S 
ENDBRANCH   6  14
ENDBRANCH   2   6
ENDBRANCH   1   3
BRANCH   1  19
ATOM     19  C   UNL     1       1.956  -3.216  -4.593  0.00  0.00    +0.079 C 
BRANCH  19  20
ATOM     20  S   UNL     1       1.149  -4.413  -5.691  0.00  0.00    -0.153 S 
BRANCH  20  21
ATOM     21  C   UNL     1       1.791  -4.001  -7.337  0.00  0.00    +0.143 C 
BRANCH  21  22
ATOM     22  C   UNL     1       1.192  -4.933  -8.357  0.00  0.00    +0.121 A 
ATOM     23  N   UNL     1       1.537  -4.801  -9.664  0.00  0.00    -0.310 N 
ATOM     24  H   UNL     1       2.165  -4.108  -9.922  0.00  0.00    +0.170 HD
ATOM     25  C   UNL     1       1.026  -5.613 -10.609  0.00  0.00    +0.260 A 
ATOM     26  O   UNL     1       1.345  -5.483 -11.778  0.00  0.00    -0.267 OA
ATOM     27  C   UNL     1       0.100  -6.633 -10.214  0.00  0.00    +0.075 A 
ATOM     28  C   UNL     1      -0.577  -7.622 -11.066  0.00  0.00    -0.023 A 
ATOM     29  C   UNL     1      -1.407  -8.484 -10.454  0.00  0.00    -0.004 A 
ATOM     30  S   UNL     1      -1.344  -8.039  -8.733  0.00  0.00    -0.073 S 
ATOM     31  C   UNL     1      -0.195  -6.693  -8.845  0.00  0.00    +0.116 A 
ATOM     32  N   UNL     1       0.354  -5.857  -7.968  0.00  0.00    -0.226 NA
ATOM     33  C   UNL     1      -2.037  -9.449 -11.421  0.00  0.00    +0.043 C 
ATOM     34  C   UNL     1      -1.160  -9.357 -12.688  0.00  0.00    +0.010 C 
ATOM     35  C   UNL     1      -0.579  -7.934 -12.565  0.00  0.00    +0.037 C 
ENDBRANCH  21  22
ENDBRANCH  20  21
ENDBRANCH  19  20
ENDBRANCH   1  19
TORSDOF 8
