REMARK  Name = ZINC11855862
REMARK  7 active torsions:
REMARK  status: ('A' for Active; 'I' for Inactive)
REMARK    1  A    between atoms: C_1  and  C_2
REMARK    2  A    between atoms: C_2  and  C_37
REMARK    3  A    between atoms: C_8  and  O_11
REMARK    4  A    between atoms: O_11  and  C_12
REMARK    5  A    between atoms: C_12  and  C_13
REMARK    6  A    between atoms: N_15  and  C_16
REMARK    7  A    between atoms: C_18  and  C_32
REMARK                            x       y       z     vdW  Elec       q    Type
REMARK                         _______ _______ _______ _____ _____    ______ ____
ROOT
ATOM      1  C   UNL     1       0.604  -2.058  -1.026  0.00  0.00    +0.132 A 
ATOM      2  C   UNL     1       0.081  -2.870  -0.073  0.00  0.00    +0.074 A 
ATOM      3  C   UNL     1       0.313  -4.205  -0.470  0.00  0.00    +0.102 A 
ATOM      4  N   UNL     1       0.960  -4.186  -1.617  0.00  0.00    -0.162 NA
ATOM      5  N   UNL     1       1.157  -2.851  -1.990  0.00  0.00    -0.185 N 
ATOM      6  C   UNL     1       1.798  -2.413  -3.133  0.00  0.00    +0.234 A 
ATOM      7  N   UNL     1       2.306  -3.325  -4.004  0.00  0.00    -0.291 N 
ATOM      8  H   UNL     1       2.218  -4.274  -3.823  0.00  0.00    +0.172 HD
ATOM      9  C   UNL     1       2.929  -2.903  -5.125  0.00  0.00    +0.256 A 
ATOM     10  O   UNL     1       3.387  -3.705  -5.921  0.00  0.00    -0.267 OA
ATOM     11  C   UNL     1       3.044  -1.518  -5.356  0.00  0.00    +0.038 A 
ATOM     12  C   UNL     1       2.521  -0.650  -4.445  0.00  0.00    +0.053 A 
ATOM     13  N   UNL     1       1.910  -1.123  -3.355  0.00  0.00    -0.217 NA
ATOM     14  C   UNL     1       2.759   0.776  -4.894  0.00  0.00    +0.056 C 
ATOM     15  C   UNL     1       3.866   0.681  -5.965  0.00  0.00    +0.011 C 
ATOM     16  C   UNL     1       3.681  -0.757  -6.497  0.00  0.00    +0.043 C 
ENDROOT
BRANCH   3  17
ATOM     17  C   UNL     1      -0.095  -5.414   0.276  0.00  0.00    +0.039 A 
ATOM     18  C   UNL     1       0.099  -6.731  -0.043  0.00  0.00    +0.018 A 
ATOM     19  C   UNL     1      -0.375  -7.698   0.816  0.00  0.00    +0.008 A 
ATOM     20  C   UNL     1      -1.018  -7.317   1.950  0.00  0.00    +0.046 A 
ATOM     21  S   UNL     1      -0.963  -5.537   1.831  0.00  0.00    -0.095 S 
ENDBRANCH   3  17
BRANCH   1  24
ATOM     22  C   UNL     1       0.002  -0.004   0.002  0.00  0.00    +0.256 C 
ATOM     23  O   UNL     1      -0.506  -0.623   0.913  0.00  0.00    -0.272 OA
ATOM     24  N   UNL     1       0.585  -0.664  -1.018  0.00  0.00    -0.267 N 
ATOM     25  H   UNL     1       0.992  -0.170  -1.747  0.00  0.00    +0.156 HD
BRANCH  22  26
ATOM     26  C   UNL     1      -0.018   1.503   0.010  0.00  0.00    +0.325 C 
BRANCH  26  27
ATOM     27  O   UNL     1      -0.687   1.964   1.186  0.00  0.00    -0.479 OA
BRANCH  27  35
ATOM     28  C   UNL     1      -0.940   4.005   5.534  0.00  0.00    +0.056 C 
ATOM     29  C   UNL     1      -2.166   4.084   4.623  0.00  0.00    +0.109 C 
ATOM     30  C   UNL     1      -2.247   5.465   3.931  0.00  0.00    +0.086 C 
ATOM     31  C   UNL     1      -1.524   5.203   2.623  0.00  0.00    +0.002 A 
ATOM     32  C   UNL     1      -0.999   6.051   1.671  0.00  0.00    +0.007 A 
ATOM     33  C   UNL     1      -0.368   5.533   0.555  0.00  0.00    +0.004 A 
ATOM     34  C   UNL     1      -0.265   4.163   0.397  0.00  0.00    +0.049 A 
ATOM     35  C   UNL     1      -0.793   3.310   1.349  0.00  0.00    +0.163 A 
ATOM     36  C   UNL     1      -1.440   3.827   2.473  0.00  0.00    +0.166 A 
ATOM     37  O   UNL     1      -2.036   3.180   3.514  0.00  0.00    -0.482 OA
ATOM     38  C   UNL     1      -3.447   3.796   5.410  0.00  0.00    +0.056 C 
ENDBRANCH  27  35
ENDBRANCH  26  27
ENDBRANCH  22  26
ENDBRANCH   1  24
TORSDOF 5
