REMARK  Name = ZINC39687107
REMARK  9 active torsions:
REMARK  status: ('A' for Active; 'I' for Inactive)
REMARK    1  A    between atoms: C_1  and  C_2
REMARK    2  A    between atoms: C_4  and  C_7
REMARK    3  A    between atoms: C_8  and  C_13
REMARK    4  A    between atoms: C_9  and  C_12
REMARK    5  A    between atoms: C_17  and  C_26
REMARK    6  A    between atoms: N_28  and  C_29
REMARK    7  A    between atoms: C_29  and  C_31
REMARK    8  A    between atoms: C_29  and  C_32
REMARK    9  A    between atoms: C_32  and  C_33
REMARK                            x       y       z     vdW  Elec       q    Type
REMARK                         _______ _______ _______ _____ _____    ______ ____
ROOT
ATOM      1  C   UNL     1       0.179  -4.408   0.685  0.00  0.00    +0.252 C 
ATOM      2  O   UNL     1       0.795  -4.571   1.721  0.00  0.00    -0.270 OA
ATOM      3  N   UNL     1       0.736  -4.753  -0.492  0.00  0.00    -0.296 N 
ATOM      4  C   UNL     1       0.117  -4.708  -1.838  0.00  0.00    +0.121 C 
ATOM      5  C   UNL     1       1.245  -4.211  -2.770  0.00  0.00    +0.100 C 
ATOM      6  C   UNL     1       2.548  -4.580  -2.041  0.00  0.00    -0.004 C 
ATOM      7  C   UNL     1       2.109  -5.258  -0.735  0.00  0.00    +0.115 C 
ATOM      8  C   UNL     1       3.372  -5.546  -2.887  0.00  0.00    -0.010 C 
ATOM      9  C   UNL     1       4.688  -5.853  -2.168  0.00  0.00    -0.082 C 
ATOM     10  N   UNL     1       5.431  -4.606  -1.949  0.00  0.00    +0.379 N 
ATOM     11  C   UNL     1       4.672  -3.720  -1.058  0.00  0.00    -0.082 C 
ATOM     12  C   UNL     1       3.355  -3.323  -1.731  0.00  0.00    -0.010 C 
ATOM     13  H   UNL     1       6.324  -4.817  -1.530  0.00  0.00    -0.086 HD
ATOM     14  H   UNL     1       5.578  -4.144  -2.834  0.00  0.00    -0.086 HD
ENDROOT
BRANCH   1  16
ATOM     15  C   UNL     1      -1.498  -2.483   0.708  0.00  0.00    +0.201 A 
ATOM     16  C   UNL     1      -1.177  -3.832   0.718  0.00  0.00    +0.108 A 
ATOM     17  C   UNL     1      -2.395  -4.554   0.765  0.00  0.00    +0.093 A 
ATOM     18  N   UNL     1      -3.373  -3.699   0.782  0.00  0.00    -0.082 NA
ATOM     19  O   UNL     1      -2.837  -2.390   0.752  0.00  0.00    -0.352 OA
ATOM     20  C   UNL     1      -2.533  -6.055   0.790  0.00  0.00    +0.070 C 
BRANCH  15  24
ATOM     21  C   UNL     1       0.383   2.230   0.670  0.00  0.00    +0.089 C 
ATOM     22  C   UNL     1       0.270   0.727   0.648  0.00  0.00    +0.135 A 
ATOM     23  C   UNL     1      -0.873   0.022   0.714  0.00  0.00    +0.079 A 
ATOM     24  C   UNL     1      -0.543  -1.355   0.663  0.00  0.00    +0.152 A 
ATOM     25  N   UNL     1       0.763  -1.450   0.569  0.00  0.00    -0.075 NA
ATOM     26  O   UNL     1       1.293  -0.137   0.553  0.00  0.00    -0.359 OA
ENDBRANCH  15  24
ENDBRANCH   1  16
BRANCH   5  27
ATOM     27  C   UNL     1       1.151  -2.718  -2.957  0.00  0.00    +0.218 C 
ATOM     28  O   UNL     1       0.749  -2.018  -2.053  0.00  0.00    -0.275 OA
ATOM     29  N   UNL     1       1.514  -2.162  -4.130  0.00  0.00    -0.312 N 
ATOM     30  H   UNL     1       1.767  -2.727  -4.877  0.00  0.00    +0.149 HD
BRANCH  29  31
ATOM     31  C   UNL     1       1.526  -0.705  -4.277  0.00  0.00    +0.074 C 
ATOM     32  C   UNL     1       2.890  -0.160  -3.848  0.00  0.00    +0.028 C 
BRANCH  31  33
ATOM     33  C   UNL     1       1.268  -0.338  -5.740  0.00  0.00    +0.060 C 
BRANCH  33  34
ATOM     34  C   UNL     1      -0.130  -0.750  -6.123  0.00  0.00    -0.010 A 
ATOM     35  C   UNL     1      -0.348  -1.971  -6.732  0.00  0.00    +0.006 A 
ATOM     36  C   UNL     1      -1.631  -2.349  -7.083  0.00  0.00    +0.000 A 
ATOM     37  C   UNL     1      -2.696  -1.507  -6.825  0.00  0.00    +0.003 A 
ATOM     38  C   UNL     1      -2.480  -0.286  -6.215  0.00  0.00    +0.038 A 
ATOM     39  C   UNL     1      -1.197   0.092  -5.859  0.00  0.00    +0.127 A 
ATOM     40  F   UNL     1      -0.985   1.284  -5.258  0.00  0.00    -0.205 F 
ENDBRANCH  33  34
ENDBRANCH  31  33
ENDBRANCH  29  31
ENDBRANCH   5  27
TORSDOF 6
