REMARK  Name = ZINC40352287
REMARK  10 active torsions:
REMARK  status: ('A' for Active; 'I' for Inactive)
REMARK    1  A    between atoms: C_1  and  O_2
REMARK    2  A    between atoms: O_2  and  C_3
REMARK    3  A    between atoms: C_5  and  C_23
REMARK    4  A    between atoms: C_7  and  N_22
REMARK    5  A    between atoms: C_8  and  O_9
REMARK    6  A    between atoms: O_9  and  C_10
REMARK    7  A    between atoms: C_10  and  C_11
REMARK    8  A    between atoms: C_11  and  C_13
REMARK    9  A    between atoms: C_11  and  O_21
REMARK   10  A    between atoms: C_23  and  O_24
REMARK                            x       y       z     vdW  Elec       q    Type
REMARK                         _______ _______ _______ _____ _____    ______ ____
ROOT
ATOM      1  C   UNL     1       0.606  -0.608  -1.056  0.00  0.00    +0.164 A 
ATOM      2  C   UNL     1       1.173   0.161  -2.063  0.00  0.00    +0.055 A 
ATOM      3  C   UNL     1       1.788  -0.451  -3.139  0.00  0.00    -0.017 A 
ATOM      4  C   UNL     1       1.841  -1.830  -3.219  0.00  0.00    +0.032 A 
ATOM      5  C   UNL     1       1.276  -2.606  -2.216  0.00  0.00    +0.071 A 
ATOM      6  C   UNL     1       0.661  -1.994  -1.128  0.00  0.00    +0.183 A 
ENDROOT
BRANCH   5   7
ATOM      7  N   UNL     1       1.329  -4.003  -2.296  0.00  0.00    -0.355 N 
ATOM      8  H   UNL     1       1.761  -4.429  -3.053  0.00  0.00    +0.142 HD
ATOM      9  H   UNL     1       0.934  -4.544  -1.595  0.00  0.00    +0.142 HD
ENDBRANCH   5   7
BRANCH   1  11
ATOM     10  C   UNL     1      -0.017   1.425   0.010  0.00  0.00    +0.277 C 
ATOM     11  O   UNL     1       0.002  -0.004   0.002  0.00  0.00    -0.491 OA
ENDBRANCH   1  11
BRANCH   6  12
ATOM     12  O   UNL     1       0.110  -2.751  -0.140  0.00  0.00    -0.484 OA
BRANCH  12  13
ATOM     13  C   UNL     1      -1.260  -3.123  -0.296  0.00  0.00    +0.265 C 
BRANCH  13  14
ATOM     14  C   UNL     1      -1.700  -3.965   0.904  0.00  0.00    +0.183 C 
BRANCH  14  15
ATOM     15  C   UNL     1      -3.106  -4.460   0.683  0.00  0.00    -0.002 A 
ATOM     16  C   UNL     1      -4.176  -3.753   1.198  0.00  0.00    +0.008 A 
ATOM     17  C   UNL     1      -5.466  -4.207   0.995  0.00  0.00    +0.016 A 
ATOM     18  C   UNL     1      -5.686  -5.368   0.276  0.00  0.00    +0.019 A 
ATOM     19  C   UNL     1      -4.615  -6.074  -0.241  0.00  0.00    +0.031 A 
ATOM     20  C   UNL     1      -3.325  -5.617  -0.041  0.00  0.00    +0.025 A 
ATOM     21 BR   UNL     1      -1.861  -6.579  -0.753  0.00  0.00    -0.050 Br
ATOM     22 BR   UNL     1      -7.451  -5.988  -0.002  0.00  0.00    -0.050 Br
ENDBRANCH  14  15
BRANCH  14  23
ATOM     23  O   UNL     1      -1.657  -3.165   2.088  0.00  0.00    -0.384 OA
ATOM     24  H   UNL     1      -2.232  -2.388   2.059  0.00  0.00    +0.210 HD
ENDBRANCH  14  23
ENDBRANCH  13  14
ENDBRANCH  12  13
ENDBRANCH   6  12
BRANCH   3  25
ATOM     25  C   UNL     1       2.401   0.388  -4.230  0.00  0.00    +0.191 C 
BRANCH  25  26
ATOM     26  O   UNL     1       3.767   0.661  -3.911  0.00  0.00    -0.390 OA
ATOM     27  H   UNL     1       4.226   1.198  -4.571  0.00  0.00    +0.210 HD
ENDBRANCH  25  26
ENDBRANCH   3  25
TORSDOF 9
