REMARK  Name = ZINC64502620
REMARK  9 active torsions:
REMARK  status: ('A' for Active; 'I' for Inactive)
REMARK    1  A    between atoms: C_1  and  C_2
REMARK    2  A    between atoms: C_8  and  C_11
REMARK    3  A    between atoms: C_11  and  C_12
REMARK    4  A    between atoms: C_12  and  N_13
REMARK    5  A    between atoms: C_14  and  C_16
REMARK    6  A    between atoms: C_16  and  C_17
REMARK    7  A    between atoms: C_23  and  C_25
REMARK    8  A    between atoms: C_27  and  C_32
REMARK    9  A    between atoms: C_29  and  C_31
REMARK                            x       y       z     vdW  Elec       q    Type
REMARK                         _______ _______ _______ _____ _____    ______ ____
ROOT
ATOM      1  N   UNL     1      -1.034  -1.413   5.638  0.00  0.00    -0.315 N 
ATOM      2  C   UNL     1      -2.165  -1.655   6.330  0.00  0.00    +0.213 C 
ATOM      3  O   UNL     1      -3.136  -2.110   5.764  0.00  0.00    -0.276 OA
ATOM      4  H   UNL     1      -0.257  -1.050   6.090  0.00  0.00    +0.149 HD
ENDROOT
BRANCH   1   5
ATOM      5  C   UNL     1      -0.979  -1.698   4.202  0.00  0.00    +0.108 C 
BRANCH   5   6
ATOM      6  C   UNL     1       0.406  -1.335   3.662  0.00  0.00    +0.052 C 
BRANCH   6  14
ATOM      7  C   UNL     1      -0.635   2.744  -0.075  0.00  0.00    +0.044 C 
ATOM      8  C   UNL     1      -0.275   1.281  -0.045  0.00  0.00    -0.050 A 
ATOM      9  C   UNL     1      -0.119   0.592  -1.256  0.00  0.00    +0.005 A 
ATOM     10  C   UNL     1       0.202  -0.718  -1.313  0.00  0.00    +0.026 A 
ATOM     11  C   UNL     1       0.398  -1.463  -0.118  0.00  0.00    +0.043 A 
ATOM     12  N   UNL     1       0.708  -2.720   0.087  0.00  0.00    -0.380 N 
ATOM     13  C   UNL     1       0.781  -2.955   1.533  0.00  0.00    +0.144 C 
ATOM     14  C   UNL     1       0.463  -1.628   2.185  0.00  0.00    -0.040 C 
ATOM     15  C   UNL     1       0.239  -0.758   1.174  0.00  0.00    -0.001 A 
ATOM     16  C   UNL     1      -0.106   0.669   1.149  0.00  0.00    +0.013 A 
ATOM     17  H   UNL     1       0.863  -3.384  -0.603  0.00  0.00    +0.160 HD
ENDBRANCH   6  14
ENDBRANCH   5   6
ENDBRANCH   1   5
BRANCH   2  18
ATOM     18  C   UNL     1      -2.221  -1.363   7.807  0.00  0.00    +0.099 C 
BRANCH  18  19
ATOM     19  C   UNL     1      -3.606  -1.725   8.346  0.00  0.00    +0.001 C 
ATOM     20  C   UNL     1      -4.656  -0.811   7.710  0.00  0.00    +0.023 C 
ATOM     21  C   UNL     1      -6.045  -1.200   8.226  0.00  0.00    +0.108 C 
ATOM     22  N   UNL     1      -6.030  -1.170   9.695  0.00  0.00    -0.297 N 
ATOM     23  C   UNL     1      -5.003  -1.943  10.406  0.00  0.00    +0.108 C 
ATOM     24  C   UNL     1      -3.625  -1.546   9.866  0.00  0.00    +0.023 C 
ATOM     25  C   UNL     1      -6.941  -0.448  10.376  0.00  0.00    +0.261 C 
ATOM     26  O   UNL     1      -7.710   0.281   9.779  0.00  0.00    -0.269 OA
BRANCH  25  27
ATOM     27  C   UNL     1      -7.005  -0.540  11.845  0.00  0.00    +0.110 C 
ATOM     28  N   UNL     1      -6.342  -1.360  12.606  0.00  0.00    -0.251 NA
ATOM     29  C   UNL     1      -6.605  -1.212  13.909  0.00  0.00    +0.035 C 
ATOM     30  C   UNL     1      -7.498  -0.247  14.144  0.00  0.00    +0.005 C 
ATOM     31  C   UNL     1      -7.852   0.306  12.776  0.00  0.00    +0.064 C 
ATOM     32  C   UNL     1      -7.466   1.783  12.669  0.00  0.00    +0.018 C 
ATOM     33  C   UNL     1      -5.965  -2.043  14.991  0.00  0.00    +0.065 C 
ENDBRANCH  25  27
ENDBRANCH  18  19
ENDBRANCH   2  18
TORSDOF 6
