REMARK  Name = ZINC16061252
REMARK  8 active torsions:
REMARK  status: ('A' for Active; 'I' for Inactive)
REMARK    1  A    between atoms: C_1  and  C_2
REMARK    2  A    between atoms: C_5  and  N_8
REMARK    3  A    between atoms: C_9  and  S_13
REMARK    4  A    between atoms: S_13  and  C_14
REMARK    5  A    between atoms: C_14  and  C_16
REMARK    6  A    between atoms: C_14  and  C_17
REMARK    7  A    between atoms: C_29  and  C_30
REMARK    8  A    between atoms: C_29  and  C_31
REMARK                            x       y       z     vdW  Elec       q    Type
REMARK                         _______ _______ _______ _____ _____    ______ ____
ROOT
ATOM      1  C   UNL     1       3.755  -5.927   3.617  0.00  0.00    +0.234 C 
ATOM      2  O   UNL     1       3.583  -5.088   4.476  0.00  0.00    -0.274 OA
ATOM      3  N   UNL     1       4.578  -6.969   3.849  0.00  0.00    -0.255 N 
ATOM      4  C   UNL     1       4.797  -7.951   2.870  0.00  0.00    +0.059 A 
ATOM      5  C   UNL     1       3.823  -8.260   1.938  0.00  0.00    +0.025 A 
ATOM      6  C   UNL     1       4.067  -9.235   0.988  0.00  0.00    +0.002 A 
ATOM      7  C   UNL     1       5.280  -9.900   0.969  0.00  0.00    +0.002 A 
ATOM      8  C   UNL     1       6.258  -9.595   1.897  0.00  0.00    +0.025 A 
ATOM      9  C   UNL     1       6.024  -8.617   2.851  0.00  0.00    +0.055 A 
ATOM     10  N   UNL     1       7.004  -8.285   3.792  0.00  0.00    -0.282 N 
ATOM     11  C   UNL     1       6.696  -7.551   4.877  0.00  0.00    +0.241 C 
ATOM     12  O   UNL     1       7.570  -7.237   5.657  0.00  0.00    -0.273 OA
ATOM     13  C   UNL     1       5.281  -7.110   5.133  0.00  0.00    +0.113 C 
ATOM     14  C   UNL     1       4.570  -8.157   5.993  0.00  0.00    +0.042 C 
ATOM     15  C   UNL     1       5.288  -5.765   5.863  0.00  0.00    +0.042 C 
ATOM     16  H   UNL     1       7.917  -8.588   3.661  0.00  0.00    +0.155 HD
ENDROOT
BRANCH   1  17
ATOM     17  C   UNL     1       3.049  -5.806   2.292  0.00  0.00    +0.137 C 
ATOM     18  C   UNL     1       1.616  -6.326   2.428  0.00  0.00    +0.029 C 
BRANCH  17  19
ATOM     19  S   UNL     1       3.014  -4.065   1.783  0.00  0.00    -0.072 S 
BRANCH  19  21
ATOM     20  N   UNL     1       2.061  -3.039  -0.631  0.00  0.00    -0.187 N 
ATOM     21  C   UNL     1       2.300  -4.106   0.173  0.00  0.00    +0.215 A 
ATOM     22  N   UNL     1       1.897  -5.176  -0.478  0.00  0.00    -0.101 NA
ATOM     23  N   UNL     1       1.426  -4.854  -1.628  0.00  0.00    -0.022 NA
ATOM     24  N   UNL     1       1.484  -3.577  -1.795  0.00  0.00    -0.038 NA
BRANCH  20  29
ATOM     25  C   UNL     1       3.136   2.423   0.475  0.00  0.00    +0.044 C 
ATOM     26  C   UNL     1       2.850   0.973   0.181  0.00  0.00    -0.050 A 
ATOM     27  C   UNL     1       2.981   0.491  -1.108  0.00  0.00    +0.005 A 
ATOM     28  C   UNL     1       2.720  -0.837  -1.381  0.00  0.00    +0.028 A 
ATOM     29  C   UNL     1       2.327  -1.690  -0.358  0.00  0.00    +0.070 A 
ATOM     30  C   UNL     1       2.197  -1.204   0.936  0.00  0.00    +0.028 A 
ATOM     31  C   UNL     1       2.464   0.125   1.203  0.00  0.00    +0.005 A 
ENDBRANCH  20  29
ENDBRANCH  19  21
ENDBRANCH  17  19
ENDBRANCH   1  17
TORSDOF 4
