REMARK  Name = ZINC59354294
REMARK  7 active torsions:
REMARK  status: ('A' for Active; 'I' for Inactive)
REMARK    1  A    between atoms: C_1  and  C_2
REMARK    2  A    between atoms: C_2  and  C_4
REMARK    3  A    between atoms: C_2  and  C_18
REMARK    4  A    between atoms: C_4  and  C_5
REMARK    5  A    between atoms: N_7  and  C_8
REMARK    6  A    between atoms: C_10  and  N_15
REMARK    7  A    between atoms: C_13  and  O_14
REMARK                            x       y       z     vdW  Elec       q    Type
REMARK                         _______ _______ _______ _____ _____    ______ ____
ROOT
ATOM      1  C   UNL     1      -2.122  -0.143  -1.270  0.00  0.00    +0.218 C 
ATOM      2  O   UNL     1      -1.527   0.502  -2.107  0.00  0.00    -0.275 OA
ATOM      3  N   UNL     1      -3.406  -0.497  -1.479  0.00  0.00    -0.283 N 
ATOM      4  H   UNL     1      -3.862  -1.067  -0.841  0.00  0.00    +0.155 HD
ENDROOT
BRANCH   3   5
ATOM      5  C   UNL     1      -4.082  -0.041  -2.619  0.00  0.00    +0.078 A 
ATOM      6  C   UNL     1      -3.398   0.119  -3.815  0.00  0.00    +0.059 A 
ATOM      7  C   UNL     1      -4.066   0.569  -4.938  0.00  0.00    +0.128 A 
ATOM      8  C   UNL     1      -5.417   0.861  -4.872  0.00  0.00    +0.036 A 
ATOM      9  C   UNL     1      -6.104   0.704  -3.683  0.00  0.00    +0.049 A 
ATOM     10  C   UNL     1      -5.443   0.247  -2.555  0.00  0.00    +0.138 A 
BRANCH   7  11
ATOM     11  N   UNL     1      -3.335   0.740  -6.213  0.00  0.00    +0.056 N 
ATOM     12  O   UNL     1      -2.155   0.486  -6.272  0.00  0.00    -0.126 OA
ATOM     13  O   UNL     1      -3.919   1.134  -7.197  0.00  0.00    -0.126 OA
ENDBRANCH   7  11
BRANCH  10  14
ATOM     14  O   UNL     1      -6.120   0.087  -1.386  0.00  0.00    -0.505 OA
ATOM     15  H   UNL     1      -6.128   0.875  -0.826  0.00  0.00    +0.292 HD
ENDBRANCH  10  14
ENDBRANCH   3   5
BRANCH   1  16
ATOM     16  C   UNL     1      -1.427  -0.550   0.004  0.00  0.00    +0.104 C 
BRANCH  16  18
ATOM     17  C   UNL     1      -0.004   1.504   0.007  0.00  0.00    +0.013 C 
ATOM     18  C   UNL     1       0.011  -0.025  -0.011  0.00  0.00    +0.025 C 
BRANCH  18  19
ATOM     19  C   UNL     1       0.743  -0.535   1.204  0.00  0.00    -0.044 A 
ATOM     20  C   UNL     1       0.282  -0.225   2.470  0.00  0.00    +0.004 A 
ATOM     21  C   UNL     1       0.954  -0.692   3.584  0.00  0.00    +0.000 A 
ATOM     22  C   UNL     1       2.087  -1.469   3.432  0.00  0.00    +0.000 A 
ATOM     23  C   UNL     1       2.547  -1.780   2.166  0.00  0.00    +0.000 A 
ATOM     24  C   UNL     1       1.873  -1.317   1.052  0.00  0.00    +0.004 A 
ENDBRANCH  18  19
ENDBRANCH  16  18
ENDBRANCH   1  16
TORSDOF 6
