REMARK  Name = ZINC19524590
REMARK  11 active torsions:
REMARK  status: ('A' for Active; 'I' for Inactive)
REMARK    1  A    between atoms: C_1  and  C_2
REMARK    2  A    between atoms: C_2  and  N_3
REMARK    3  A    between atoms: C_5  and  C_9
REMARK    4  A    between atoms: C_6  and  C_8
REMARK    5  A    between atoms: C_9  and  N_10
REMARK    6  A    between atoms: N_13  and  S_16
REMARK    7  A    between atoms: S_16  and  C_19
REMARK    8  A    between atoms: N_21  and  C_25
REMARK    9  A    between atoms: C_23  and  C_24
REMARK   10  A    between atoms: C_25  and  C_26
REMARK   11  A    between atoms: C_25  and  C_27
REMARK                            x       y       z     vdW  Elec       q    Type
REMARK                         _______ _______ _______ _____ _____    ______ ____
ROOT
ATOM      1  N   UNL     1       2.938  -5.682  -3.640  0.00  0.00    +0.384 N 
ATOM      2  C   UNL     1       2.349  -4.710  -4.569  0.00  0.00    -0.061 C 
ATOM      3  C   UNL     1       3.317  -3.537  -4.758  0.00  0.00    +0.091 C 
ATOM      4  N   UNL     1       3.663  -3.000  -3.433  0.00  0.00    -0.180 NA
ATOM      5  C   UNL     1       4.138  -3.938  -2.404  0.00  0.00    +0.091 C 
ATOM      6  C   UNL     1       3.132  -5.096  -2.307  0.00  0.00    -0.061 C 
ATOM      7  H   UNL     1       3.929  -5.960  -4.030  0.00  0.00    -0.081 HD
ENDROOT
BRANCH   4   8
ATOM      8  S   UNL     1       3.529  -1.381  -3.110  0.00  0.00    +0.064 S 
ATOM      9  O   UNL     1       3.612  -0.709  -4.359  0.00  0.00    -0.153 OA
ATOM     10  O   UNL     1       4.417  -1.106  -2.036  0.00  0.00    -0.153 OA
BRANCH   8  11
ATOM     11  C   UNL     1       1.899  -1.105  -2.499  0.00  0.00    +0.146 A 
ATOM     12  C   UNL     1       1.576  -0.688  -1.253  0.00  0.00    +0.137 A 
ATOM     13  N   UNL     1       0.231  -0.601  -1.183  0.00  0.00    -0.267 N 
ATOM     14  N   UNL     1      -0.290  -0.982  -2.427  0.00  0.00    -0.174 NA
ATOM     15  C   UNL     1       0.711  -1.279  -3.216  0.00  0.00    +0.086 A 
ATOM     16  C   UNL     1       0.602  -1.735  -4.648  0.00  0.00    +0.069 C 
BRANCH  13  17
ATOM     17  C   UNL     1      -0.546  -0.187  -0.013  0.00  0.00    +0.101 C 
ATOM     18  C   UNL     1      -0.645   1.339   0.020  0.00  0.00    +0.032 C 
ATOM     19  C   UNL     1       0.145  -0.681   1.259  0.00  0.00    +0.032 C 
ENDBRANCH  13  17
ENDBRANCH   8  11
ENDBRANCH   4   8
BRANCH   1  20
ATOM     20  C   UNL     1       2.122  -6.901  -3.565  0.00  0.00    -0.040 C 
BRANCH  20  23
ATOM     21  N   UNL     1       3.002  -8.963  -0.689  0.00  0.00    -0.271 N 
ATOM     22  C   UNL     1       2.192  -8.075  -1.302  0.00  0.00    +0.110 A 
ATOM     23  C   UNL     1       2.702  -7.832  -2.532  0.00  0.00    -0.024 A 
ATOM     24  C   UNL     1       3.860  -8.603  -2.677  0.00  0.00    +0.061 A 
ATOM     25  N   UNL     1       4.044  -9.277  -1.570  0.00  0.00    -0.176 NA
ATOM     26  C   UNL     1       4.745  -8.647  -3.896  0.00  0.00    +0.068 C 
BRANCH  21  28
ATOM     27  C   UNL     1       2.807 -11.032   0.600  0.00  0.00    +0.029 C 
ATOM     28  C   UNL     1       2.822  -9.504   0.661  0.00  0.00    +0.140 C 
ENDBRANCH  21  28
ENDBRANCH  20  23
ENDBRANCH   1  20
TORSDOF 6
