REMARK  Name = ZINC46776278
REMARK  9 active torsions:
REMARK  status: ('A' for Active; 'I' for Inactive)
REMARK    1  A    between atoms: C_1  and  C_2
REMARK    2  A    between atoms: C_2  and  O_3
REMARK    3  A    between atoms: O_3  and  C_4
REMARK    4  A    between atoms: C_4  and  C_6
REMARK    5  A    between atoms: C_9  and  S_11
REMARK    6  A    between atoms: S_11  and  N_14
REMARK    7  A    between atoms: C_20  and  C_22
REMARK    8  A    between atoms: C_22  and  C_23
REMARK    9  A    between atoms: C_23  and  C_24
REMARK                            x       y       z     vdW  Elec       q    Type
REMARK                         _______ _______ _______ _____ _____    ______ ____
ROOT
ATOM      1  N   UNL     1       5.063  -1.877   5.429  0.00  0.00    -0.171 NA
ATOM      2  C   UNL     1       5.975  -3.025   5.524  0.00  0.00    +0.128 C 
ATOM      3  C   UNL     1       6.657  -3.224   4.165  0.00  0.00    +0.125 C 
ATOM      4  N   UNL     1       7.191  -1.931   3.714  0.00  0.00    -0.299 N 
ATOM      5  C   UNL     1       6.279  -0.782   3.619  0.00  0.00    +0.125 C 
ATOM      6  C   UNL     1       5.596  -0.585   4.973  0.00  0.00    +0.128 C 
ATOM      7  C   UNL     1       8.493  -1.801   3.394  0.00  0.00    +0.216 C 
ATOM      8  O   UNL     1       9.236  -2.756   3.477  0.00  0.00    -0.276 OA
ENDROOT
BRANCH   1   9
ATOM      9  S   UNL     1       3.462  -2.036   5.822  0.00  0.00    +0.094 S 
ATOM     10  O   UNL     1       2.997  -0.739   6.165  0.00  0.00    -0.150 OA
ATOM     11  O   UNL     1       3.371  -3.139   6.714  0.00  0.00    -0.150 OA
BRANCH   9  15
ATOM     12  C   UNL     1       1.497  -2.371   2.467  0.00  0.00    +0.214 A 
ATOM     13  C   UNL     1       1.682  -3.699   2.732  0.00  0.00    +0.059 A 
ATOM     14  C   UNL     1       2.393  -3.773   3.939  0.00  0.00    +0.072 A 
ATOM     15  C   UNL     1       2.609  -2.505   4.353  0.00  0.00    +0.259 A 
ATOM     16  O   UNL     1       2.072  -1.663   3.461  0.00  0.00    -0.430 OA
BRANCH  12  17
ATOM     17  C   UNL     1       0.801  -1.814   1.305  0.00  0.00    +0.375 C 
ATOM     18  O   UNL     1       0.321  -2.557   0.470  0.00  0.00    -0.241 OA
BRANCH  17  19
ATOM     19  O   UNL     1       0.693  -0.477   1.160  0.00  0.00    -0.459 OA
BRANCH  19  21
ATOM     20  C   UNL     1      -0.019   1.526   0.010  0.00  0.00    +0.048 C 
ATOM     21  C   UNL     1       0.002  -0.004   0.002  0.00  0.00    +0.229 C 
ENDBRANCH  19  21
ENDBRANCH  17  19
ENDBRANCH  12  17
ENDBRANCH   9  15
ENDBRANCH   1   9
BRANCH   7  22
ATOM     22  C   UNL     1       9.027  -0.469   2.933  0.00  0.00    +0.100 C 
BRANCH  22  23
ATOM     23  C   UNL     1      10.522  -0.593   2.636  0.00  0.00    +0.046 C 
BRANCH  23  24
ATOM     24  C   UNL     1      11.056   0.739   2.175  0.00  0.00    -0.022 A 
ATOM     25  C   UNL     1      11.195   1.147   0.904  0.00  0.00    +0.087 A 
ATOM     26  N   UNL     1      11.711   2.414   0.874  0.00  0.00    -0.360 N 
ATOM     27  H   UNL     1      11.900   2.920   0.069  0.00  0.00    +0.165 HD
ATOM     28  C   UNL     1      11.922   2.863   2.159  0.00  0.00    +0.047 A 
ATOM     29  C   UNL     1      11.515   1.836   3.030  0.00  0.00    +0.003 A 
ATOM     30  C   UNL     1      11.610   2.016   4.411  0.00  0.00    +0.010 A 
ATOM     31  C   UNL     1      12.096   3.192   4.910  0.00  0.00    +0.001 A 
ATOM     32  C   UNL     1      12.495   4.210   4.055  0.00  0.00    +0.002 A 
ATOM     33  C   UNL     1      12.418   4.050   2.688  0.00  0.00    +0.026 A 
ENDBRANCH  23  24
ENDBRANCH  22  23
ENDBRANCH   7  22
TORSDOF 8
