REMARK  Name = ZINC36026395
REMARK  5 active torsions:
REMARK  status: ('A' for Active; 'I' for Inactive)
REMARK    1  A    between atoms: C_4  and  C_7
REMARK    2  A    between atoms: C_7  and  C_8
REMARK    3  A    between atoms: N_12  and  C_29
REMARK    4  A    between atoms: C_20  and  C_22
REMARK    5  A    between atoms: C_29  and  C_30
REMARK                            x       y       z     vdW  Elec       q    Type
REMARK                         _______ _______ _______ _____ _____    ______ ____
ROOT
ATOM      1  C   UNL     1       4.142  -0.770   1.691  0.00  0.00    +0.023 C 
ATOM      2  C   UNL     1       5.525  -1.381   1.752  0.00  0.00    +0.201 C 
ATOM      3  O   UNL     1       6.543  -0.874   1.331  0.00  0.00    -0.277 OA
ATOM      4  N   UNL     1       5.435  -2.586   2.353  0.00  0.00    -0.309 N 
ATOM      5  C   UNL     1       4.041  -2.844   2.725  0.00  0.00    +0.006 C 
ATOM      6  N   UNL     1       3.215  -1.901   1.938  0.00  0.00    +0.401 N 
ATOM      7  C   UNL     1       3.659  -4.281   2.377  0.00  0.00    +0.025 C 
ATOM      8  C   UNL     1       4.544  -5.249   3.170  0.00  0.00    +0.108 C 
ATOM      9  N   UNL     1       4.446  -4.917   4.598  0.00  0.00    -0.297 N 
ATOM     10  C   UNL     1       4.723  -3.538   5.024  0.00  0.00    +0.108 C 
ATOM     11  C   UNL     1       3.835  -2.585   4.216  0.00  0.00    +0.025 C 
ATOM     12  C   UNL     1       4.109  -5.860   5.500  0.00  0.00    +0.248 C 
ATOM     13  O   UNL     1       3.952  -7.012   5.145  0.00  0.00    -0.270 OA
ATOM     14  H   UNL     1       2.414  -1.596   2.471  0.00  0.00    -0.082 HD
ATOM     15  H   UNL     1       2.926  -2.322   1.068  0.00  0.00    -0.082 HD
ENDROOT
BRANCH  12  16
ATOM     16  C   UNL     1       3.930  -5.493   6.920  0.00  0.00    +0.055 A 
ATOM     17  C   UNL     1       4.955  -4.843   7.611  0.00  0.00    +0.014 A 
ATOM     18  C   UNL     1       4.781  -4.503   8.936  0.00  0.00    +0.001 A 
ATOM     19  C   UNL     1       3.595  -4.806   9.583  0.00  0.00    +0.001 A 
ATOM     20  C   UNL     1       2.576  -5.450   8.906  0.00  0.00    +0.021 A 
ATOM     21  C   UNL     1       2.733  -5.791   7.576  0.00  0.00    +0.053 A 
ATOM     22 CL   UNL     1       1.450  -6.593   6.725  0.00  0.00    -0.083 Cl
ENDBRANCH  12  16
BRANCH   1  23
ATOM     23  C   UNL     1       3.887  -0.165   0.310  0.00  0.00    +0.028 C 
BRANCH  23  27
ATOM     24  C   UNL     1       0.028   1.666   0.245  0.00  0.00    +0.000 A 
ATOM     25  C   UNL     1       1.137   2.403   0.620  0.00  0.00    +0.000 A 
ATOM     26  C   UNL     1       2.385   1.810   0.641  0.00  0.00    +0.003 A 
ATOM     27  C   UNL     1       2.526   0.481   0.287  0.00  0.00    -0.048 A 
ATOM     28  C   UNL     1       1.417  -0.256  -0.087  0.00  0.00    +0.003 A 
ATOM     29  C   UNL     1       0.169   0.337  -0.109  0.00  0.00    +0.000 A 
ENDBRANCH  23  27
ENDBRANCH   1  23
BRANCH   4  30
ATOM     30  C   UNL     1       6.558  -3.495   2.597  0.00  0.00    +0.141 C 
BRANCH  30  31
ATOM     31  C   UNL     1       6.917  -4.205   1.317  0.00  0.00    -0.030 A 
ATOM     32  C   UNL     1       6.396  -5.457   1.052  0.00  0.00    +0.005 A 
ATOM     33  C   UNL     1       6.725  -6.108  -0.123  0.00  0.00    +0.000 A 
ATOM     34  C   UNL     1       7.575  -5.506  -1.032  0.00  0.00    +0.000 A 
ATOM     35  C   UNL     1       8.095  -4.252  -0.767  0.00  0.00    +0.000 A 
ATOM     36  C   UNL     1       7.762  -3.600   0.406  0.00  0.00    +0.005 A 
ENDBRANCH  30  31
ENDBRANCH   4  30
TORSDOF 5
