REMARK  Name = ZINC64058086
REMARK  9 active torsions:
REMARK  status: ('A' for Active; 'I' for Inactive)
REMARK    1  A    between atoms: C_1  and  O_2
REMARK    2  A    between atoms: O_2  and  C_3
REMARK    3  A    between atoms: C_3  and  C_5
REMARK    4  A    between atoms: N_11  and  C_30
REMARK    5  A    between atoms: C_18  and  O_20
REMARK    6  A    between atoms: O_20  and  C_21
REMARK    7  A    between atoms: C_21  and  C_22
REMARK    8  A    between atoms: C_22  and  C_23
REMARK    9  A    between atoms: C_30  and  C_31
REMARK                            x       y       z     vdW  Elec       q    Type
REMARK                         _______ _______ _______ _____ _____    ______ ____
ROOT
ATOM      1  C   UNL     1       0.577  -2.674  -1.148  0.00  0.00    +0.147 C 
ATOM      2  C   UNL     1       1.365  -2.986  -2.418  0.00  0.00    +0.093 C 
ATOM      3  C   UNL     1       2.697  -2.270  -2.405  0.00  0.00    +0.039 C 
ATOM      4  C   UNL     1       3.154  -1.973  -3.837  0.00  0.00    +0.086 C 
ATOM      5  N   UNL     1       3.746  -3.081  -4.467  0.00  0.00    -0.299 NA
ATOM      6  C   UNL     1       2.825  -4.217  -4.670  0.00  0.00    +0.103 C 
ATOM      7  C   UNL     1       2.655  -4.992  -3.386  0.00  0.00    +0.123 C 
ATOM      8  N   UNL     1       1.578  -4.436  -2.551  0.00  0.00    -0.296 N 
ATOM      9  C   UNL     1       0.779  -5.324  -1.940  0.00  0.00    +0.218 C 
ATOM     10  O   UNL     1       0.975  -6.500  -2.161  0.00  0.00    -0.276 OA
ATOM     11  C   UNL     1      -0.337  -4.973  -1.006  0.00  0.00    +0.128 C 
ATOM     12  C   UNL     1      -0.728  -3.479  -1.168  0.00  0.00    +0.142 C 
ENDROOT
BRANCH   1  13
ATOM     13  C   UNL     1       0.262  -1.201  -1.098  0.00  0.00    +0.314 C 
ATOM     14  O   UNL     1       0.636  -0.472  -1.985  0.00  0.00    -0.250 OA
BRANCH  13  16
ATOM     15  C   UNL     1      -0.698   0.706  -0.083  0.00  0.00    +0.280 C 
ATOM     16  O   UNL     1      -0.435  -0.699  -0.066  0.00  0.00    -0.468 OA
ENDBRANCH  13  16
ENDBRANCH   1  13
BRANCH  12  17
ATOM     17  O   UNL     1      -1.411  -3.263  -2.405  0.00  0.00    -0.375 OA
BRANCH  17  18
ATOM     18  C   UNL     1      -2.833  -3.361  -2.309  0.00  0.00    +0.165 C 
BRANCH  18  19
ATOM     19  C   UNL     1      -3.456  -3.113  -3.684  0.00  0.00    +0.066 C 
BRANCH  19  20
ATOM     20  C   UNL     1      -4.956  -3.216  -3.582  0.00  0.00    -0.010 A 
ATOM     21  C   UNL     1      -5.588  -4.411  -3.872  0.00  0.00    +0.006 A 
ATOM     22  C   UNL     1      -6.963  -4.506  -3.778  0.00  0.00    +0.000 A 
ATOM     23  C   UNL     1      -7.709  -3.406  -3.396  0.00  0.00    +0.003 A 
ATOM     24  C   UNL     1      -7.080  -2.211  -3.106  0.00  0.00    +0.038 A 
ATOM     25  C   UNL     1      -5.701  -2.116  -3.194  0.00  0.00    +0.127 A 
ATOM     26  F   UNL     1      -5.084  -0.949  -2.906  0.00  0.00    -0.205 F 
ENDBRANCH  19  20
ENDBRANCH  18  19
ENDBRANCH  17  18
ENDBRANCH  12  17
BRANCH   5  27
ATOM     27  C   UNL     1       4.385  -2.689  -5.731  0.00  0.00    +0.113 C 
BRANCH  27  28
ATOM     28  C   UNL     1       5.696  -1.959  -5.435  0.00  0.00    +0.117 C 
ATOM     29  C   UNL     1       6.460  -1.718  -6.718  0.00  0.00    +0.008 C 
ATOM     30  C   UNL     1       7.636  -2.372  -6.582  0.00  0.00    -0.004 A 
ATOM     31  C   UNL     1       8.797  -2.523  -7.467  0.00  0.00    +0.010 A 
ATOM     32  C   UNL     1       9.853  -3.256  -7.045  0.00  0.00    +0.001 A 
ATOM     33  C   UNL     1       9.866  -3.873  -5.787  0.00  0.00    +0.002 A 
ATOM     34  C   UNL     1       8.836  -3.779  -4.918  0.00  0.00    +0.026 A 
ATOM     35  C   UNL     1       7.674  -3.033  -5.258  0.00  0.00    +0.043 A 
ATOM     36  N   UNL     1       6.564  -2.797  -4.600  0.00  0.00    -0.377 N 
ATOM     37  H   UNL     1       6.352  -3.121  -3.711  0.00  0.00    +0.160 HD
ENDBRANCH  27  28
ENDBRANCH   5  27
TORSDOF 8
