REMARK  Name = ZINC40431645
REMARK  5 active torsions:
REMARK  status: ('A' for Active; 'I' for Inactive)
REMARK    1  A    between atoms: C_1  and  C_2
REMARK    2  A    between atoms: C_3  and  S_9
REMARK    3  A    between atoms: S_9  and  N_12
REMARK    4  A    between atoms: N_12  and  C_13
REMARK    5  A    between atoms: C_18  and  C_21
REMARK                            x       y       z     vdW  Elec       q    Type
REMARK                         _______ _______ _______ _____ _____    ______ ____
ROOT
ATOM      1  N   UNL     1      -3.443  -0.496  -1.469  0.00  0.00    -0.186 NA
ATOM      2  H   UNL     1      -3.712   0.224  -2.060  0.00  0.00    +0.148 HD
ENDROOT
BRANCH   1   3
ATOM      3  C   UNL     1      -3.606  -1.890  -1.890  0.00  0.00    +0.077 C 
ATOM      4  C   UNL     1      -5.028  -2.356  -1.569  0.00  0.00    +0.020 C 
ATOM      5  C   UNL     1      -5.198  -3.812  -2.008  0.00  0.00    +0.002 C 
ATOM      6  C   UNL     1      -4.953  -3.922  -3.514  0.00  0.00    +0.012 C 
ATOM      7  C   UNL     1      -3.532  -3.456  -3.835  0.00  0.00    +0.095 C 
ATOM      8  C   UNL     1      -3.361  -2.001  -3.396  0.00  0.00    +0.032 C 
BRANCH   7   9
ATOM      9  C   UNL     1      -3.287  -3.566  -5.341  0.00  0.00    +0.393 C 
ATOM     10  F   UNL     1      -4.206  -2.762  -6.024  0.00  0.00    -0.170 F 
ATOM     11  F   UNL     1      -1.987  -3.140  -5.635  0.00  0.00    -0.170 F 
ATOM     12  F   UNL     1      -3.443  -4.897  -5.743  0.00  0.00    -0.170 F 
ENDBRANCH   7   9
ENDBRANCH   1   3
BRANCH   1  13
ATOM     13  S   UNL     1      -2.797  -0.150   0.016  0.00  0.00    +0.067 S 
ATOM     14  O   UNL     1      -3.492  -0.955   0.959  0.00  0.00    -0.152 OA
ATOM     15  O   UNL     1      -2.745   1.266   0.116  0.00  0.00    -0.152 OA
BRANCH  13  18
ATOM     16  C   UNL     1      -0.018   1.503   0.010  0.00  0.00    +0.066 C 
ATOM     17  C   UNL     1       0.002  -0.004   0.002  0.00  0.00    +0.050 A 
ATOM     18  C   UNL     1      -1.129  -0.716   0.004  0.00  0.00    +0.166 A 
ATOM     19  S   UNL     1      -0.508  -2.388  -0.008  0.00  0.00    -0.007 S 
ATOM     20  C   UNL     1       1.138  -2.048  -0.015  0.00  0.00    +0.290 A 
ATOM     21  O   UNL     1       2.072  -2.830  -0.024  0.00  0.00    -0.260 OA
ATOM     22  N   UNL     1       1.176  -0.699  -0.013  0.00  0.00    -0.318 N 
ATOM     23  H   UNL     1       2.025  -0.230  -0.020  0.00  0.00    +0.169 HD
ENDBRANCH  13  18
ENDBRANCH   1  13
TORSDOF 4
