REMARK  Name = ZINC45570695
REMARK  6 active torsions:
REMARK  status: ('A' for Active; 'I' for Inactive)
REMARK    1  A    between atoms: N_7  and  C_20
REMARK    2  A    between atoms: C_9  and  C_12
REMARK    3  A    between atoms: C_20  and  C_21
REMARK    4  A    between atoms: C_21  and  C_22
REMARK    5  A    between atoms: N_24  and  C_25
REMARK    6  A    between atoms: C_26  and  C_35
REMARK                            x       y       z     vdW  Elec       q    Type
REMARK                         _______ _______ _______ _____ _____    ______ ____
ROOT
ATOM      1  C   UNL     1       0.072   1.486   0.161  0.00  0.00    +0.002 A 
ATOM      2  C   UNL     1       1.272   2.162   0.289  0.00  0.00    +0.004 A 
ATOM      3  C   UNL     1       2.468   1.469   0.267  0.00  0.00    +0.047 A 
ATOM      4  C   UNL     1       2.470   0.091   0.116  0.00  0.00    +0.143 A 
ATOM      5  C   UNL     1       1.260  -0.588  -0.011  0.00  0.00    +0.072 A 
ATOM      6  C   UNL     1       0.064   0.112   0.011  0.00  0.00    +0.027 A 
ATOM      7  N   UNL     1       1.257  -1.984  -0.156  0.00  0.00    -0.323 N 
ATOM      8  C   UNL     1       2.534  -2.642  -0.480  0.00  0.00    +0.159 C 
ATOM      9  C   UNL     1       3.626  -1.983   0.375  0.00  0.00    +0.276 C 
ATOM     10  O   UNL     1       3.651  -0.582   0.090  0.00  0.00    -0.476 OA
ENDROOT
BRANCH   9  11
ATOM     11  C   UNL     1       4.963  -2.592   0.044  0.00  0.00    +0.258 C 
ATOM     12  O   UNL     1       5.751  -1.986  -0.651  0.00  0.00    -0.271 OA
ATOM     13  N   UNL     1       5.285  -3.811   0.520  0.00  0.00    -0.298 N 
ATOM     14  C   UNL     1       4.304  -4.603   1.274  0.00  0.00    +0.108 C 
ATOM     15  C   UNL     1       4.181  -5.985   0.625  0.00  0.00    +0.019 C 
ATOM     16  C   UNL     1       5.568  -6.626   0.533  0.00  0.00    +0.003 C 
ATOM     17  C   UNL     1       6.475  -5.759  -0.344  0.00  0.00    +0.019 C 
ATOM     18  C   UNL     1       6.621  -4.377   0.289  0.00  0.00    +0.108 C 
ENDBRANCH   9  11
BRANCH   7  19
ATOM     19  C   UNL     1       0.025  -2.760   0.010  0.00  0.00    +0.114 C 
BRANCH  19  20
ATOM     20  C   UNL     1      -0.685  -2.883  -1.340  0.00  0.00    +0.115 C 
BRANCH  20  21
ATOM     21  C   UNL     1      -1.952  -3.681  -1.169  0.00  0.00    +0.219 C 
ATOM     22  O   UNL     1      -2.257  -4.110  -0.076  0.00  0.00    -0.275 OA
ATOM     23  N   UNL     1      -2.747  -3.919  -2.231  0.00  0.00    -0.279 N 
ATOM     24  H   UNL     1      -2.503  -3.577  -3.106  0.00  0.00    +0.155 HD
BRANCH  23  25
ATOM     25  C   UNL     1      -3.914  -4.655  -2.074  0.00  0.00    +0.090 A 
ATOM     26  C   UNL     1      -4.839  -4.999  -3.043  0.00  0.00    +0.084 A 
ATOM     27  C   UNL     1      -5.991  -5.783  -2.622  0.00  0.00    -0.018 A 
ATOM     28  C   UNL     1      -6.003  -6.071  -1.303  0.00  0.00    -0.004 A 
ATOM     29  S   UNL     1      -4.522  -5.337  -0.667  0.00  0.00    -0.077 S 
ATOM     30  C   UNL     1      -7.042  -6.836  -0.543  0.00  0.00    +0.043 C 
ATOM     31  C   UNL     1      -7.354  -8.139  -1.291  0.00  0.00    +0.005 C 
ATOM     32  C   UNL     1      -8.481  -7.874  -2.284  0.00  0.00    +0.001 C 
ATOM     33  C   UNL     1      -8.386  -6.447  -2.821  0.00  0.00    +0.005 C 
ATOM     34  C   UNL     1      -7.078  -6.248  -3.580  0.00  0.00    +0.037 C 
BRANCH  26  35
ATOM     35  C   UNL     1      -4.671  -4.599  -4.408  0.00  0.00    +0.102 C 
ATOM     36  N   UNL     1      -4.537  -4.282  -5.490  0.00  0.00    -0.191 NA
ENDBRANCH  26  35
ENDBRANCH  23  25
ENDBRANCH  20  21
ENDBRANCH  19  20
ENDBRANCH   7  19
TORSDOF 6
