REMARK  Name = ZINC14015897
REMARK  4 active torsions:
REMARK  status: ('A' for Active; 'I' for Inactive)
REMARK    1  A    between atoms: C_1  and  C_2
REMARK    2  A    between atoms: C_12  and  C_14
REMARK    3  A    between atoms: N_19  and  S_21
REMARK    4  A    between atoms: S_21  and  C_24
REMARK                            x       y       z     vdW  Elec       q    Type
REMARK                         _______ _______ _______ _____ _____    ______ ____
ROOT
ATOM      1  C   UNL     1       1.280   1.980   0.001  0.00  0.00    +0.091 C 
ATOM      2  C   UNL     1       1.340   2.865  -1.247  0.00  0.00    +0.015 C 
ATOM      3  C   UNL     1       2.640   3.673  -1.240  0.00  0.00    +0.018 C 
ATOM      4  C   UNL     1       3.833   2.713  -1.270  0.00  0.00    +0.109 C 
ATOM      5  N   UNL     1       3.706   1.764  -0.155  0.00  0.00    -0.176 NA
ATOM      6  C   UNL     1       2.458   1.001  -0.016  0.00  0.00    +0.122 C 
ENDROOT
BRANCH   1  18
ATOM      7  C   UNL     1      -6.442   2.617   0.047  0.00  0.00    +0.046 C 
ATOM      8  C   UNL     1      -6.056   1.160   0.037  0.00  0.00    -0.024 A 
ATOM      9  C   UNL     1      -7.033   0.199   0.037  0.00  0.00    +0.005 A 
ATOM     10  C   UNL     1      -6.721  -1.152   0.029  0.00  0.00    +0.001 A 
ATOM     11  C   UNL     1      -5.393  -1.541   0.020  0.00  0.00    +0.017 A 
ATOM     12  C   UNL     1      -4.408  -0.586   0.020  0.00  0.00    +0.041 A 
ATOM     13  C   UNL     1      -4.688   0.800   0.029  0.00  0.00    +0.083 A 
ATOM     14  N   UNL     1      -3.611   1.615   0.028  0.00  0.00    -0.224 NA
ATOM     15  C   UNL     1      -2.381   1.157   0.020  0.00  0.00    +0.165 A 
ATOM     16  S   UNL     1      -2.632  -0.612   0.003  0.00  0.00    -0.052 S 
ATOM     17  N   UNL     1      -1.191   1.866   0.018  0.00  0.00    -0.264 N 
ATOM     18  C   UNL     1      -0.014   1.208   0.009  0.00  0.00    +0.223 C 
ATOM     19  O   UNL     1       0.002  -0.004   0.002  0.00  0.00    -0.275 OA
ATOM     20  H   UNL     1      -1.204   2.836   0.023  0.00  0.00    +0.157 HD
ENDBRANCH   1  18
BRANCH   5  21
ATOM     21  S   UNL     1       4.945   1.560   0.924  0.00  0.00    +0.061 S 
ATOM     22  O   UNL     1       5.717   2.752   0.887  0.00  0.00    -0.153 OA
ATOM     23  O   UNL     1       4.363   1.065   2.122  0.00  0.00    -0.153 OA
BRANCH  21  24
ATOM     24  C   UNL     1       5.975   0.274   0.297  0.00  0.00    +0.106 A 
ATOM     25  C   UNL     1       5.731  -1.040   0.649  0.00  0.00    +0.030 A 
ATOM     26  C   UNL     1       6.535  -2.049   0.154  0.00  0.00    +0.022 A 
ATOM     27  C   UNL     1       7.590  -1.743  -0.687  0.00  0.00    +0.041 A 
ATOM     28  C   UNL     1       7.837  -0.426  -1.034  0.00  0.00    +0.022 A 
ATOM     29  C   UNL     1       7.029   0.581  -0.542  0.00  0.00    +0.030 A 
ATOM     30 CL   UNL     1       8.605  -3.009  -1.304  0.00  0.00    -0.084 Cl
ENDBRANCH  21  24
ENDBRANCH   5  21
TORSDOF 3
