REMARK  Name = ZINC65056128
REMARK  5 active torsions:
REMARK  status: ('A' for Active; 'I' for Inactive)
REMARK    1  A    between atoms: C_10  and  N_12
REMARK    2  A    between atoms: C_13  and  C_15
REMARK    3  A    between atoms: C_15  and  C_16
REMARK    4  A    between atoms: C_16  and  C_17
REMARK    5  A    between atoms: C_21  and  C_26
REMARK                            x       y       z     vdW  Elec       q    Type
REMARK                         _______ _______ _______ _____ _____    ______ ____
ROOT
ATOM      1  C   UNL     1       7.500   3.159  -1.977  0.00  0.00    +0.135 A 
ATOM      2  N   UNL     1       8.702   2.629  -2.108  0.00  0.00    -0.216 NA
ATOM      3  C   UNL     1       9.626   3.205  -2.873  0.00  0.00    +0.138 A 
ATOM      4  C   UNL     1       9.291   4.394  -3.539  0.00  0.00    +0.108 A 
ATOM      5  C   UNL     1       9.999   5.306  -4.444  0.00  0.00    +0.126 A 
ATOM      6  N   UNL     1       9.165   6.266  -4.753  0.00  0.00    -0.075 NA
ATOM      7  O   UNL     1       7.929   6.045  -4.101  0.00  0.00    -0.334 OA
ATOM      8  C   UNL     1       8.000   4.920  -3.370  0.00  0.00    +0.264 A 
ATOM      9  N   UNL     1       7.144   4.269  -2.588  0.00  0.00    -0.195 NA
ATOM     10  N   UNL     1      10.882   2.648  -3.007  0.00  0.00    -0.314 N 
ATOM     11  C   UNL     1      11.910   2.865  -1.980  0.00  0.00    +0.106 C 
ATOM     12  C   UNL     1      12.445   1.504  -1.524  0.00  0.00    +0.019 C 
ATOM     13  C   UNL     1      12.931   0.716  -2.743  0.00  0.00    +0.003 C 
ATOM     14  C   UNL     1      11.759   0.479  -3.699  0.00  0.00    +0.019 C 
ATOM     15  C   UNL     1      11.214   1.823  -4.176  0.00  0.00    +0.106 C 
ENDROOT
BRANCH   5  16
ATOM     16  C   UNL     1      11.397   5.167  -4.919  0.00  0.00    +0.005 A 
ATOM     17  C   UNL     1      12.428   4.956  -4.005  0.00  0.00    +0.013 A 
ATOM     18  C   UNL     1      13.727   4.827  -4.451  0.00  0.00    +0.039 A 
ATOM     19  C   UNL     1      14.007   4.907  -5.806  0.00  0.00    +0.123 A 
ATOM     20  C   UNL     1      12.985   5.117  -6.718  0.00  0.00    +0.039 A 
ATOM     21  C   UNL     1      11.683   5.242  -6.281  0.00  0.00    +0.013 A 
ATOM     22  F   UNL     1      15.281   4.781  -6.238  0.00  0.00    -0.205 F 
ENDBRANCH   5  16
BRANCH   1  23
ATOM     23  C   UNL     1       6.495   2.462  -1.097  0.00  0.00    +0.085 C 
BRANCH  23  24
ATOM     24  C   UNL     1       5.698   1.456  -1.931  0.00  0.00    +0.103 C 
BRANCH  24  26
ATOM     25  N   UNL     1       3.873  -0.175  -1.574  0.00  0.00    -0.308 N 
ATOM     26  C   UNL     1       4.692   0.759  -1.052  0.00  0.00    +0.214 C 
ATOM     27  O   UNL     1       4.619   1.039   0.126  0.00  0.00    -0.276 OA
ATOM     28  H   UNL     1       3.931  -0.399  -2.516  0.00  0.00    +0.149 HD
BRANCH  25  38
ATOM     29  C   UNL     1      -0.571   1.637  -0.438  0.00  0.00    +0.000 A 
ATOM     30  C   UNL     1       0.698   2.182  -0.386  0.00  0.00    +0.000 A 
ATOM     31  C   UNL     1       1.801   1.359  -0.480  0.00  0.00    +0.006 A 
ATOM     32  C   UNL     1       1.648  -0.013  -0.630  0.00  0.00    -0.024 A 
ATOM     33  C   UNL     1       0.384  -0.555  -0.687  0.00  0.00    -0.042 A 
ATOM     34  C   UNL     1      -0.726   0.274  -0.587  0.00  0.00    +0.004 A 
ATOM     35  C   UNL     1       0.143  -2.032  -0.864  0.00  0.00    +0.035 C 
ATOM     36  C   UNL     1       1.403  -2.826  -0.527  0.00  0.00    +0.007 C 
ATOM     37  C   UNL     1       2.577  -2.226  -1.308  0.00  0.00    +0.027 C 
ATOM     38  C   UNL     1       2.895  -0.853  -0.719  0.00  0.00    +0.103 C 
ENDBRANCH  25  38
ENDBRANCH  24  26
ENDBRANCH  23  24
ENDBRANCH   1  23
TORSDOF 5
