REMARK  Name = ZINC20820380
REMARK  11 active torsions:
REMARK  status: ('A' for Active; 'I' for Inactive)
REMARK    1  A    between atoms: C_1  and  C_2
REMARK    2  A    between atoms: C_4  and  C_26
REMARK    3  A    between atoms: N_5  and  C_7
REMARK    4  A    between atoms: C_7  and  C_8
REMARK    5  A    between atoms: C_8  and  C_10
REMARK    6  A    between atoms: C_8  and  N_11
REMARK    7  A    between atoms: C_14  and  N_17
REMARK    8  A    between atoms: C_19  and  C_22
REMARK    9  A    between atoms: C_22  and  C_23
REMARK   10  A    between atoms: C_22  and  C_24
REMARK   11  A    between atoms: C_22  and  N_25
REMARK                            x       y       z     vdW  Elec       q    Type
REMARK                         _______ _______ _______ _____ _____    ______ ____
ROOT
ATOM      1  N   UNL     1      -2.869   4.932   3.766  0.00  0.00    +0.383 N 
ATOM      2  C   UNL     1      -2.886   4.693   5.215  0.00  0.00    -0.076 C 
ATOM      3  C   UNL     1      -1.707   5.418   5.867  0.00  0.00    +0.008 C 
ATOM      4  C   UNL     1      -1.813   6.918   5.577  0.00  0.00    +0.105 C 
ATOM      5  C   UNL     1      -1.841   7.136   4.061  0.00  0.00    +0.008 C 
ATOM      6  C   UNL     1      -3.017   6.361   3.461  0.00  0.00    -0.076 C 
ATOM      7  H   UNL     1      -1.889   4.607   3.384  0.00  0.00    -0.081 HD
ENDROOT
BRANCH   4   8
ATOM      8  N   UNL     1      -0.656   7.612   6.149  0.00  0.00    -0.249 N 
ATOM      9  C   UNL     1       0.602   7.120   6.232  0.00  0.00    +0.132 A 
ATOM     10  C   UNL     1       1.345   8.084   6.825  0.00  0.00    +0.071 A 
ATOM     11  N   UNL     1       0.515   9.104   7.073  0.00  0.00    -0.136 NA
ATOM     12  N   UNL     1      -0.661   8.795   6.656  0.00  0.00    -0.065 NA
BRANCH  10  13
ATOM     13  C   UNL     1       2.816   8.020   7.143  0.00  0.00    -0.030 C 
ATOM     14  C   UNL     1       3.250   9.326   7.812  0.00  0.00    -0.004 C 
ATOM     15  C   UNL     1       3.082   6.849   8.091  0.00  0.00    -0.004 C 
BRANCH  13  16
ATOM     16  N   UNL     1       3.578   7.829   5.902  0.00  0.00    +0.385 N 
ATOM     17  H   UNL     1       4.652   7.782   6.135  0.00  0.00    -0.089 HD
ATOM     18  H   UNL     1       3.386   8.671   5.221  0.00  0.00    -0.089 HD
ATOM     19  H   UNL     1       3.266   6.890   5.421  0.00  0.00    -0.089 HD
ENDBRANCH  13  16
ENDBRANCH  10  13
ENDBRANCH   4   8
BRANCH   1  20
ATOM     20  C   UNL     1      -3.904   4.140   3.089  0.00  0.00    -0.050 C 
ATOM     21  C   UNL     1      -5.269   4.449   3.708  0.00  0.00    -0.011 C 
BRANCH  20  22
ATOM     22  C   UNL     1      -3.595   2.650   3.253  0.00  0.00    +0.128 C 
BRANCH  22  27
ATOM     23  C   UNL     1      -7.732   0.128   1.939  0.00  0.00    +0.067 C 
ATOM     24  C   UNL     1      -6.367   0.766   1.912  0.00  0.00    +0.060 A 
ATOM     25  C   UNL     1      -5.470   0.738   0.839  0.00  0.00    +0.047 A 
ATOM     26  C   UNL     1      -4.360   1.420   1.205  0.00  0.00    +0.036 A 
ATOM     27  N   UNL     1      -4.548   1.864   2.466  0.00  0.00    -0.270 N 
ATOM     28  N   UNL     1      -5.817   1.445   2.886  0.00  0.00    -0.176 NA
ATOM     29  C   UNL     1      -3.135   1.645   0.357  0.00  0.00    +0.065 C 
ENDBRANCH  22  27
ENDBRANCH  20  22
ENDBRANCH   1  20
TORSDOF 6
