REMARK  Name = ZINC64792563
REMARK  7 active torsions:
REMARK  status: ('A' for Active; 'I' for Inactive)
REMARK    1  A    between atoms: C_1  and  C_2
REMARK    2  A    between atoms: C_7  and  C_8
REMARK    3  A    between atoms: C_8  and  N_9
REMARK    4  A    between atoms: C_10  and  C_12
REMARK    5  A    between atoms: C_12  and  N_13
REMARK    6  A    between atoms: C_19  and  C_29
REMARK    7  A    between atoms: C_22  and  C_23
REMARK                            x       y       z     vdW  Elec       q    Type
REMARK                         _______ _______ _______ _____ _____    ______ ____
ROOT
ATOM      1  N   UNL     1      -3.342   2.311   5.547  0.00  0.00    -0.259 N 
ATOM      2  C   UNL     1      -3.460   1.487   6.654  0.00  0.00    +0.243 A 
ATOM      3  N   UNL     1      -3.638   0.200   6.748  0.00  0.00    -0.092 NA
ATOM      4  N   UNL     1      -3.684  -0.156   7.986  0.00  0.00    -0.021 NA
ATOM      5  N   UNL     1      -3.541   0.874   8.757  0.00  0.00    -0.042 NA
ATOM      6  N   UNL     1      -3.394   1.979   7.920  0.00  0.00    -0.202 N 
ATOM      7  C   UNL     1      -3.211   3.390   8.234  0.00  0.00    +0.167 C 
ATOM      8  C   UNL     1      -2.822   4.140   6.988  0.00  0.00    +0.028 C 
ATOM      9  C   UNL     1      -2.890   3.619   5.770  0.00  0.00    +0.043 C 
ENDROOT
BRANCH   9  10
ATOM     10  C   UNL     1      -2.483   4.446   4.611  0.00  0.00    -0.004 A 
ATOM     11  C   UNL     1      -3.017   5.723   4.440  0.00  0.00    +0.010 A 
ATOM     12  C   UNL     1      -2.634   6.488   3.357  0.00  0.00    +0.001 A 
ATOM     13  C   UNL     1      -1.722   5.991   2.443  0.00  0.00    +0.000 A 
ATOM     14  C   UNL     1      -1.190   4.724   2.607  0.00  0.00    +0.001 A 
ATOM     15  C   UNL     1      -1.561   3.952   3.689  0.00  0.00    +0.010 A 
ENDBRANCH   9  10
BRANCH   7  16
ATOM     16  C   UNL     1      -4.499   3.954   8.776  0.00  0.00    -0.019 A 
ATOM     17  C   UNL     1      -5.646   3.925   8.004  0.00  0.00    +0.006 A 
ATOM     18  C   UNL     1      -6.827   4.442   8.501  0.00  0.00    +0.000 A 
ATOM     19  C   UNL     1      -6.863   4.989   9.770  0.00  0.00    +0.000 A 
ATOM     20  C   UNL     1      -5.716   5.018  10.542  0.00  0.00    +0.000 A 
ATOM     21  C   UNL     1      -4.536   4.497  10.047  0.00  0.00    +0.006 A 
ENDBRANCH   7  16
BRANCH   1  22
ATOM     22  C   UNL     1      -3.670   1.835   4.200  0.00  0.00    +0.209 C 
BRANCH  22  24
ATOM     23  N   UNL     1      -2.515   0.671   2.349  0.00  0.00    -0.310 N 
ATOM     24  C   UNL     1      -2.488   1.097   3.627  0.00  0.00    +0.231 C 
ATOM     25  O   UNL     1      -1.512   0.886   4.316  0.00  0.00    -0.274 OA
ATOM     26  H   UNL     1      -3.295   0.839   1.798  0.00  0.00    +0.149 HD
BRANCH  23  27
ATOM     27  C   UNL     1      -1.365  -0.047   1.792  0.00  0.00    +0.139 C 
BRANCH  27  34
ATOM     28  C   UNL     1      -1.047   1.933  -0.288  0.00  0.00    +0.044 C 
ATOM     29  C   UNL     1      -1.495   0.537  -0.639  0.00  0.00    -0.046 A 
ATOM     30  C   UNL     1      -1.748   0.203  -1.956  0.00  0.00    +0.003 A 
ATOM     31  C   UNL     1      -2.160  -1.077  -2.277  0.00  0.00    +0.000 A 
ATOM     32  C   UNL     1      -2.317  -2.023  -1.281  0.00  0.00    +0.000 A 
ATOM     33  C   UNL     1      -2.063  -1.689   0.036  0.00  0.00    +0.005 A 
ATOM     34  C   UNL     1      -1.648  -0.410   0.356  0.00  0.00    -0.027 A 
ENDBRANCH  27  34
ENDBRANCH  23  27
ENDBRANCH  22  24
ENDBRANCH   1  22
TORSDOF 6
