REMARK  Name = ZINC34978980
REMARK  11 active torsions:
REMARK  status: ('A' for Active; 'I' for Inactive)
REMARK    1  A    between atoms: C_1  and  C_2
REMARK    2  A    between atoms: C_2  and  C_3
REMARK    3  A    between atoms: C_3  and  C_4
REMARK    4  A    between atoms: C_4  and  N_5
REMARK    5  A    between atoms: C_13  and  C_15
REMARK    6  A    between atoms: C_16  and  C_18
REMARK    7  A    between atoms: C_18  and  C_20
REMARK    8  A    between atoms: C_18  and  N_27
REMARK    9  A    between atoms: C_20  and  C_21
REMARK   10  A    between atoms: N_27  and  S_28
REMARK   11  A    between atoms: S_28  and  C_31
REMARK                            x       y       z     vdW  Elec       q    Type
REMARK                         _______ _______ _______ _____ _____    ______ ____
ROOT
ATOM      1  C   UNL     1      -8.911  -4.625   1.421  0.00  0.00    +0.166 C 
ENDROOT
BRANCH   1  12
ATOM      2  N   UNL     1      -2.940  -3.170  -1.122  0.00  0.00    -0.299 N 
ATOM      3  C   UNL     1      -3.232  -4.469  -0.913  0.00  0.00    +0.303 C 
ATOM      4  O   UNL     1      -2.365  -5.313  -1.030  0.00  0.00    -0.253 OA
ATOM      5  N   UNL     1      -4.485  -4.832  -0.574  0.00  0.00    -0.280 N 
ATOM      6  C   UNL     1      -5.571  -3.843  -0.554  0.00  0.00    +0.128 C 
ATOM      7  C   UNL     1      -6.226  -3.862   0.832  0.00  0.00    +0.127 C 
ATOM      8  N   UNL     1      -6.531  -5.255   1.188  0.00  0.00    -0.297 N 
ATOM      9  C   UNL     1      -5.444  -6.245   1.169  0.00  0.00    +0.130 C 
ATOM     10  C   UNL     1      -4.790  -6.227  -0.223  0.00  0.00    +0.092 C 
ATOM     11  C   UNL     1      -3.497  -7.044  -0.196  0.00  0.00    +0.030 C 
ATOM     12  C   UNL     1      -7.784  -5.619   1.528  0.00  0.00    +0.235 C 
ATOM     13  O   UNL     1      -8.003  -6.746   1.918  0.00  0.00    -0.274 OA
ATOM     14  H   UNL     1      -3.646  -2.505  -1.101  0.00  0.00    +0.150 HD
BRANCH   2  15
ATOM     15  C   UNL     1      -1.557  -2.762  -1.381  0.00  0.00    +0.106 C 
BRANCH  15  16
ATOM     16  C   UNL     1      -1.502  -1.246  -1.582  0.00  0.00    +0.018 C 
BRANCH  16  18
ATOM     17  C   UNL     1      -0.002   0.695  -2.054  0.00  0.00    +0.004 C 
ATOM     18  C   UNL     1      -0.057  -0.821  -1.853  0.00  0.00    -0.002 C 
ENDBRANCH  16  18
ENDBRANCH  15  16
ENDBRANCH   2  15
ENDBRANCH   1  12
BRANCH   1  19
ATOM     19  N   UNL     1     -10.187  -5.306   1.659  0.00  0.00    -0.178 NA
ATOM     20  H   UNL     1     -10.236  -6.032   2.300  0.00  0.00    +0.149 HD
BRANCH  19  21
ATOM     21  S   UNL     1     -11.543  -4.836   0.833  0.00  0.00    +0.059 S 
ATOM     22  O   UNL     1     -12.594  -5.692   1.258  0.00  0.00    -0.153 OA
ATOM     23  O   UNL     1     -11.619  -3.421   0.948  0.00  0.00    -0.153 OA
BRANCH  21  24
ATOM     24  C   UNL     1     -11.264  -5.188  -0.871  0.00  0.00    +0.105 A 
ATOM     25  C   UNL     1     -10.680  -4.237  -1.687  0.00  0.00    +0.030 A 
ATOM     26  C   UNL     1     -10.461  -4.512  -3.023  0.00  0.00    +0.022 A 
ATOM     27  C   UNL     1     -10.826  -5.741  -3.545  0.00  0.00    +0.041 A 
ATOM     28  C   UNL     1     -11.410  -6.692  -2.728  0.00  0.00    +0.022 A 
ATOM     29  C   UNL     1     -11.624  -6.418  -1.390  0.00  0.00    +0.030 A 
ATOM     30 CL   UNL     1     -10.552  -6.088  -5.223  0.00  0.00    -0.084 Cl
ENDBRANCH  21  24
ENDBRANCH  19  21
ENDBRANCH   1  19
BRANCH   1  31
ATOM     31  C   UNL     1      -8.720  -3.522   2.464  0.00  0.00    +0.065 C 
BRANCH  31  32
ATOM     32  C   UNL     1      -9.862  -2.543   2.375  0.00  0.00    -0.045 A 
ATOM     33  C   UNL     1      -9.771  -1.450   1.533  0.00  0.00    +0.004 A 
ATOM     34  C   UNL     1     -10.819  -0.552   1.452  0.00  0.00    +0.000 A 
ATOM     35  C   UNL     1     -11.957  -0.746   2.212  0.00  0.00    +0.000 A 
ATOM     36  C   UNL     1     -12.048  -1.839   3.053  0.00  0.00    +0.000 A 
ATOM     37  C   UNL     1     -11.002  -2.740   3.131  0.00  0.00    +0.004 A 
ENDBRANCH  31  32
ENDBRANCH   1  31
TORSDOF 9
