REMARK  Name = ZINC66375629
REMARK  8 active torsions:
REMARK  status: ('A' for Active; 'I' for Inactive)
REMARK    1  A    between atoms: C_1  and  C_2
REMARK    2  A    between atoms: C_2  and  C_4
REMARK    3  A    between atoms: C_2  and  N_14
REMARK    4  A    between atoms: C_15  and  C_17
REMARK    5  A    between atoms: C_17  and  N_18
REMARK    6  A    between atoms: N_18  and  C_19
REMARK    7  A    between atoms: C_21  and  N_27
REMARK    8  A    between atoms: C_28  and  C_30
REMARK                            x       y       z     vdW  Elec       q    Type
REMARK                         _______ _______ _______ _____ _____    ______ ____
ROOT
ATOM      1  N   UNL     1       0.719  -0.444  -1.202  0.00  0.00    -0.307 N 
ATOM      2  C   UNL     1       0.034  -0.573  -2.356  0.00  0.00    +0.231 C 
ATOM      3  O   UNL     1      -1.145  -0.291  -2.396  0.00  0.00    -0.274 OA
ATOM      4  H   UNL     1       1.662  -0.669  -1.171  0.00  0.00    +0.149 HD
ENDROOT
BRANCH   1   6
ATOM      5  C   UNL     1       0.030   1.566   0.009  0.00  0.00    +0.033 C 
ATOM      6  C   UNL     1       0.040   0.036   0.003  0.00  0.00    +0.100 C 
BRANCH   6   7
ATOM      7  C   UNL     1       0.767  -0.466   1.224  0.00  0.00    -0.027 A 
ATOM      8  C   UNL     1       2.161  -0.483   1.234  0.00  0.00    +0.006 A 
ATOM      9  C   UNL     1       2.849  -0.930   2.319  0.00  0.00    +0.009 A 
ATOM     10  C   UNL     1       2.146  -1.383   3.449  0.00  0.00    -0.018 A 
ATOM     11  C   UNL     1       2.822  -1.852   4.589  0.00  0.00    +0.008 A 
ATOM     12  C   UNL     1       2.108  -2.282   5.665  0.00  0.00    +0.001 A 
ATOM     13  C   UNL     1       0.715  -2.265   5.655  0.00  0.00    +0.001 A 
ATOM     14  C   UNL     1       0.027  -1.818   4.569  0.00  0.00    +0.008 A 
ATOM     15  C   UNL     1       0.729  -1.366   3.439  0.00  0.00    -0.018 A 
ATOM     16  C   UNL     1       0.054  -0.891   2.302  0.00  0.00    +0.014 A 
ENDBRANCH   6   7
ENDBRANCH   1   6
BRANCH   2  17
ATOM     17  C   UNL     1       0.733  -1.067  -3.596  0.00  0.00    +0.197 C 
BRANCH  17  18
ATOM     18  N   UNL     1      -0.221  -1.118  -4.707  0.00  0.00    -0.333 N 
ATOM     19  H   UNL     1      -1.144  -0.853  -4.566  0.00  0.00    +0.147 HD
BRANCH  18  20
ATOM     20  C   UNL     1       0.199  -1.549  -5.971  0.00  0.00    +0.065 A 
ATOM     21  C   UNL     1       1.517  -1.933  -6.171  0.00  0.00    +0.052 A 
ATOM     22  C   UNL     1       1.930  -2.360  -7.425  0.00  0.00    +0.071 A 
ATOM     23  C   UNL     1       1.023  -2.402  -8.478  0.00  0.00    +0.147 A 
ATOM     24  C   UNL     1      -0.291  -2.018  -8.276  0.00  0.00    +0.080 A 
ATOM     25  C   UNL     1      -0.707  -1.597  -7.025  0.00  0.00    +0.147 A 
ATOM     26  F   UNL     1      -1.991  -1.228  -6.830  0.00  0.00    -0.203 F 
ATOM     27  F   UNL     1       1.425  -2.817  -9.699  0.00  0.00    -0.203 F 
BRANCH  22  28
ATOM     28  N   UNL     1       3.261  -2.748  -7.630  0.00  0.00    -0.283 N 
ATOM     29  C   UNL     1       4.001  -3.188  -6.593  0.00  0.00    +0.214 C 
ATOM     30  O   UNL     1       3.490  -3.344  -5.505  0.00  0.00    -0.276 OA
ATOM     31  C   UNL     1       5.466  -3.487  -6.787  0.00  0.00    +0.109 C 
ATOM     32  H   UNL     1       3.649  -2.700  -8.517  0.00  0.00    +0.155 HD
ENDBRANCH  22  28
ENDBRANCH  18  20
ENDBRANCH  17  18
ENDBRANCH   2  17
TORSDOF 6
