REMARK  Name = ZINC07924782
REMARK  9 active torsions:
REMARK  status: ('A' for Active; 'I' for Inactive)
REMARK    1  A    between atoms: C_1  and  C_2
REMARK    2  A    between atoms: C_3  and  N_14
REMARK    3  A    between atoms: C_4  and  C_13
REMARK    4  A    between atoms: N_5  and  C_7
REMARK    5  A    between atoms: C_15  and  C_17
REMARK    6  A    between atoms: C_17  and  N_53
REMARK    7  A    between atoms: C_18  and  C_20
REMARK    8  A    between atoms: C_18  and  C_26
REMARK    9  A    between atoms: C_18  and  N_53
REMARK                            x       y       z     vdW  Elec       q    Type
REMARK                         _______ _______ _______ _____ _____    ______ ____
ROOT
ATOM      1  N   UNL     1       0.005   1.418   2.534  0.00  0.00    -0.284 N 
ATOM      2  C   UNL     1      -0.503   1.568   1.294  0.00  0.00    +0.200 C 
ATOM      3  O   UNL     1      -1.632   1.985   1.148  0.00  0.00    -0.278 OA
ATOM      4  H   UNL     1       0.874   1.004   2.655  0.00  0.00    +0.155 HD
ENDROOT
BRANCH   1   7
ATOM      5  C   UNL     1      -1.957   3.838   2.513  0.00  0.00    +0.069 C 
ATOM      6  C   UNL     1      -1.616   2.946   3.679  0.00  0.00    +0.082 A 
ATOM      7  C   UNL     1      -0.725   1.862   3.652  0.00  0.00    +0.078 A 
ATOM      8  C   UNL     1      -0.689   1.322   4.897  0.00  0.00    +0.063 A 
ATOM      9  N   UNL     1      -1.536   2.042   5.681  0.00  0.00    -0.235 N 
ATOM     10  N   UNL     1      -2.104   3.048   4.889  0.00  0.00    -0.170 NA
ATOM     11  C   UNL     1       0.139   0.140   5.331  0.00  0.00    +0.068 C 
BRANCH   9  12
ATOM     12  C   UNL     1      -1.796   1.816   7.040  0.00  0.00    +0.066 A 
ATOM     13  C   UNL     1      -3.095   1.899   7.523  0.00  0.00    +0.028 A 
ATOM     14  C   UNL     1      -3.349   1.671   8.861  0.00  0.00    +0.002 A 
ATOM     15  C   UNL     1      -2.309   1.370   9.722  0.00  0.00    +0.000 A 
ATOM     16  C   UNL     1      -1.013   1.290   9.244  0.00  0.00    +0.002 A 
ATOM     17  C   UNL     1      -0.754   1.513   7.906  0.00  0.00    +0.028 A 
ENDBRANCH   9  12
ENDBRANCH   1   7
BRANCH   2  18
ATOM     18  C   UNL     1       0.333   1.216   0.090  0.00  0.00    +0.016 C 
BRANCH  18  19
ATOM     19  N   UNL     1      -0.451   1.470  -1.133  0.00  0.00    +0.392 N 
ATOM     20  H   UNL     1      -0.713   2.462  -1.168  0.00  0.00    -0.084 HD
ATOM     21  H   UNL     1      -1.300   0.892  -1.117  0.00  0.00    -0.084 HD
BRANCH  19  22
ATOM     22  C   UNL     1       0.343   1.134  -2.329  0.00  0.00    -0.003 C 
BRANCH  22  23
ATOM     23  C   UNL     1      -0.590   0.805  -3.466  0.00  0.00    -0.057 A 
ATOM     24  C   UNL     1      -1.747   1.539  -3.646  0.00  0.00    +0.002 A 
ATOM     25  C   UNL     1      -2.600   1.240  -4.691  0.00  0.00    +0.000 A 
ATOM     26  C   UNL     1      -2.301   0.200  -5.551  0.00  0.00    +0.000 A 
ATOM     27  C   UNL     1      -1.147  -0.538  -5.369  0.00  0.00    +0.000 A 
ATOM     28  C   UNL     1      -0.291  -0.236  -4.326  0.00  0.00    +0.002 A 
ENDBRANCH  22  23
BRANCH  22  29
ATOM     29  C   UNL     1       1.202   2.312  -2.710  0.00  0.00    -0.020 A 
ATOM     30  C   UNL     1       2.483   2.327  -3.153  0.00  0.00    +0.010 A 
ATOM     31  C   UNL     1       3.076   3.541  -3.448  0.00  0.00    +0.008 A 
ATOM     32  C   UNL     1       2.363   4.680  -3.276  0.00  0.00    +0.045 A 
ATOM     33  S   UNL     1       0.799   4.051  -2.687  0.00  0.00    -0.103 S 
ENDBRANCH  22  29
ENDBRANCH  19  22
ENDBRANCH  18  19
ENDBRANCH   2  18
TORSDOF 7
