REMARK  Name = ZINC01334193
REMARK  14 active torsions:
REMARK  status: ('A' for Active; 'I' for Inactive)
REMARK    1  A    between atoms: C_1  and  C_2
REMARK    2  A    between atoms: C_2  and  C_3
REMARK    3  A    between atoms: C_2  and  C_4
REMARK    4  A    between atoms: C_4  and  C_6
REMARK    5  A    between atoms: C_4  and  N_64
REMARK    6  A    between atoms: N_10  and  C_11
REMARK    7  A    between atoms: C_11  and  C_12
REMARK    8  A    between atoms: C_19  and  C_20
REMARK    9  A    between atoms: C_19  and  N_64
REMARK   10  A    between atoms: C_20  and  O_21
REMARK   11  A    between atoms: C_22  and  C_23
REMARK   12  A    between atoms: C_22  and  N_64
REMARK   13  A    between atoms: C_27  and  O_35
REMARK   14  A    between atoms: O_35  and  C_36
REMARK                            x       y       z     vdW  Elec       q    Type
REMARK                         _______ _______ _______ _____ _____    ______ ____
ROOT
ATOM      1  N   UNL     1      -7.585   2.827   5.490  0.00  0.00    +0.391 N 
ATOM      2  H   UNL     1      -7.994   2.680   4.559  0.00  0.00    -0.080 HD
ENDROOT
BRANCH   1   3
ATOM      3  C   UNL     1      -8.635   3.325   6.403  0.00  0.00    +0.006 C 
BRANCH   3   4
ATOM      4  C   UNL     1      -8.338   2.911   7.821  0.00  0.00    +0.139 A 
ATOM      5  N   UNL     1      -7.949   1.726   8.225  0.00  0.00    -0.115 NA
ATOM      6  N   UNL     1      -7.798   1.772   9.504  0.00  0.00    -0.023 NA
ATOM      7  N   UNL     1      -8.090   2.952   9.927  0.00  0.00    -0.044 NA
ATOM      8  N   UNL     1      -8.428   3.684   8.919  0.00  0.00    -0.226 N 
BRANCH   8   9
ATOM      9  C   UNL     1      -8.833   5.091   8.963  0.00  0.00    +0.182 C 
BRANCH   9  10
ATOM     10  C   UNL     1     -10.326   5.178   9.145  0.00  0.00    -0.026 A 
ATOM     11  C   UNL     1     -11.156   5.219   8.040  0.00  0.00    +0.008 A 
ATOM     12  C   UNL     1     -12.526   5.294   8.207  0.00  0.00    +0.038 A 
ATOM     13  C   UNL     1     -13.066   5.340   9.480  0.00  0.00    +0.123 A 
ATOM     14  C   UNL     1     -12.234   5.305  10.586  0.00  0.00    +0.038 A 
ATOM     15  C   UNL     1     -10.865   5.224  10.418  0.00  0.00    +0.008 A 
ATOM     16  F   UNL     1     -14.405   5.418   9.644  0.00  0.00    -0.205 F 
ENDBRANCH   9  10
ENDBRANCH   8   9
ENDBRANCH   3   4
BRANCH   3  18
ATOM     17  C   UNL     1     -10.296   3.182   4.541  0.00  0.00    +0.006 C 
ATOM     18  C   UNL     1      -9.978   2.734   5.969  0.00  0.00    -0.024 C 
ATOM     19  C   UNL     1      -9.903   1.207   6.019  0.00  0.00    +0.006 C 
ENDBRANCH   3  18
ENDBRANCH   1   3
BRANCH   1  20
ATOM     20  C   UNL     1      -6.495   3.819   5.384  0.00  0.00    -0.049 C 
BRANCH  20  21
ATOM     21  C   UNL     1      -6.957   4.960   4.476  0.00  0.00    +0.137 C 
BRANCH  21  22
ATOM     22  O   UNL     1      -8.015   5.678   5.113  0.00  0.00    -0.397 OA
ATOM     23  H   UNL     1      -8.357   6.418   4.593  0.00  0.00    +0.209 HD
ENDBRANCH  21  22
ENDBRANCH  20  21
ENDBRANCH   1  20
BRANCH   1  24
ATOM     24  C   UNL     1      -7.052   1.541   5.987  0.00  0.00    -0.036 C 
BRANCH  24  25
ATOM     25  C   UNL     1      -6.193   0.924   4.913  0.00  0.00    +0.001 A 
ATOM     26  C   UNL     1      -4.844   1.038   4.979  0.00  0.00    +0.017 A 
ATOM     27  C   UNL     1      -4.038   0.427   3.920  0.00  0.00    +0.002 A 
ATOM     28  C   UNL     1      -2.641   0.509   3.937  0.00  0.00    +0.055 A 
ATOM     29  C   UNL     1      -1.912  -0.073   2.920  0.00  0.00    +0.121 A 
ATOM     30  C   UNL     1      -2.560  -0.747   1.887  0.00  0.00    +0.047 A 
ATOM     31  C   UNL     1      -3.934  -0.838   1.862  0.00  0.00    +0.030 A 
ATOM     32  C   UNL     1      -4.688  -0.254   2.874  0.00  0.00    +0.049 A 
ATOM     33  N   UNL     1      -6.066  -0.334   2.866  0.00  0.00    -0.322 N 
ATOM     34  H   UNL     1      -6.527  -0.819   2.123  0.00  0.00    +0.169 HD
ATOM     35  C   UNL     1      -6.797   0.230   3.843  0.00  0.00    +0.251 A 
ATOM     36  O   UNL     1      -8.012   0.139   3.804  0.00  0.00    -0.268 OA
BRANCH  29  37
ATOM     37  O   UNL     1      -0.555   0.007   2.929  0.00  0.00    -0.495 OA
ATOM     38  C   UNL     1       0.139  -0.622   1.850  0.00  0.00    +0.277 C 
ENDBRANCH  29  37
ENDBRANCH  24  25
ENDBRANCH   1  24
TORSDOF 11
