REMARK  Name = ZINC36610466
REMARK  18 active torsions:
REMARK  status: ('A' for Active; 'I' for Inactive)
REMARK    1  A    between atoms: C_1  and  C_2
REMARK    2  A    between atoms: C_2  and  C_3
REMARK    3  A    between atoms: C_2  and  C_4
REMARK    4  A    between atoms: C_2  and  C_5
REMARK    5  A    between atoms: C_5  and  C_6
REMARK    6  A    between atoms: C_6  and  C_7
REMARK    7  A    between atoms: C_6  and  C_8
REMARK    8  A    between atoms: C_6  and  N_9
REMARK    9  A    between atoms: C_10  and  C_12
REMARK   10  A    between atoms: C_12  and  C_14
REMARK   11  A    between atoms: C_12  and  N_23
REMARK   12  A    between atoms: C_17  and  N_20
REMARK   13  A    between atoms: N_20  and  C_21
REMARK   14  A    between atoms: N_20  and  C_22
REMARK   15  A    between atoms: N_23  and  C_24
REMARK   16  A    between atoms: C_30  and  C_32
REMARK   17  A    between atoms: C_36  and  O_39
REMARK   18  A    between atoms: C_37  and  O_38
REMARK                            x       y       z     vdW  Elec       q    Type
REMARK                         _______ _______ _______ _____ _____    ______ ____
ROOT
ATOM      1  C   UNL     1       5.707  -0.779  -4.093  0.00  0.00    +0.197 C 
ENDROOT
BRANCH   1   2
ATOM      2  C   UNL     1       5.767   0.343  -5.098  0.00  0.00    -0.018 A 
ATOM      3  C   UNL     1       6.740   1.319  -4.984  0.00  0.00    +0.008 A 
ATOM      4  C   UNL     1       6.798   2.348  -5.903  0.00  0.00    +0.023 A 
ATOM      5  C   UNL     1       5.878   2.401  -6.943  0.00  0.00    +0.029 A 
ATOM      6  C   UNL     1       4.903   1.419  -7.054  0.00  0.00    +0.023 A 
ATOM      7  C   UNL     1       4.854   0.389  -6.135  0.00  0.00    +0.008 A 
BRANCH   5   8
ATOM      8  N   UNL     1       5.934   3.441  -7.874  0.00  0.00    -0.336 N 
ATOM      9  C   UNL     1       7.028   4.414  -7.821  0.00  0.00    +0.129 C 
ATOM     10  C   UNL     1       4.899   3.558  -8.905  0.00  0.00    +0.129 C 
ENDBRANCH   5   8
ENDBRANCH   1   2
BRANCH   1  12
ATOM     11  N   UNL     1       3.344  -0.435  -3.447  0.00  0.00    -0.308 N 
ATOM     12  C   UNL     1       4.638  -0.482  -3.073  0.00  0.00    +0.239 C 
ATOM     13  O   UNL     1       4.942  -0.285  -1.915  0.00  0.00    -0.273 OA
ATOM     14  H   UNL     1       3.101  -0.592  -4.372  0.00  0.00    +0.149 HD
BRANCH  11  15
ATOM     15  C   UNL     1       2.305  -0.146  -2.455  0.00  0.00    +0.030 C 
ATOM     16  C   UNL     1       2.675   1.122  -1.683  0.00  0.00    +0.031 C 
ATOM     17  C   UNL     1       2.189  -1.321  -1.482  0.00  0.00    +0.031 C 
BRANCH  15  18
ATOM     18  C   UNL     1       0.966   0.061  -3.166  0.00  0.00    +0.031 C 
BRANCH  18  20
ATOM     19  C   UNL     1       1.780   0.275  -5.518  0.00  0.00    +0.010 C 
ATOM     20  C   UNL     1       1.155   1.024  -4.340  0.00  0.00    -0.036 C 
ATOM     21  C   UNL     1       2.078   2.169  -3.916  0.00  0.00    +0.010 C 
ATOM     22  C   UNL     1      -0.203   1.591  -4.758  0.00  0.00    +0.010 C 
ENDBRANCH  18  20
ENDBRANCH  15  18
ENDBRANCH  11  15
ENDBRANCH   1  12
BRANCH   1  23
ATOM     23  N   UNL     1       7.003  -0.902  -3.420  0.00  0.00    -0.251 N 
ATOM     24  C   UNL     1       7.448   0.093  -2.628  0.00  0.00    +0.255 C 
ATOM     25  O   UNL     1       8.481  -0.045  -2.001  0.00  0.00    -0.269 OA
BRANCH  23  26
ATOM     26  C   UNL     1       7.777  -2.053  -3.600  0.00  0.00    +0.038 A 
ATOM     27  C   UNL     1       7.387  -3.017  -4.521  0.00  0.00    +0.023 A 
ATOM     28  C   UNL     1       8.154  -4.152  -4.696  0.00  0.00    +0.002 A 
ATOM     29  C   UNL     1       9.309  -4.329  -3.956  0.00  0.00    +0.000 A 
ATOM     30  C   UNL     1       9.699  -3.372  -3.038  0.00  0.00    +0.002 A 
ATOM     31  C   UNL     1       8.940  -2.231  -2.863  0.00  0.00    +0.023 A 
ENDBRANCH  23  26
BRANCH  24  32
ATOM     32  C   UNL     1       6.684   1.350  -2.522  0.00  0.00    +0.082 A 
ATOM     33  C   UNL     1       5.501   1.516  -3.248  0.00  0.00    +0.017 A 
ATOM     34  C   UNL     1       4.790   2.691  -3.147  0.00  0.00    +0.005 A 
ATOM     35  C   UNL     1       5.240   3.714  -2.328  0.00  0.00    +0.049 A 
ATOM     36  C   UNL     1       6.410   3.564  -1.602  0.00  0.00    +0.159 A 
ATOM     37  C   UNL     1       7.136   2.381  -1.690  0.00  0.00    +0.171 A 
BRANCH  37  38
ATOM     38  O   UNL     1       8.280   2.228  -0.976  0.00  0.00    -0.503 OA
ATOM     39  H   UNL     1       9.076   2.522  -1.440  0.00  0.00    +0.292 HD
ENDBRANCH  37  38
BRANCH  36  40
ATOM     40  O   UNL     1       6.846   4.572  -0.800  0.00  0.00    -0.503 OA
ATOM     41  H   UNL     1       6.511   4.527   0.106  0.00  0.00    +0.292 HD
ENDBRANCH  36  40
ENDBRANCH  24  32
ENDBRANCH   1  23
TORSDOF 11
