REMARK  Name = ZINC39685906
REMARK  12 active torsions:
REMARK  status: ('A' for Active; 'I' for Inactive)
REMARK    1  A    between atoms: C_1  and  C_2
REMARK    2  A    between atoms: C_2  and  C_3
REMARK    3  A    between atoms: C_2  and  C_4
REMARK    4  A    between atoms: C_4  and  C_6
REMARK    5  A    between atoms: C_4  and  N_13
REMARK    6  A    between atoms: N_8  and  C_9
REMARK    7  A    between atoms: C_9  and  C_10
REMARK    8  A    between atoms: C_9  and  C_11
REMARK    9  A    between atoms: C_9  and  C_12
REMARK   10  A    between atoms: C_14  and  C_16
REMARK   11  A    between atoms: C_27  and  C_29
REMARK   12  A    between atoms: N_33  and  C_34
REMARK                            x       y       z     vdW  Elec       q    Type
REMARK                         _______ _______ _______ _____ _____    ______ ____
ROOT
ATOM      1  C   UNL     1      -1.464  -3.040   1.044  0.00  0.00    +0.100 C 
ATOM      2  C   UNL     1      -2.240  -4.134   0.277  0.00  0.00    +0.121 C 
ATOM      3  N   UNL     1      -1.918  -5.392   0.991  0.00  0.00    -0.295 N 
ATOM      4  C   UNL     1      -1.915  -5.012   2.424  0.00  0.00    +0.115 C 
ATOM      5  C   UNL     1      -1.253  -3.620   2.453  0.00  0.00    -0.004 C 
ATOM      6  C   UNL     1      -1.932  -2.736   3.495  0.00  0.00    -0.010 C 
ATOM      7  C   UNL     1      -1.659  -3.300   4.892  0.00  0.00    -0.082 C 
ATOM      8  N   UNL     1      -0.211  -3.347   5.129  0.00  0.00    +0.379 N 
ATOM      9  C   UNL     1       0.422  -4.272   4.181  0.00  0.00    -0.082 C 
ATOM     10  C   UNL     1       0.237  -3.749   2.754  0.00  0.00    -0.010 C 
ATOM     11  C   UNL     1      -1.681  -6.607   0.458  0.00  0.00    +0.265 C 
ATOM     12  O   UNL     1      -1.571  -7.578   1.183  0.00  0.00    -0.268 OA
ATOM     13  H   UNL     1       0.179  -2.424   5.007  0.00  0.00    -0.086 HD
ATOM     14  H   UNL     1      -0.035  -3.662   6.072  0.00  0.00    -0.086 HD
ENDROOT
BRANCH  11  15
ATOM     15  C   UNL     1      -1.556  -6.758  -0.996  0.00  0.00    +0.124 A 
ATOM     16  C   UNL     1      -1.287  -5.771  -1.903  0.00  0.00    +0.143 A 
ATOM     17  N   UNL     1      -1.257  -6.328  -3.114  0.00  0.00    -0.243 NA
ATOM     18  C   UNL     1      -1.493  -7.611  -3.015  0.00  0.00    +0.199 A 
ATOM     19  N   UNL     1      -1.679  -7.928  -1.721  0.00  0.00    -0.330 N 
ATOM     20  C   UNL     1      -1.963  -9.260  -1.183  0.00  0.00    +0.150 C 
ENDBRANCH  11  15
BRANCH   1  22
ATOM     21  N   UNL     1      -3.533  -1.803   1.601  0.00  0.00    -0.303 N 
ATOM     22  C   UNL     1      -2.276  -1.772   1.115  0.00  0.00    +0.219 C 
ATOM     23  O   UNL     1      -1.799  -0.724   0.734  0.00  0.00    -0.275 OA
ATOM     24  H   UNL     1      -3.896  -2.630   1.954  0.00  0.00    +0.149 HD
BRANCH  21  25
ATOM     25  C   UNL     1      -4.351  -0.588   1.594  0.00  0.00    +0.161 C 
BRANCH  25  26
ATOM     26  C   UNL     1      -5.396  -0.679   2.676  0.00  0.00    +0.234 C 
ATOM     27  O   UNL     1      -5.595  -1.735   3.239  0.00  0.00    -0.274 OA
ATOM     28  N   UNL     1      -6.108   0.412   3.019  0.00  0.00    -0.309 N 
ATOM     29  H   UNL     1      -5.899   1.272   2.623  0.00  0.00    +0.149 HD
BRANCH  28  30
ATOM     30  C   UNL     1      -7.200   0.298   3.990  0.00  0.00    +0.026 C 
ATOM     31  C   UNL     1      -6.647  -0.215   5.321  0.00  0.00    +0.031 C 
ATOM     32  C   UNL     1      -7.840   1.672   4.200  0.00  0.00    +0.031 C 
ATOM     33  C   UNL     1      -8.252  -0.679   3.462  0.00  0.00    +0.031 C 
ENDBRANCH  28  30
ENDBRANCH  25  26
BRANCH  25  35
ATOM     34  C   UNL     1      -3.978  -0.234  -0.851  0.00  0.00    +0.009 C 
ATOM     35  C   UNL     1      -5.037  -0.442   0.234  0.00  0.00    +0.012 C 
ATOM     36  C   UNL     1      -5.839  -1.708  -0.071  0.00  0.00    +0.009 C 
ENDBRANCH  25  35
ENDBRANCH  21  25
ENDBRANCH   1  22
TORSDOF 6
