REMARK  Name = ZINC13500597
REMARK  12 active torsions:
REMARK  status: ('A' for Active; 'I' for Inactive)
REMARK    1  A    between atoms: C_1  and  C_2
REMARK    2  A    between atoms: C_4  and  C_38
REMARK    3  A    between atoms: C_9  and  C_14
REMARK    4  A    between atoms: C_14  and  N_75
REMARK    5  A    between atoms: C_15  and  N_75
REMARK    6  A    between atoms: C_21  and  C_23
REMARK    7  A    between atoms: C_21  and  C_35
REMARK    8  A    between atoms: C_21  and  N_75
REMARK    9  A    between atoms: N_27  and  C_28
REMARK   10  A    between atoms: C_28  and  C_29
REMARK   11  A    between atoms: C_35  and  C_36
REMARK   12  A    between atoms: C_35  and  C_37
REMARK                            x       y       z     vdW  Elec       q    Type
REMARK                         _______ _______ _______ _____ _____    ______ ____
ROOT
ATOM      1  N   UNL     1       4.189   0.907  -2.697  0.00  0.00    +0.391 N 
ATOM      2  H   UNL     1       4.982   1.051  -3.333  0.00  0.00    -0.080 HD
ENDROOT
BRANCH   1   3
ATOM      3  C   UNL     1       2.932   1.014  -3.468  0.00  0.00    -0.067 C 
ATOM      4  C   UNL     1       3.198   0.551  -4.901  0.00  0.00    -0.015 C 
ATOM      5  C   UNL     1       1.912   0.666  -5.722  0.00  0.00    -0.002 C 
ATOM      6  C   UNL     1       1.444   2.123  -5.735  0.00  0.00    -0.000 C 
ATOM      7  C   UNL     1       1.177   2.586  -4.301  0.00  0.00    -0.002 C 
ATOM      8  C   UNL     1       2.464   2.470  -3.481  0.00  0.00    -0.015 C 
ENDBRANCH   1   3
BRANCH   1   9
ATOM      9  C   UNL     1       4.297  -0.436  -2.091  0.00  0.00    -0.036 C 
BRANCH   9  18
ATOM     10  C   UNL     1       8.527  -4.653  -6.556  0.00  0.00    +0.044 C 
ATOM     11  C   UNL     1       7.174  -4.186  -6.083  0.00  0.00    -0.050 A 
ATOM     12  C   UNL     1       6.026  -4.702  -6.668  0.00  0.00    +0.008 A 
ATOM     13  C   UNL     1       4.778  -4.290  -6.252  0.00  0.00    -0.026 A 
ATOM     14  C   UNL     1       4.667  -3.347  -5.235  0.00  0.00    +0.052 A 
ATOM     15  C   UNL     1       5.834  -2.827  -4.644  0.00  0.00    -0.001 A 
ATOM     16  C   UNL     1       7.089  -3.260  -5.083  0.00  0.00    +0.013 A 
ATOM     17  C   UNL     1       5.706  -1.836  -3.574  0.00  0.00    +0.017 A 
ATOM     18  C   UNL     1       4.463  -1.454  -3.189  0.00  0.00    +0.001 A 
ATOM     19  C   UNL     1       3.325  -2.011  -3.810  0.00  0.00    +0.251 A 
ATOM     20  O   UNL     1       2.217  -1.657  -3.446  0.00  0.00    -0.268 OA
ATOM     21  N   UNL     1       3.432  -2.917  -4.798  0.00  0.00    -0.322 N 
ATOM     22  H   UNL     1       2.629  -3.277  -5.206  0.00  0.00    +0.169 HD
ATOM     23  C   UNL     1       3.540  -4.857  -6.896  0.00  0.00    +0.046 C 
ENDBRANCH   9  18
ENDBRANCH   1   9
BRANCH   1  24
ATOM     24  C   UNL     1       4.224   1.942  -1.643  0.00  0.00    +0.006 C 
BRANCH  24  25
ATOM     25  C   UNL     1       4.429   3.288  -2.291  0.00  0.00    +0.139 A 
ATOM     26  N   UNL     1       5.024   3.523  -3.435  0.00  0.00    -0.115 NA
ATOM     27  N   UNL     1       5.003   4.795  -3.640  0.00  0.00    -0.023 NA
ATOM     28  N   UNL     1       4.405   5.376  -2.659  0.00  0.00    -0.044 NA
ATOM     29  N   UNL     1       4.034   4.480  -1.808  0.00  0.00    -0.226 N 
BRANCH  29  30
ATOM     30  C   UNL     1       3.322   4.717  -0.550  0.00  0.00    +0.182 C 
BRANCH  30  31
ATOM     31  C   UNL     1       1.836   4.647  -0.793  0.00  0.00    -0.026 A 
ATOM     32  C   UNL     1       1.156   3.462  -0.580  0.00  0.00    +0.005 A 
ATOM     33  C   UNL     1      -0.206   3.398  -0.802  0.00  0.00    +0.000 A 
ATOM     34  C   UNL     1      -0.888   4.517  -1.243  0.00  0.00    +0.000 A 
ATOM     35  C   UNL     1      -0.210   5.703  -1.451  0.00  0.00    +0.000 A 
ATOM     36  C   UNL     1       1.153   5.767  -1.228  0.00  0.00    +0.005 A 
ENDBRANCH  30  31
ENDBRANCH  29  30
ENDBRANCH  24  25
BRANCH  24  37
ATOM     37  C   UNL     1       5.388   1.651  -0.693  0.00  0.00    -0.024 C 
ATOM     38  C   UNL     1       6.698   1.629  -1.484  0.00  0.00    +0.006 C 
ATOM     39  C   UNL     1       5.457   2.741   0.378  0.00  0.00    +0.006 C 
ENDBRANCH  24  37
ENDBRANCH   1  24
TORSDOF 8
