REMARK  Name = ZINC57374947
REMARK  12 active torsions:
REMARK  status: ('A' for Active; 'I' for Inactive)
REMARK    1  A    between atoms: C_1  and  C_2
REMARK    2  A    between atoms: C_3  and  C_13
REMARK    3  A    between atoms: C_4  and  C_12
REMARK    4  A    between atoms: C_9  and  C_10
REMARK    5  A    between atoms: C_13  and  C_14
REMARK    6  A    between atoms: C_14  and  C_15
REMARK    7  A    between atoms: N_17  and  C_18
REMARK    8  A    between atoms: C_18  and  C_19
REMARK    9  A    between atoms: C_19  and  C_21
REMARK   10  A    between atoms: C_19  and  N_27
REMARK   11  A    between atoms: N_27  and  C_28
REMARK   12  A    between atoms: N_27  and  C_29
REMARK                            x       y       z     vdW  Elec       q    Type
REMARK                         _______ _______ _______ _____ _____    ______ ____
ROOT
ATOM      1  C   UNL     1      -4.802   0.788   1.508  0.00  0.00    +0.213 C 
ATOM      2  O   UNL     1      -5.308   1.248   0.506  0.00  0.00    -0.276 OA
ATOM      3  N   UNL     1      -5.275   1.135   2.721  0.00  0.00    -0.317 N 
ATOM      4  H   UNL     1      -4.871   0.768   3.523  0.00  0.00    +0.149 HD
ENDROOT
BRANCH   1   5
ATOM      5  C   UNL     1      -3.647  -0.173   1.396  0.00  0.00    +0.100 C 
BRANCH   5   6
ATOM      6  C   UNL     1      -3.310  -0.397  -0.079  0.00  0.00    +0.046 C 
BRANCH   6   9
ATOM      7  C   UNL     1      -0.574   0.584   0.106  0.00  0.00    +0.045 C 
ATOM      8  C   UNL     1      -0.845  -0.884  -0.102  0.00  0.00    -0.023 A 
ATOM      9  C   UNL     1      -2.154  -1.357  -0.191  0.00  0.00    -0.024 A 
ATOM     10  C   UNL     1      -2.389  -2.681  -0.377  0.00  0.00    +0.019 A 
ATOM     11  N   UNL     1      -1.370  -3.568  -0.480  0.00  0.00    -0.325 N 
ATOM     12  H   UNL     1      -1.567  -4.508  -0.613  0.00  0.00    +0.169 HD
ATOM     13  C   UNL     1      -0.087  -3.164  -0.402  0.00  0.00    +0.267 A 
ATOM     14  O   UNL     1       0.816  -3.976  -0.498  0.00  0.00    -0.266 OA
ATOM     15  C   UNL     1       0.208  -1.789  -0.213  0.00  0.00    +0.119 A 
ATOM     16  C   UNL     1      -3.810  -3.174  -0.470  0.00  0.00    +0.063 C 
BRANCH  15  17
ATOM     17  C   UNL     1       1.566  -1.340  -0.133  0.00  0.00    +0.105 C 
ATOM     18  N   UNL     1       2.643  -0.984  -0.069  0.00  0.00    -0.191 NA
ENDBRANCH  15  17
ENDBRANCH   6   9
ENDBRANCH   5   6
ENDBRANCH   1   5
BRANCH   3  19
ATOM     19  C   UNL     1      -6.399   2.069   2.830  0.00  0.00    +0.089 C 
BRANCH  19  20
ATOM     20  C   UNL     1      -6.600   2.457   4.296  0.00  0.00    -0.049 C 
BRANCH  20  21
ATOM     21  C   UNL     1      -7.865   3.308   4.430  0.00  0.00    -0.023 C 
ATOM     22  C   UNL     1      -8.009   3.782   5.877  0.00  0.00    +0.002 C 
ATOM     23  C   UNL     1      -9.274   4.633   6.010  0.00  0.00    +0.000 C 
ATOM     24  C   UNL     1     -10.495   3.796   5.624  0.00  0.00    +0.000 C 
ATOM     25  C   UNL     1     -10.350   3.321   4.176  0.00  0.00    +0.000 C 
ATOM     26  C   UNL     1      -9.086   2.471   4.043  0.00  0.00    +0.002 C 
ENDBRANCH  20  21
BRANCH  20  27
ATOM     27  N   UNL     1      -5.440   3.227   4.763  0.00  0.00    +0.379 N 
ATOM     28  C   UNL     1      -4.247   2.371   4.752  0.00  0.00    -0.096 C 
ATOM     29  C   UNL     1      -5.225   4.377   3.873  0.00  0.00    -0.096 C 
ATOM     30  H   UNL     1      -5.610   3.556   5.701  0.00  0.00    -0.082 HD
ENDBRANCH  20  27
ENDBRANCH  19  20
ENDBRANCH   3  19
TORSDOF 8
