REMARK  Name = ZINC02358318
REMARK  7 active torsions:
REMARK  status: ('A' for Active; 'I' for Inactive)
REMARK    1  A    between atoms: C_4  and  N_7
REMARK    2  A    between atoms: C_8  and  C_24
REMARK    3  A    between atoms: C_11  and  S_12
REMARK    4  A    between atoms: S_12  and  C_13
REMARK    5  A    between atoms: C_13  and  C_14
REMARK    6  A    between atoms: N_16  and  N_17
REMARK    7  A    between atoms: C_18  and  C_19
REMARK                            x       y       z     vdW  Elec       q    Type
REMARK                         _______ _______ _______ _____ _____    ______ ____
ROOT
ATOM      1  N   UNL     1      -3.764   1.532  -0.159  0.00  0.00    -0.270 N 
ATOM      2  C   UNL     1      -2.501   0.983  -0.132  0.00  0.00    +0.169 A 
ATOM      3  N   UNL     1      -2.643  -0.300   0.108  0.00  0.00    -0.128 NA
ATOM      4  N   UNL     1      -3.889  -0.590   0.227  0.00  0.00    -0.122 NA
ATOM      5  C   UNL     1      -4.622   0.490   0.070  0.00  0.00    +0.197 A 
ENDROOT
BRANCH   2   6
ATOM      6  C   UNL     1      -1.225   1.704  -0.329  0.00  0.00    +0.020 A 
ATOM      7  C   UNL     1      -1.218   2.963  -0.932  0.00  0.00    +0.012 A 
ATOM      8  C   UNL     1      -0.025   3.633  -1.108  0.00  0.00    +0.016 A 
ATOM      9  C   UNL     1       1.164   3.057  -0.694  0.00  0.00    +0.018 A 
ATOM     10  C   UNL     1       1.163   1.806  -0.100  0.00  0.00    +0.016 A 
ATOM     11  C   UNL     1      -0.023   1.126   0.082  0.00  0.00    +0.012 A 
ATOM     12 BR   UNL     1       2.794   3.982  -0.939  0.00  0.00    -0.050 Br
ENDBRANCH   2   6
BRANCH   1  16
ATOM     13  C   UNL     1      -4.766   5.526  -0.808  0.00  0.00    +0.000 A 
ATOM     14  C   UNL     1      -5.095   4.569  -1.751  0.00  0.00    +0.002 A 
ATOM     15  C   UNL     1      -4.764   3.245  -1.539  0.00  0.00    +0.026 A 
ATOM     16  C   UNL     1      -4.101   2.875  -0.377  0.00  0.00    +0.051 A 
ATOM     17  C   UNL     1      -3.776   3.836   0.570  0.00  0.00    +0.026 A 
ATOM     18  C   UNL     1      -4.104   5.159   0.350  0.00  0.00    +0.002 A 
ENDBRANCH   1  16
BRANCH   5  19
ATOM     19  S   UNL     1      -6.380   0.581   0.146  0.00  0.00    -0.076 S 
BRANCH  19  20
ATOM     20  C   UNL     1      -6.770  -1.154   0.481  0.00  0.00    +0.174 C 
BRANCH  20  21
ATOM     21  C   UNL     1      -8.264  -1.321   0.590  0.00  0.00    +0.242 C 
ATOM     22  O   UNL     1      -8.993  -0.361   0.454  0.00  0.00    -0.273 OA
ATOM     23  N   UNL     1      -8.790  -2.537   0.837  0.00  0.00    -0.206 N 
ATOM     24  H   UNL     1      -8.207  -3.304   0.946  0.00  0.00    +0.177 HD
BRANCH  23  25
ATOM     25  N   UNL     1     -10.179  -2.692   0.939  0.00  0.00    -0.187 NA
ATOM     26  C   UNL     1     -10.686  -3.865   1.178  0.00  0.00    +0.145 C 
BRANCH  26  27
ATOM     27  C   UNL     1     -12.140  -4.028   1.284  0.00  0.00    +0.032 A 
ATOM     28  C   UNL     1     -12.874  -5.176   1.524  0.00  0.00    +0.017 A 
ATOM     29  C   UNL     1     -14.245  -5.075   1.583  0.00  0.00    +0.008 A 
ATOM     30  C   UNL     1     -14.831  -3.864   1.395  0.00  0.00    +0.046 A 
ATOM     31  S   UNL     1     -13.424  -2.797   1.128  0.00  0.00    -0.096 S 
ENDBRANCH  26  27
ENDBRANCH  23  25
ENDBRANCH  20  21
ENDBRANCH  19  20
ENDBRANCH   5  19
TORSDOF 7
