REMARK  Name = ZINC13676970
REMARK  7 active torsions:
REMARK  status: ('A' for Active; 'I' for Inactive)
REMARK    1  A    between atoms: C_4  and  C_7
REMARK    2  A    between atoms: C_7  and  S_8
REMARK    3  A    between atoms: S_8  and  N_11
REMARK    4  A    between atoms: C_13  and  C_22
REMARK    5  A    between atoms: N_24  and  C_25
REMARK    6  A    between atoms: C_30  and  S_31
REMARK    7  A    between atoms: S_31  and  C_32
REMARK                            x       y       z     vdW  Elec       q    Type
REMARK                         _______ _______ _______ _____ _____    ______ ____
ROOT
ATOM      1  N   UNL     1      -2.122   1.058   1.195  0.00  0.00    -0.200 N 
ATOM      2  C   UNL     1      -0.741   1.566   1.258  0.00  0.00    +0.185 C 
ATOM      3  C   UNL     1      -0.009   1.076  -0.000  0.00  0.00    +0.278 C 
ATOM      4  O   UNL     1      -0.704   1.551  -1.155  0.00  0.00    -0.476 OA
ATOM      5  C   UNL     1      -2.051   1.357  -1.205  0.00  0.00    +0.144 A 
ATOM      6  C   UNL     1      -2.781   1.112  -0.044  0.00  0.00    +0.093 A 
ATOM      7  C   UNL     1      -4.152   0.921  -0.110  0.00  0.00    +0.028 A 
ATOM      8  C   UNL     1      -4.796   0.972  -1.333  0.00  0.00    +0.002 A 
ATOM      9  C   UNL     1      -4.074   1.213  -2.486  0.00  0.00    +0.004 A 
ATOM     10  C   UNL     1      -2.706   1.405  -2.426  0.00  0.00    +0.047 A 
ENDROOT
BRANCH   3  11
ATOM     11  C   UNL     1       1.401   1.609  -0.004  0.00  0.00    +0.260 C 
ATOM     12  O   UNL     1       1.750   2.394  -0.861  0.00  0.00    -0.271 OA
ATOM     13  N   UNL     1       2.274   1.213   0.943  0.00  0.00    -0.281 N 
ATOM     14  H   UNL     1       1.974   0.649   1.673  0.00  0.00    +0.155 HD
BRANCH  13  15
ATOM     15  C   UNL     1       3.614   1.616   0.874  0.00  0.00    +0.047 A 
ATOM     16  C   UNL     1       4.175   1.957  -0.348  0.00  0.00    +0.024 A 
ATOM     17  C   UNL     1       5.496   2.360  -0.413  0.00  0.00    +0.002 A 
ATOM     18  C   UNL     1       6.264   2.414   0.735  0.00  0.00    +0.001 A 
ATOM     19  C   UNL     1       5.716   2.071   1.956  0.00  0.00    +0.017 A 
ATOM     20  C   UNL     1       4.389   1.671   2.032  0.00  0.00    +0.034 A 
BRANCH  20  21
ATOM     21  S   UNL     1       3.686   1.232   3.587  0.00  0.00    -0.088 S 
BRANCH  21  22
ATOM     22  C   UNL     1       4.962   1.591   4.748  0.00  0.00    +0.013 A 
ATOM     23  C   UNL     1       5.825   0.586   5.167  0.00  0.00    +0.015 A 
ATOM     24  C   UNL     1       6.827   0.872   6.074  0.00  0.00    +0.001 A 
ATOM     25  C   UNL     1       6.965   2.154   6.572  0.00  0.00    +0.000 A 
ATOM     26  C   UNL     1       6.105   3.156   6.162  0.00  0.00    +0.001 A 
ATOM     27  C   UNL     1       5.104   2.878   5.252  0.00  0.00    +0.015 A 
ENDBRANCH  21  22
ENDBRANCH  20  21
ENDBRANCH  13  15
ENDBRANCH   3  11
BRANCH   1  28
ATOM     28  S   UNL     1      -2.872   0.446   2.538  0.00  0.00    +0.050 S 
ATOM     29  O   UNL     1      -3.843  -0.459   2.031  0.00  0.00    -0.155 OA
ATOM     30  O   UNL     1      -1.813  -0.017   3.365  0.00  0.00    -0.155 OA
BRANCH  28  31
ATOM     31  C   UNL     1      -3.687   1.872   3.308  0.00  0.00    +0.224 C 
BRANCH  31  35
ATOM     32  C   UNL     1      -5.733   0.608   6.839  0.00  0.00    +0.000 A 
ATOM     33  C   UNL     1      -4.417   1.026   6.914  0.00  0.00    +0.000 A 
ATOM     34  C   UNL     1      -3.755   1.435   5.771  0.00  0.00    +0.005 A 
ATOM     35  C   UNL     1      -4.409   1.426   4.553  0.00  0.00    -0.025 A 
ATOM     36  C   UNL     1      -5.726   1.012   4.479  0.00  0.00    +0.005 A 
ATOM     37  C   UNL     1      -6.386   0.599   5.620  0.00  0.00    +0.000 A 
ENDBRANCH  31  35
ENDBRANCH  28  31
ENDBRANCH   1  28
TORSDOF 7
