REMARK  Name = ZINC59982464
REMARK  13 active torsions:
REMARK  status: ('A' for Active; 'I' for Inactive)
REMARK    1  A    between atoms: C_1  and  C_2
REMARK    2  A    between atoms: C_5  and  C_31
REMARK    3  A    between atoms: N_8  and  C_10
REMARK    4  A    between atoms: C_10  and  C_11
REMARK    5  A    between atoms: C_10  and  C_12
REMARK    6  A    between atoms: C_10  and  C_13
REMARK    7  A    between atoms: C_13  and  N_14
REMARK    8  A    between atoms: C_15  and  C_17
REMARK    9  A    between atoms: C_19  and  S_24
REMARK   10  A    between atoms: S_24  and  N_27
REMARK   11  A    between atoms: N_27  and  C_28
REMARK   12  A    between atoms: C_28  and  C_29
REMARK   13  A    between atoms: C_28  and  C_30
REMARK                            x       y       z     vdW  Elec       q    Type
REMARK                         _______ _______ _______ _____ _____    ______ ____
ROOT
ATOM      1  N   UNL     1       2.801  -0.371   2.305  0.00  0.00    -0.313 N 
ATOM      2  C   UNL     1       3.883   0.403   2.090  0.00  0.00    +0.245 C 
ATOM      3  O   UNL     1       4.956  -0.108   1.836  0.00  0.00    -0.270 OA
ATOM      4  H   UNL     1       1.945   0.037   2.508  0.00  0.00    +0.149 HD
ENDROOT
BRANCH   2   5
ATOM      5  C   UNL     1       3.764   1.875   2.163  0.00  0.00    +0.057 A 
ATOM      6  C   UNL     1       2.535   2.465   2.461  0.00  0.00    +0.043 A 
ATOM      7  C   UNL     1       2.431   3.839   2.528  0.00  0.00    +0.106 A 
ATOM      8  C   UNL     1       3.543   4.632   2.301  0.00  0.00    +0.030 A 
ATOM      9  C   UNL     1       4.764   4.055   2.006  0.00  0.00    +0.022 A 
ATOM     10  C   UNL     1       4.884   2.680   1.941  0.00  0.00    +0.053 A 
ATOM     11 CL   UNL     1       6.419   1.957   1.578  0.00  0.00    -0.083 Cl
BRANCH   7  12
ATOM     12  S   UNL     1       0.880   4.586   2.903  0.00  0.00    +0.059 S 
ATOM     13  O   UNL     1       0.924   5.902   2.370  0.00  0.00    -0.153 OA
ATOM     14  O   UNL     1      -0.122   3.648   2.535  0.00  0.00    -0.153 OA
BRANCH  12  15
ATOM     15  N   UNL     1       0.798   4.744   4.549  0.00  0.00    -0.187 NA
ATOM     16  H   UNL     1       0.133   4.248   5.052  0.00  0.00    +0.148 HD
BRANCH  15  17
ATOM     17  C   UNL     1       1.731   5.633   5.247  0.00  0.00    +0.070 C 
ATOM     18  C   UNL     1       1.077   7.001   5.449  0.00  0.00    +0.025 C 
ATOM     19  C   UNL     1       2.086   5.032   6.608  0.00  0.00    +0.025 C 
ENDBRANCH  15  17
ENDBRANCH  12  15
ENDBRANCH   7  12
ENDBRANCH   2   5
BRANCH   1  20
ATOM     20  C   UNL     1       2.918  -1.830   2.232  0.00  0.00    +0.092 C 
BRANCH  20  21
ATOM     21  C   UNL     1       1.589  -2.469   2.639  0.00  0.00    -0.055 C 
ATOM     22  C   UNL     1       1.737  -3.992   2.646  0.00  0.00    -0.008 C 
ATOM     23  C   UNL     1       0.503  -2.067   1.639  0.00  0.00    -0.008 C 
BRANCH  21  29
ATOM     24  C   UNL     1       3.028  -2.192   7.310  0.00  0.00    +0.005 C 
ATOM     25  C   UNL     1       1.924  -1.815   6.319  0.00  0.00    -0.031 C 
ATOM     26  C   UNL     1       0.594  -2.417   6.782  0.00  0.00    +0.003 C 
ATOM     27  C   UNL     1      -0.486  -2.100   5.744  0.00  0.00    -0.031 C 
ATOM     28  C   UNL     1      -0.049  -2.639   4.380  0.00  0.00    -0.075 C 
ATOM     29  N   UNL     1       1.214  -2.007   3.982  0.00  0.00    +0.384 N 
ATOM     30  C   UNL     1       2.273  -2.364   4.934  0.00  0.00    -0.075 C 
ATOM     31  C   UNL     1      -1.802  -2.762   6.159  0.00  0.00    +0.005 C 
ATOM     32  H   UNL     1       1.098  -1.005   3.971  0.00  0.00    -0.081 HD
ENDBRANCH  21  29
ENDBRANCH  20  21
ENDBRANCH   1  20
TORSDOF 7
