REMARK  Name = ZINC56722346
REMARK  6 active torsions:
REMARK  status: ('A' for Active; 'I' for Inactive)
REMARK    1  A    between atoms: C_1  and  C_2
REMARK    2  A    between atoms: C_2  and  C_4
REMARK    3  A    between atoms: C_2  and  N_14
REMARK    4  A    between atoms: C_7  and  S_10
REMARK    5  A    between atoms: S_10  and  N_13
REMARK    6  A    between atoms: N_17  and  C_18
REMARK                            x       y       z     vdW  Elec       q    Type
REMARK                         _______ _______ _______ _____ _____    ______ ____
ROOT
ATOM      1  N   UNL     1       0.691  -0.460  -1.208  0.00  0.00    -0.293 N 
ATOM      2  C   UNL     1       0.007  -0.602  -2.361  0.00  0.00    +0.304 C 
ATOM      3  O   UNL     1      -1.178  -0.332  -2.402  0.00  0.00    -0.252 OA
ATOM      4  N   UNL     1       0.637  -1.043  -3.467  0.00  0.00    -0.266 N 
ATOM      5  H   UNL     1       1.636  -0.675  -1.175  0.00  0.00    +0.151 HD
ATOM      6  H   UNL     1       1.595  -1.196  -3.452  0.00  0.00    +0.156 HD
ENDROOT
BRANCH   4   7
ATOM      7  C   UNL     1      -0.092  -1.280  -4.641  0.00  0.00    +0.080 A 
ATOM      8  C   UNL     1      -1.176  -0.475  -4.960  0.00  0.00    +0.027 A 
ATOM      9  C   UNL     1      -1.895  -0.708  -6.116  0.00  0.00    +0.006 A 
ATOM     10  C   UNL     1      -1.538  -1.745  -6.958  0.00  0.00    +0.049 A 
ATOM     11  C   UNL     1      -0.455  -2.555  -6.647  0.00  0.00    +0.164 A 
ATOM     12  C   UNL     1       0.275  -2.320  -5.491  0.00  0.00    +0.183 A 
ATOM     13  O   UNL     1       1.349  -3.095  -5.174  0.00  0.00    -0.483 OA
ATOM     14  C   UNL     1       1.458  -4.352  -5.852  0.00  0.00    +0.270 C 
ATOM     15  C   UNL     1       1.200  -4.115  -7.346  0.00  0.00    +0.270 C 
ATOM     16  O   UNL     1      -0.121  -3.574  -7.487  0.00  0.00    -0.485 OA
ENDBRANCH   4   7
BRANCH   1  18
ATOM     17  C   UNL     1      -0.019   1.549  -0.007  0.00  0.00    +0.033 C 
ATOM     18  C   UNL     1       0.006   0.020  -0.004  0.00  0.00    +0.102 C 
BRANCH  18  19
ATOM     19  C   UNL     1       0.739  -0.469   1.219  0.00  0.00    -0.027 A 
ATOM     20  C   UNL     1       2.121  -0.475   1.240  0.00  0.00    +0.007 A 
ATOM     21  C   UNL     1       2.793  -0.923   2.361  0.00  0.00    +0.029 A 
ATOM     22  C   UNL     1       2.083  -1.364   3.462  0.00  0.00    +0.105 A 
ATOM     23  C   UNL     1       0.701  -1.357   3.442  0.00  0.00    +0.029 A 
ATOM     24  C   UNL     1       0.029  -0.905   2.322  0.00  0.00    +0.007 A 
BRANCH  22  25
ATOM     25  S   UNL     1       2.940  -1.936   4.892  0.00  0.00    +0.056 S 
ATOM     26  O   UNL     1       2.049  -2.804   5.579  0.00  0.00    -0.153 OA
ATOM     27  O   UNL     1       4.226  -2.354   4.455  0.00  0.00    -0.153 OA
BRANCH  25  28
ATOM     28  N   UNL     1       3.178  -0.626   5.877  0.00  0.00    -0.204 NA
ATOM     29  H   UNL     1       2.857   0.249   5.607  0.00  0.00    +0.144 HD
ATOM     30  H   UNL     1       3.637  -0.733   6.724  0.00  0.00    +0.144 HD
ENDBRANCH  25  28
ENDBRANCH  22  25
ENDBRANCH  18  19
ENDBRANCH   1  18
TORSDOF 5
