REMARK  Name = ZINC43555567
REMARK  10 active torsions:
REMARK  status: ('A' for Active; 'I' for Inactive)
REMARK    1  A    between atoms: C_1  and  C_2
REMARK    2  A    between atoms: C_2  and  C_3
REMARK    3  A    between atoms: C_3  and  C_4
REMARK    4  A    between atoms: N_12  and  C_13
REMARK    5  A    between atoms: N_12  and  C_14
REMARK    6  A    between atoms: C_14  and  C_15
REMARK    7  A    between atoms: N_17  and  C_18
REMARK    8  A    between atoms: C_19  and  C_26
REMARK    9  A    between atoms: C_21  and  C_25
REMARK   10  A    between atoms: C_23  and  C_24
REMARK                            x       y       z     vdW  Elec       q    Type
REMARK                         _______ _______ _______ _____ _____    ______ ____
ROOT
ATOM      1  C   UNL     1      -1.702  -4.644  -4.523  0.00  0.00    +0.104 A 
ATOM      2  N   UNL     1      -2.052  -4.646  -3.253  0.00  0.00    -0.145 NA
ATOM      3  N   UNL     1      -1.799  -5.663  -2.547  0.00  0.00    -0.126 NA
ATOM      4  C   UNL     1      -1.195  -6.724  -3.046  0.00  0.00    +0.189 A 
ATOM      5  S   UNL     1      -0.962  -6.266  -4.651  0.00  0.00    -0.035 S 
ATOM      6  N   UNL     1      -0.846  -7.913  -2.413  0.00  0.00    -0.247 N 
ATOM      7  C   UNL     1      -1.129  -8.090  -1.107  0.00  0.00    +0.308 C 
ATOM      8  O   UNL     1      -1.689  -7.210  -0.482  0.00  0.00    -0.252 OA
ATOM      9  N   UNL     1      -0.791  -9.242  -0.494  0.00  0.00    -0.280 N 
ATOM     10  C   UNL     1      -0.117 -10.302  -1.248  0.00  0.00    +0.134 C 
ATOM     11  H   UNL     1      -0.400  -8.615  -2.912  0.00  0.00    +0.158 HD
ENDROOT
BRANCH   1  12
ATOM     12  C   UNL     1      -1.882  -3.578  -5.574  0.00  0.00    +0.064 C 
BRANCH  12  14
ATOM     13  C   UNL     1      -0.842  -1.577  -6.648  0.00  0.00    +0.004 C 
ATOM     14  C   UNL     1      -0.659  -2.659  -5.581  0.00  0.00    +0.003 C 
ENDBRANCH  12  14
ENDBRANCH   1  12
BRANCH   9  15
ATOM     15  C   UNL     1      -1.098  -9.434   0.925  0.00  0.00    +0.205 C 
BRANCH  15  16
ATOM     16  C   UNL     1      -2.465 -10.054   1.064  0.00  0.00    +0.235 C 
ATOM     17  O   UNL     1      -3.117 -10.311   0.074  0.00  0.00    -0.274 OA
ATOM     18  N   UNL     1      -2.961 -10.324   2.287  0.00  0.00    -0.284 N 
ATOM     19  H   UNL     1      -2.411 -10.188   3.075  0.00  0.00    +0.155 HD
BRANCH  18  20
ATOM     20  C   UNL     1      -4.269 -10.802   2.422  0.00  0.00    +0.039 A 
ATOM     21  C   UNL     1      -4.513 -11.978   3.119  0.00  0.00    -0.029 A 
ATOM     22  C   UNL     1      -5.805 -12.446   3.250  0.00  0.00    +0.008 A 
ATOM     23  C   UNL     1      -6.857 -11.745   2.688  0.00  0.00    -0.050 A 
ATOM     24  C   UNL     1      -6.617 -10.574   1.992  0.00  0.00    +0.008 A 
ATOM     25  C   UNL     1      -5.328 -10.097   1.863  0.00  0.00    -0.029 A 
ATOM     26  C   UNL     1      -5.069  -8.817   1.111  0.00  0.00    +0.045 C 
ATOM     27  C   UNL     1      -8.266 -12.260   2.833  0.00  0.00    +0.044 C 
ATOM     28  C   UNL     1      -3.368 -12.742   3.732  0.00  0.00    +0.045 C 
ENDBRANCH  18  20
ENDBRANCH  15  16
ENDBRANCH   9  15
TORSDOF 5
