REMARK  Name = ZINC04616580
REMARK  2 active torsions:
REMARK  status: ('A' for Active; 'I' for Inactive)
REMARK    1  A    between atoms: C_4  and  C_8
REMARK    2  A    between atoms: N_9  and  N_10
REMARK                            x       y       z     vdW  Elec       q    Type
REMARK                         _______ _______ _______ _____ _____    ______ ____
ROOT
ATOM      1  C   UNL     1      -0.070   5.321   0.030  0.00  0.00    +0.141 C 
ATOM      2  N   UNL     1      -1.203   5.955   0.044  0.00  0.00    -0.189 NA
ENDROOT
BRANCH   2   3
ATOM      3  N   UNL     1      -1.222   7.356   0.052  0.00  0.00    -0.220 N 
ATOM      4  C   UNL     1      -2.436   8.034   0.067  0.00  0.00    +0.161 A 
ATOM      5  C   UNL     1      -2.458   9.430   0.080  0.00  0.00    +0.050 A 
ATOM      6  C   UNL     1      -3.692  10.058   0.090  0.00  0.00    +0.045 A 
ATOM      7  C   UNL     1      -4.831   9.261   0.096  0.00  0.00    +0.152 A 
ATOM      8  N   UNL     1      -4.716   7.947   0.087  0.00  0.00    -0.136 NA
ATOM      9  N   UNL     1      -3.576   7.359   0.073  0.00  0.00    -0.131 NA
ATOM     10 CL   UNL     1      -6.404   9.995   0.115  0.00  0.00    -0.060 Cl
ATOM     11  H   UNL     1      -0.389   7.852   0.047  0.00  0.00    +0.176 HD
ENDBRANCH   2   3
BRANCH   1  15
ATOM     12  C   UNL     1      -0.013   1.076   0.008  0.00  0.00    +0.003 A 
ATOM     13  C   UNL     1      -1.222   1.748   0.017  0.00  0.00    +0.021 A 
ATOM     14  C   UNL     1      -1.249   3.128   0.030  0.00  0.00    +0.051 A 
ATOM     15  C   UNL     1      -0.050   3.847   0.022  0.00  0.00    +0.031 A 
ATOM     16  C   UNL     1       1.168   3.161   0.007  0.00  0.00    +0.051 A 
ATOM     17  C   UNL     1       1.178   1.780   0.000  0.00  0.00    +0.021 A 
ATOM     18 CL   UNL     1       2.663   4.042  -0.002  0.00  0.00    -0.083 Cl
ATOM     19 CL   UNL     1      -2.768   3.969   0.048  0.00  0.00    -0.083 Cl
ENDBRANCH   1  15
TORSDOF 2
