REMARK  Name = ZINC64492050
REMARK  10 active torsions:
REMARK  status: ('A' for Active; 'I' for Inactive)
REMARK    1  A    between atoms: C_1  and  C_2
REMARK    2  A    between atoms: C_4  and  C_32
REMARK    3  A    between atoms: C_5  and  C_31
REMARK    4  A    between atoms: C_7  and  C_8
REMARK    5  A    between atoms: C_14  and  C_17
REMARK    6  A    between atoms: N_22  and  C_25
REMARK    7  A    between atoms: C_32  and  O_34
REMARK    8  A    between atoms: O_34  and  C_35
REMARK    9  A    between atoms: C_35  and  C_36
REMARK   10  A    between atoms: C_35  and  C_37
REMARK                            x       y       z     vdW  Elec       q    Type
REMARK                         _______ _______ _______ _____ _____    ______ ____
ROOT
ATOM      1  C   UNL     1       0.528  -0.327   2.610  0.00  0.00    +0.261 C 
ATOM      2  O   UNL     1      -0.378   0.403   2.961  0.00  0.00    -0.269 OA
ATOM      3  N   UNL     1       1.284  -0.954   3.534  0.00  0.00    -0.296 N 
ATOM      4  C   UNL     1       2.455  -1.744   3.131  0.00  0.00    +0.108 C 
ATOM      5  C   UNL     1       2.329  -3.150   3.728  0.00  0.00    +0.020 C 
ATOM      6  C   UNL     1       2.134  -3.042   5.242  0.00  0.00    +0.016 C 
ATOM      7  C   UNL     1       0.843  -2.275   5.538  0.00  0.00    +0.092 C 
ATOM      8  C   UNL     1       0.955  -0.855   4.963  0.00  0.00    +0.120 C 
ENDROOT
BRANCH   7   9
ATOM      9  C   UNL     1       0.634  -2.198   7.028  0.00  0.00    +0.220 C 
ATOM     10  O   UNL     1       1.010  -1.222   7.643  0.00  0.00    -0.275 OA
ATOM     11  N   UNL     1       0.031  -3.213   7.678  0.00  0.00    -0.305 N 
ATOM     12  C   UNL     1      -0.519  -4.361   6.941  0.00  0.00    +0.089 C 
ATOM     13  C   UNL     1       0.008  -5.648   7.584  0.00  0.00    -0.059 C 
ATOM     14  N   UNL     1      -0.306  -5.642   9.018  0.00  0.00    +0.384 N 
ATOM     15  C   UNL     1       0.412  -4.546   9.682  0.00  0.00    -0.059 C 
ATOM     16  C   UNL     1      -0.090  -3.207   9.144  0.00  0.00    +0.089 C 
ATOM     17  H   UNL     1      -1.299  -5.516   9.143  0.00  0.00    -0.081 HD
BRANCH  14  18
ATOM     18  C   UNL     1       0.101  -6.922   9.612  0.00  0.00    -0.068 C 
ATOM     19  C   UNL     1      -0.655  -8.064   8.929  0.00  0.00    -0.015 C 
ATOM     20  C   UNL     1      -0.231  -9.398   9.548  0.00  0.00    -0.002 C 
ATOM     21  C   UNL     1      -0.557  -9.393  11.043  0.00  0.00    -0.000 C 
ATOM     22  C   UNL     1       0.198  -8.251  11.726  0.00  0.00    -0.002 C 
ATOM     23  C   UNL     1      -0.226  -6.917  11.107  0.00  0.00    -0.015 C 
ENDBRANCH  14  18
ENDBRANCH   7   9
BRANCH   1  29
ATOM     24  C   UNL     1      -0.054   1.526   0.015  0.00  0.00    +0.019 C 
ATOM     25  C   UNL     1      -0.019  -0.004   0.009  0.00  0.00    +0.078 C 
ATOM     26  C   UNL     1       0.738  -0.520  -1.201  0.00  0.00    +0.066 C 
ATOM     27  C   UNL     1       1.790  -1.202  -0.690  0.00  0.00    +0.049 C 
ATOM     28  N   UNL     1       1.798  -1.186   0.646  0.00  0.00    -0.250 NA
ATOM     29  C   UNL     1       0.803  -0.527   1.171  0.00  0.00    +0.111 C 
ATOM     30  C   UNL     1       2.829  -1.898  -1.529  0.00  0.00    +0.066 C 
BRANCH  26  31
ATOM     31  C   UNL     1       0.403  -0.324  -2.615  0.00  0.00    +0.338 C 
ATOM     32  O   UNL     1       1.111  -0.802  -3.479  0.00  0.00    -0.245 OA
BRANCH  31  33
ATOM     33  O   UNL     1      -0.691   0.388  -2.956  0.00  0.00    -0.459 OA
BRANCH  33  34
ATOM     34  C   UNL     1      -0.956   0.540  -4.352  0.00  0.00    +0.171 C 
ATOM     35  C   UNL     1      -2.465   0.664  -4.574  0.00  0.00    +0.052 C 
ATOM     36  C   UNL     1      -0.260   1.800  -4.870  0.00  0.00    +0.052 C 
ENDBRANCH  33  34
ENDBRANCH  31  33
ENDBRANCH  26  31
ENDBRANCH   1  29
TORSDOF 6
