REMARK  Name = ZINC21659090
REMARK  8 active torsions:
REMARK  status: ('A' for Active; 'I' for Inactive)
REMARK    1  A    between atoms: C_1  and  C_2
REMARK    2  A    between atoms: C_7  and  C_8
REMARK    3  A    between atoms: C_20  and  C_22
REMARK    4  A    between atoms: C_26  and  O_29
REMARK    5  A    between atoms: C_27  and  O_28
REMARK    6  A    between atoms: O_29  and  C_30
REMARK    7  A    between atoms: N_31  and  C_38
REMARK    8  A    between atoms: N_34  and  C_37
REMARK                            x       y       z     vdW  Elec       q    Type
REMARK                         _______ _______ _______ _____ _____    ______ ____
ROOT
ATOM      1  C   UNL     1      -1.355   4.931   2.799  0.00  0.00    +0.069 A 
ATOM      2  C   UNL     1      -1.506   3.566   2.799  0.00  0.00    +0.089 A 
ATOM      3  C   UNL     1      -0.821   3.064   1.582  0.00  0.00    +0.082 A 
ATOM      4  C   UNL     1      -0.340   4.126   0.953  0.00  0.00    +0.073 A 
ATOM      5  N   UNL     1      -0.639   5.263   1.691  0.00  0.00    -0.306 N 
ATOM      6  C   UNL     1      -0.229   6.534   1.263  0.00  0.00    +0.068 A 
ATOM      7  C   UNL     1      -0.727   7.687   1.839  0.00  0.00    +0.028 A 
ATOM      8  C   UNL     1      -0.310   8.922   1.373  0.00  0.00    +0.002 A 
ATOM      9  C   UNL     1       0.601   9.002   0.335  0.00  0.00    +0.002 A 
ATOM     10  C   UNL     1       1.109   7.852  -0.240  0.00  0.00    +0.025 A 
ATOM     11  C   UNL     1       0.704   6.610   0.224  0.00  0.00    +0.052 A 
ATOM     12  N   UNL     1       1.224   5.437  -0.336  0.00  0.00    -0.330 N 
ATOM     13  C   UNL     1       0.416   4.208  -0.356  0.00  0.00    +0.154 C 
ATOM     14  N   UNL     1      -0.824   1.685   1.325  0.00  0.00    -0.294 N 
ATOM     15  C   UNL     1      -1.454   0.890   2.218  0.00  0.00    +0.332 A 
ATOM     16  O   UNL     1      -1.453  -0.305   1.996  0.00  0.00    -0.246 OA
ATOM     17  N   UNL     1      -2.077   1.308   3.324  0.00  0.00    -0.263 N 
ATOM     18  C   UNL     1      -2.158   2.610   3.700  0.00  0.00    +0.266 A 
ATOM     19  O   UNL     1      -2.733   2.959   4.713  0.00  0.00    -0.267 OA
ATOM     20  C   UNL     1      -2.709   0.301   4.181  0.00  0.00    +0.157 C 
ATOM     21  C   UNL     1      -0.166   1.129   0.139  0.00  0.00    +0.154 C 
ATOM     22  H   UNL     1       2.238   5.436  -0.762  0.00  0.00    +0.147 HD
ENDROOT
BRANCH   1  29
ATOM     23  C   UNL     1       0.273   5.589   5.098  0.00  0.00    +0.044 C 
ATOM     24  C   UNL     1      -1.097   6.192   4.930  0.00  0.00    -0.041 A 
ATOM     25  C   UNL     1      -1.587   7.071   5.874  0.00  0.00    +0.004 A 
ATOM     26  C   UNL     1      -2.848   7.621   5.724  0.00  0.00    +0.000 A 
ATOM     27  C   UNL     1      -3.624   7.298   4.624  0.00  0.00    +0.001 A 
ATOM     28  C   UNL     1      -3.146   6.425   3.670  0.00  0.00    +0.010 A 
ATOM     29  C   UNL     1      -1.873   5.866   3.815  0.00  0.00    +0.003 A 
ENDBRANCH   1  29
BRANCH  13  30
ATOM     30  C   UNL     1      -0.557   4.255  -1.505  0.00  0.00    +0.024 A 
ATOM     31  C   UNL     1      -1.886   4.559  -1.274  0.00  0.00    +0.009 A 
ATOM     32  C   UNL     1      -2.780   4.609  -2.327  0.00  0.00    +0.004 A 
ATOM     33  C   UNL     1      -2.351   4.344  -3.615  0.00  0.00    +0.049 A 
ATOM     34  C   UNL     1      -1.022   4.033  -3.853  0.00  0.00    +0.162 A 
ATOM     35  C   UNL     1      -0.121   3.988  -2.793  0.00  0.00    +0.164 A 
BRANCH  35  36
ATOM     36  O   UNL     1       1.185   3.684  -3.021  0.00  0.00    -0.503 OA
ATOM     37  H   UNL     1       1.529   3.473  -4.044  0.00  0.00    +0.292 HD
ENDBRANCH  35  36
BRANCH  34  38
ATOM     38  O   UNL     1      -0.600   3.772  -5.119  0.00  0.00    -0.491 OA
ATOM     39  C   UNL     1      -1.580   3.836  -6.156  0.00  0.00    +0.277 C 
ENDBRANCH  34  38
ENDBRANCH  13  30
TORSDOF 4
