REMARK  Name = ZINC27244776
REMARK  5 active torsions:
REMARK  status: ('A' for Active; 'I' for Inactive)
REMARK    1  A    between atoms: C_1  and  C_2
REMARK    2  A    between atoms: C_3  and  C_27
REMARK    3  A    between atoms: C_7  and  N_8
REMARK    4  A    between atoms: C_9  and  C_11
REMARK    5  A    between atoms: C_11  and  N_12
REMARK                            x       y       z     vdW  Elec       q    Type
REMARK                         _______ _______ _______ _____ _____    ______ ____
ROOT
ATOM      1  C   UNL     1      -0.141   5.991   2.572  0.00  0.00    +0.214 C 
ENDROOT
BRANCH   1   2
ATOM      2  N   UNL     1       0.492   5.163   1.542  0.00  0.00    -0.215 N 
ATOM      3  C   UNL     1       1.422   4.217   1.795  0.00  0.00    +0.251 C 
ATOM      4  O   UNL     1       1.876   3.900   2.874  0.00  0.00    -0.272 OA
ATOM      5  C   UNL     1       1.774   3.638   0.450  0.00  0.00    +0.138 C 
ATOM      6  C   UNL     1       3.266   3.818   0.140  0.00  0.00    +0.045 C 
ATOM      7  C   UNL     1       3.855   2.456   0.574  0.00  0.00    +0.038 C 
ATOM      8  C   UNL     1       2.709   1.472   0.456  0.00  0.00    -0.042 A 
ATOM      9  C   UNL     1       1.508   2.158   0.394  0.00  0.00    -0.012 A 
ATOM     10  C   UNL     1       0.320   1.453   0.292  0.00  0.00    +0.006 A 
ATOM     11  C   UNL     1       0.330   0.073   0.249  0.00  0.00    +0.000 A 
ATOM     12  C   UNL     1       1.530  -0.611   0.307  0.00  0.00    +0.000 A 
ATOM     13  C   UNL     1       2.717   0.089   0.410  0.00  0.00    +0.004 A 
ATOM     14  N   UNL     1       0.940   4.376  -0.499  0.00  0.00    -0.281 N 
ATOM     15  C   UNL     1       0.221   5.251   0.233  0.00  0.00    +0.310 C 
ATOM     16  O   UNL     1      -0.583   6.029  -0.240  0.00  0.00    -0.252 OA
ATOM     17  H   UNL     1       0.998   4.150  -1.574  0.00  0.00    +0.152 HD
ENDBRANCH   1   2
BRANCH   1  19
ATOM     18  N   UNL     1      -2.138   5.886   4.029  0.00  0.00    -0.284 N 
ATOM     19  C   UNL     1      -1.386   5.305   3.072  0.00  0.00    +0.235 C 
ATOM     20  O   UNL     1      -1.713   4.231   2.614  0.00  0.00    -0.274 OA
ATOM     21  H   UNL     1      -1.795   6.815   4.509  0.00  0.00    +0.155 HD
BRANCH  18  28
ATOM     22  C   UNL     1      -3.138   6.461   6.627  0.00  0.00    +0.046 C 
ATOM     23  C   UNL     1      -3.877   5.563   5.669  0.00  0.00    -0.017 A 
ATOM     24  C   UNL     1      -5.089   4.985   6.045  0.00  0.00    +0.041 A 
ATOM     25  C   UNL     1      -5.767   4.153   5.152  0.00  0.00    +0.013 A 
ATOM     26  C   UNL     1      -5.238   3.906   3.901  0.00  0.00    +0.003 A 
ATOM     27  C   UNL     1      -4.039   4.483   3.527  0.00  0.00    +0.023 A 
ATOM     28  C   UNL     1      -3.353   5.308   4.411  0.00  0.00    +0.037 A 
BRANCH  24  29
ATOM     29  C   UNL     1      -5.654   5.251   7.385  0.00  0.00    +0.242 C 
ATOM     30  O   UNL     1      -5.024   5.909   8.190  0.00  0.00    -0.270 OA
ATOM     31  N   UNL     1      -6.867   4.765   7.714  0.00  0.00    -0.325 N 
ATOM     32  H   UNL     1      -7.287   4.963   8.711  0.00  0.00    +0.145 HD
ATOM     33  H   UNL     1      -7.437   4.170   6.985  0.00  0.00    +0.145 HD
ENDBRANCH  24  29
ENDBRANCH  18  28
ENDBRANCH   1  19
TORSDOF 4
