REMARK  Name = ZINC58914146
REMARK  16 active torsions:
REMARK  status: ('A' for Active; 'I' for Inactive)
REMARK    1  A    between atoms: C_1  and  C_2
REMARK    2  A    between atoms: C_5  and  N_9
REMARK    3  A    between atoms: C_7  and  C_8
REMARK    4  A    between atoms: C_10  and  C_36
REMARK    5  A    between atoms: C_12  and  C_15
REMARK    6  A    between atoms: C_13  and  C_14
REMARK    7  A    between atoms: N_16  and  N_17
REMARK    8  A    between atoms: C_18  and  C_20
REMARK    9  A    between atoms: C_20  and  C_21
REMARK   10  A    between atoms: N_23  and  C_24
REMARK   11  A    between atoms: C_24  and  C_25
REMARK   12  A    between atoms: C_25  and  C_26
REMARK   13  A    between atoms: C_29  and  O_34
REMARK   14  A    between atoms: C_30  and  O_32
REMARK   15  A    between atoms: O_32  and  C_33
REMARK   16  A    between atoms: O_34  and  C_35
REMARK                            x       y       z     vdW  Elec       q    Type
REMARK                         _______ _______ _______ _____ _____    ______ ____
ROOT
ATOM      1  N   UNL     1       3.360  -6.131  -1.051  0.00  0.00    -0.207 N 
ATOM      2  C   UNL     1       4.641  -6.025  -1.455  0.00  0.00    +0.241 C 
ATOM      3  O   UNL     1       5.328  -7.019  -1.560  0.00  0.00    -0.274 OA
ATOM      4  H   UNL     1       2.810  -5.336  -0.967  0.00  0.00    +0.177 HD
ENDROOT
BRANCH   1   6
ATOM      5  C   UNL     1       1.626  -7.482  -0.254  0.00  0.00    +0.140 C 
ATOM      6  N   UNL     1       2.821  -7.389  -0.752  0.00  0.00    -0.188 NA
BRANCH   5  10
ATOM      7  N   UNL     1      -0.687  -4.851   0.742  0.00  0.00    -0.317 N 
ATOM      8  C   UNL     1       0.485  -4.159   0.851  0.00  0.00    +0.022 A 
ATOM      9  C   UNL     1       1.504  -4.972   0.518  0.00  0.00    +0.032 A 
ATOM     10  C   UNL     1       0.910  -6.268   0.176  0.00  0.00    +0.016 A 
ATOM     11  C   UNL     1      -0.438  -6.127   0.340  0.00  0.00    +0.030 A 
ATOM     12  C   UNL     1      -1.473  -7.199   0.112  0.00  0.00    +0.064 C 
ATOM     13  C   UNL     1       0.616  -2.719   1.276  0.00  0.00    +0.064 C 
BRANCH   7  18
ATOM     14  C   UNL     1      -5.836  -2.725   1.827  0.00  0.00    +0.044 C 
ATOM     15  C   UNL     1      -4.469  -3.289   1.539  0.00  0.00    -0.047 A 
ATOM     16  C   UNL     1      -3.961  -4.304   2.329  0.00  0.00    +0.005 A 
ATOM     17  C   UNL     1      -2.708  -4.824   2.068  0.00  0.00    +0.026 A 
ATOM     18  C   UNL     1      -1.959  -4.326   1.010  0.00  0.00    +0.047 A 
ATOM     19  C   UNL     1      -2.472  -3.308   0.218  0.00  0.00    +0.029 A 
ATOM     20  C   UNL     1      -3.728  -2.796   0.482  0.00  0.00    -0.046 A 
ATOM     21  C   UNL     1      -4.287  -1.694  -0.381  0.00  0.00    +0.044 C 
ENDBRANCH   7  18
ENDBRANCH   5  10
ENDBRANCH   1   6
BRANCH   2  22
ATOM     22  C   UNL     1       5.220  -4.671  -1.777  0.00  0.00    +0.193 C 
BRANCH  22  23
ATOM     23  C   UNL     1       6.657  -4.827  -2.201  0.00  0.00    +0.222 C 
ATOM     24  O   UNL     1       7.162  -5.929  -2.239  0.00  0.00    -0.275 OA
ATOM     25  N   UNL     1       7.382  -3.742  -2.539  0.00  0.00    -0.315 N 
ATOM     26  H   UNL     1       6.978  -2.861  -2.509  0.00  0.00    +0.149 HD
BRANCH  25  27
ATOM     27  C   UNL     1       8.780  -3.894  -2.951  0.00  0.00    +0.109 C 
BRANCH  27  28
ATOM     28  C   UNL     1       9.367  -2.520  -3.278  0.00  0.00    +0.054 C 
BRANCH  28  29
ATOM     29  C   UNL     1      10.805  -2.676  -3.702  0.00  0.00    -0.042 A 
ATOM     30  C   UNL     1      11.812  -2.632  -2.756  0.00  0.00    +0.007 A 
ATOM     31  C   UNL     1      13.132  -2.775  -3.140  0.00  0.00    +0.049 A 
ATOM     32  C   UNL     1      13.448  -2.963  -4.476  0.00  0.00    +0.161 A 
ATOM     33  C   UNL     1      12.435  -3.008  -5.428  0.00  0.00    +0.162 A 
ATOM     34  C   UNL     1      11.113  -2.869  -5.036  0.00  0.00    +0.053 A 
BRANCH  33  35
ATOM     35  O   UNL     1      12.740  -3.193  -6.741  0.00  0.00    -0.491 OA
ATOM     36  C   UNL     1      11.648  -3.228  -7.662  0.00  0.00    +0.277 C 
ENDBRANCH  33  35
BRANCH  32  37
ATOM     37  O   UNL     1      14.747  -3.104  -4.856  0.00  0.00    -0.491 OA
ATOM     38  C   UNL     1      15.734  -3.047  -3.825  0.00  0.00    +0.277 C 
ENDBRANCH  32  37
ENDBRANCH  28  29
ENDBRANCH  27  28
ENDBRANCH  25  27
ENDBRANCH  22  23
ENDBRANCH   2  22
TORSDOF 10
