REMARK  Name = ZINC38690824
REMARK  7 active torsions:
REMARK  status: ('A' for Active; 'I' for Inactive)
REMARK    1  A    between atoms: C_1  and  C_2
REMARK    2  A    between atoms: C_2  and  C_3
REMARK    3  A    between atoms: C_4  and  C_37
REMARK    4  A    between atoms: C_5  and  C_35
REMARK    5  A    between atoms: C_15  and  N_16
REMARK    6  A    between atoms: N_16  and  N_17
REMARK    7  A    between atoms: C_18  and  C_19
REMARK                            x       y       z     vdW  Elec       q    Type
REMARK                         _______ _______ _______ _____ _____    ______ ____
ROOT
ATOM      1  N   UNL     1      -1.328  -0.527   2.404  0.00  0.00    -0.222 N 
ATOM      2  H   UNL     1      -1.822  -0.625   3.233  0.00  0.00    +0.176 HD
ENDROOT
BRANCH   1  15
ATOM      3  C   UNL     1       0.692  -0.743   1.175  0.00  0.00    -0.003 A 
ATOM      4  C   UNL     1       2.062  -0.954   1.116  0.00  0.00    -0.023 A 
ATOM      5  C   UNL     1       2.773  -1.178   2.295  0.00  0.00    +0.098 A 
ATOM      6  C   UNL     1       2.045  -1.182   3.568  0.00  0.00    +0.158 A 
ATOM      7  N   UNL     1       2.453  -1.364   4.810  0.00  0.00    -0.226 NA
ATOM      8  C   UNL     1       1.398  -1.276   5.654  0.00  0.00    +0.090 A 
ATOM      9  C   UNL     1       1.269  -1.385   7.044  0.00  0.00    +0.030 A 
ATOM     10  C   UNL     1       0.042  -1.246   7.627  0.00  0.00    +0.002 A 
ATOM     11  C   UNL     1      -1.084  -0.995   6.855  0.00  0.00    +0.002 A 
ATOM     12  C   UNL     1      -0.981  -0.883   5.484  0.00  0.00    +0.028 A 
ATOM     13  C   UNL     1       0.257  -1.022   4.873  0.00  0.00    +0.075 A 
ATOM     14  N   UNL     1       0.688  -0.966   3.559  0.00  0.00    -0.278 N 
ATOM     15  C   UNL     1       0.028  -0.746   2.382  0.00  0.00    +0.128 A 
ATOM     16  C   UNL     1       2.775  -0.943  -0.211  0.00  0.00    +0.045 C 
BRANCH   3  18
ATOM     17  C   UNL     1      -0.259   1.005  -0.305  0.00  0.00    +0.009 C 
ATOM     18  C   UNL     1      -0.079  -0.500  -0.097  0.00  0.00    +0.035 C 
ENDBRANCH   3  18
BRANCH   5  19
ATOM     19  C   UNL     1       4.188  -1.399   2.263  0.00  0.00    +0.103 C 
ATOM     20  N   UNL     1       5.310  -1.575   2.237  0.00  0.00    -0.191 NA
ENDBRANCH   5  19
ENDBRANCH   1  15
BRANCH   1  21
ATOM     21  N   UNL     1      -1.998  -0.164   1.228  0.00  0.00    -0.193 NA
ATOM     22  C   UNL     1      -3.262   0.040   1.248  0.00  0.00    +0.120 C 
BRANCH  22  23
ATOM     23  C   UNL     1      -3.982   0.430  -0.017  0.00  0.00    +0.141 C 
ATOM     24  C   UNL     1      -4.959  -0.677  -0.357  0.00  0.00    +0.001 C 
ATOM     25  C   UNL     1      -6.274  -0.342  -0.459  0.00  0.00    -0.003 A 
ATOM     26  C   UNL     1      -7.281  -1.352  -0.785  0.00  0.00    +0.059 A 
ATOM     27  C   UNL     1      -8.588  -0.986  -0.879  0.00  0.00    +0.163 A 
ATOM     28  C   UNL     1      -8.987   0.349  -0.666  0.00  0.00    +0.164 A 
ATOM     29  C   UNL     1      -8.075   1.339  -0.359  0.00  0.00    +0.073 A 
ATOM     30  C   UNL     1      -6.710   1.050  -0.243  0.00  0.00    +0.044 A 
ATOM     31  N   UNL     1      -5.845   2.023   0.055  0.00  0.00    -0.284 N 
ATOM     32  C   UNL     1      -4.547   1.819   0.181  0.00  0.00    +0.229 C 
ATOM     33  O   UNL     1      -3.807   2.746   0.455  0.00  0.00    -0.274 OA
ATOM     34  O   UNL     1     -10.300   0.693  -0.755  0.00  0.00    -0.485 OA
ATOM     35  C   UNL     1     -11.164  -0.221  -1.436  0.00  0.00    +0.270 C 
ATOM     36  C   UNL     1     -10.877  -1.635  -0.912  0.00  0.00    +0.270 C 
ATOM     37  O   UNL     1      -9.507  -1.944  -1.188  0.00  0.00    -0.485 OA
ATOM     38  H   UNL     1      -6.187   2.921   0.186  0.00  0.00    +0.155 HD
ENDBRANCH  22  23
ENDBRANCH   1  21
TORSDOF 5
