REMARK  Name = ZINC22437508
REMARK  7 active torsions:
REMARK  status: ('A' for Active; 'I' for Inactive)
REMARK    1  A    between atoms: C_1  and  C_2
REMARK    2  A    between atoms: C_5  and  C_8
REMARK    3  A    between atoms: C_5  and  N_23
REMARK    4  A    between atoms: N_12  and  C_13
REMARK    5  A    between atoms: C_24  and  C_26
REMARK    6  A    between atoms: C_26  and  O_27
REMARK    7  A    between atoms: O_27  and  C_28
REMARK                            x       y       z     vdW  Elec       q    Type
REMARK                         _______ _______ _______ _____ _____    ______ ____
ROOT
ATOM      1  C   UNL     1      -4.772  -0.389   0.635  0.00  0.00    +0.180 A 
ATOM      2  N   UNL     1      -4.378  -1.569   1.041  0.00  0.00    -0.111 NA
ATOM      3  N   UNL     1      -4.501  -2.435   0.100  0.00  0.00    -0.023 NA
ATOM      4  N   UNL     1      -4.983  -1.877  -0.958  0.00  0.00    -0.039 NA
ATOM      5  N   UNL     1      -5.171  -0.519  -0.648  0.00  0.00    -0.195 N 
ENDROOT
BRANCH   5   6
ATOM      6  C   UNL     1      -5.672   0.486  -1.490  0.00  0.00    +0.073 A 
ATOM      7  C   UNL     1      -6.640   1.365  -1.023  0.00  0.00    +0.032 A 
ATOM      8  C   UNL     1      -7.137   2.350  -1.853  0.00  0.00    +0.051 A 
ATOM      9  C   UNL     1      -6.667   2.470  -3.152  0.00  0.00    +0.162 A 
ATOM     10  C   UNL     1      -5.696   1.593  -3.622  0.00  0.00    +0.164 A 
ATOM     11  C   UNL     1      -5.201   0.601  -2.790  0.00  0.00    +0.077 A 
ATOM     12  O   UNL     1      -5.222   1.695  -4.894  0.00  0.00    -0.485 OA
ATOM     13  C   UNL     1      -6.008   2.459  -5.815  0.00  0.00    +0.270 C 
ATOM     14  C   UNL     1      -6.412   3.770  -5.128  0.00  0.00    +0.270 C 
ATOM     15  O   UNL     1      -7.169   3.448  -3.956  0.00  0.00    -0.485 OA
ENDBRANCH   5   6
BRANCH   1  20
ATOM     16  C   UNL     1      -5.010   1.040   4.972  0.00  0.00    +0.007 C 
ATOM     17  C   UNL     1      -4.902   2.247   4.037  0.00  0.00    -0.014 C 
ATOM     18  C   UNL     1      -6.090   2.253   3.073  0.00  0.00    +0.006 C 
ATOM     19  C   UNL     1      -6.083   0.966   2.247  0.00  0.00    +0.034 C 
ATOM     20  C   UNL     1      -4.779   0.879   1.450  0.00  0.00    +0.096 C 
ATOM     21  C   UNL     1      -3.592   0.872   2.414  0.00  0.00    +0.034 C 
ATOM     22  C   UNL     1      -3.599   2.160   3.241  0.00  0.00    +0.006 C 
BRANCH  20  23
ATOM     23  N   UNL     1      -4.676   2.034   0.555  0.00  0.00    -0.301 N 
ATOM     24  C   UNL     1      -3.602   2.171  -0.247  0.00  0.00    +0.240 C 
ATOM     25  O   UNL     1      -2.685   1.380  -0.174  0.00  0.00    -0.273 OA
ATOM     26  H   UNL     1      -5.475   2.790   0.538  0.00  0.00    +0.150 HD
BRANCH  24  27
ATOM     27  C   UNL     1      -3.539   3.308  -1.235  0.00  0.00    +0.255 C 
BRANCH  27  28
ATOM     28  O   UNL     1      -2.370   3.170  -2.046  0.00  0.00    -0.374 OA
ATOM     29  C   UNL     1      -2.215   4.202  -3.021  0.00  0.00    +0.194 C 
ENDBRANCH  27  28
ENDBRANCH  24  27
ENDBRANCH  20  23
ENDBRANCH   1  20
TORSDOF 5
