REMARK  Name = ZINC63547546
REMARK  5 active torsions:
REMARK  status: ('A' for Active; 'I' for Inactive)
REMARK    1  A    between atoms: C_6  and  C_11
REMARK    2  A    between atoms: C_11  and  C_12
REMARK    3  A    between atoms: C_12  and  N_13
REMARK    4  A    between atoms: C_14  and  C_16
REMARK    5  A    between atoms: C_23  and  C_26
REMARK                            x       y       z     vdW  Elec       q    Type
REMARK                         _______ _______ _______ _____ _____    ______ ____
ROOT
ATOM      1  C   UNL     1       5.819  -5.608  -2.685  0.00  0.00    +0.185 C 
ATOM      2  C   UNL     1       4.758  -6.558  -2.159  0.00  0.00    +0.043 C 
ATOM      3  C   UNL     1       4.641  -7.521  -3.055  0.00  0.00    +0.107 C 
ATOM      4  N   UNL     1       3.786  -8.632  -3.026  0.00  0.00    -0.302 N 
ATOM      5  C   UNL     1       4.161  -9.707  -3.853  0.00  0.00    +0.033 C 
ATOM      6  C   UNL     1       5.080  -9.465  -4.978  0.00  0.00    +0.052 C 
ATOM      7  C   UNL     1       5.741  -8.300  -5.087  0.00  0.00    +0.133 C 
ATOM      8  N   UNL     1       5.516  -7.324  -4.128  0.00  0.00    -0.217 N 
ATOM      9  N   UNL     1       6.047  -6.067  -4.074  0.00  0.00    -0.219 NA
ATOM     10  C   UNL     1       3.687 -10.938  -3.619  0.00  0.00    -0.048 C 
ATOM     11  C   UNL     1       2.829 -11.864  -2.797  0.00  0.00    +0.037 C 
ATOM     12  C   UNL     1       3.623 -12.397  -3.992  0.00  0.00    +0.037 C 
ATOM     13  H   UNL     1       5.594  -5.455  -4.736  0.00  0.00    +0.146 HD
ATOM     14  H   UNL     1       2.989  -8.657  -2.473  0.00  0.00    +0.153 HD
ENDROOT
BRANCH   1  16
ATOM     15  N   UNL     1       5.000  -3.595  -1.503  0.00  0.00    -0.313 N 
ATOM     16  C   UNL     1       5.312  -4.189  -2.672  0.00  0.00    +0.236 C 
ATOM     17  O   UNL     1       5.184  -3.581  -3.714  0.00  0.00    -0.274 OA
ATOM     18  H   UNL     1       5.102  -4.081  -0.670  0.00  0.00    +0.149 HD
BRANCH  15  19
ATOM     19  C   UNL     1       4.508  -2.215  -1.491  0.00  0.00    +0.108 C 
BRANCH  19  20
ATOM     20  C   UNL     1       4.231  -1.785  -0.049  0.00  0.00    +0.052 C 
BRANCH  20  26
ATOM     21  C   UNL     1      -0.017   1.399   0.010  0.00  0.00    +0.022 A 
ATOM     22  C   UNL     1       1.109   2.143   0.003  0.00  0.00    +0.027 A 
ATOM     23  C   UNL     1       2.385   1.516  -0.013  0.00  0.00    +0.043 A 
ATOM     24  N   UNL     1       3.600   2.009  -0.022  0.00  0.00    -0.380 N 
ATOM     25  C   UNL     1       4.557   0.897  -0.038  0.00  0.00    +0.144 C 
ATOM     26  C   UNL     1       3.724  -0.366  -0.036  0.00  0.00    -0.040 C 
ATOM     27  C   UNL     1       2.433   0.036  -0.021  0.00  0.00    +0.000 A 
ATOM     28  C   UNL     1       1.163  -0.699  -0.013  0.00  0.00    +0.030 A 
ATOM     29  C   UNL     1       0.002  -0.004   0.002  0.00  0.00    +0.042 A 
ATOM     30 CL   UNL     1      -1.502  -0.870   0.012  0.00  0.00    -0.084 Cl
ATOM     31  H   UNL     1       3.828   2.952  -0.020  0.00  0.00    +0.160 HD
ENDBRANCH  20  26
ENDBRANCH  19  20
ENDBRANCH  15  19
ENDBRANCH   1  16
BRANCH   7  32
ATOM     32  C   UNL     1       6.704  -8.062  -6.221  0.00  0.00    +0.432 C 
ATOM     33  F   UNL     1       6.748  -9.195  -7.041  0.00  0.00    -0.165 F 
ATOM     34  F   UNL     1       6.278  -6.960  -6.971  0.00  0.00    -0.165 F 
ATOM     35  F   UNL     1       7.980  -7.809  -5.705  0.00  0.00    -0.165 F 
ENDBRANCH   7  32
TORSDOF 5
