REMARK  Name = ZINC11321121
REMARK  8 active torsions:
REMARK  status: ('A' for Active; 'I' for Inactive)
REMARK    1  A    between atoms: C_1  and  N_2
REMARK    2  A    between atoms: N_2  and  C_3
REMARK    3  A    between atoms: C_6  and  C_11
REMARK    4  A    between atoms: C_11  and  S_12
REMARK    5  A    between atoms: S_12  and  C_13
REMARK    6  A    between atoms: C_16  and  C_25
REMARK    7  A    between atoms: N_17  and  C_18
REMARK    8  A    between atoms: C_18  and  C_19
REMARK                            x       y       z     vdW  Elec       q    Type
REMARK                         _______ _______ _______ _____ _____    ______ ____
ROOT
ATOM      1  C   UNL     1       5.573   3.312  -1.485  0.00  0.00    +0.193 A 
ATOM      2  N   UNL     1       6.049   3.620  -0.300  0.00  0.00    -0.122 NA
ATOM      3  N   UNL     1       7.142   4.286  -0.422  0.00  0.00    -0.128 NA
ATOM      4  C   UNL     1       7.431   4.443  -1.693  0.00  0.00    +0.168 A 
ATOM      5  N   UNL     1       6.438   3.820  -2.413  0.00  0.00    -0.298 N 
ENDROOT
BRANCH   4   6
ATOM      6  C   UNL     1       8.604   5.151  -2.246  0.00  0.00    +0.054 A 
ATOM      7  C   UNL     1       9.380   4.553  -3.240  0.00  0.00    +0.014 A 
ATOM      8  C   UNL     1      10.474   5.219  -3.752  0.00  0.00    +0.001 A 
ATOM      9  C   UNL     1      10.804   6.478  -3.284  0.00  0.00    +0.003 A 
ATOM     10  C   UNL     1      10.041   7.079  -2.299  0.00  0.00    +0.039 A 
ATOM     11  C   UNL     1       8.939   6.426  -1.780  0.00  0.00    +0.134 A 
ATOM     12  F   UNL     1       8.191   7.016  -0.823  0.00  0.00    -0.205 F 
ENDBRANCH   4   6
BRANCH   1  13
ATOM     13  S   UNL     1       4.099   2.405  -1.816  0.00  0.00    -0.078 S 
BRANCH  13  14
ATOM     14  C   UNL     1       3.539   2.088  -0.124  0.00  0.00    +0.153 C 
BRANCH  14  20
ATOM     15  C   UNL     1      -0.052  -2.865  -0.226  0.00  0.00    +0.132 C 
ATOM     16  N   UNL     1       1.195  -2.097  -0.192  0.00  0.00    -0.306 N 
ATOM     17  C   UNL     1       2.484  -2.794  -0.158  0.00  0.00    +0.132 C 
ATOM     18  C   UNL     1       1.157  -0.718  -0.192  0.00  0.00    +0.222 A 
ATOM     19  N   UNL     1       2.290  -0.019  -0.160  0.00  0.00    -0.198 NA
ATOM     20  C   UNL     1       2.254   1.301  -0.160  0.00  0.00    +0.146 A 
ATOM     21  N   UNL     1       1.094   1.935  -0.190  0.00  0.00    -0.199 NA
ATOM     22  C   UNL     1      -0.043   1.243  -0.222  0.00  0.00    +0.217 A 
ATOM     23  N   UNL     1      -0.011  -0.085  -0.222  0.00  0.00    -0.181 NA
ATOM     24  N   UNL     1      -1.253   1.905  -0.259  0.00  0.00    -0.327 N 
ATOM     25  H   UNL     1      -2.081   1.401  -0.286  0.00  0.00    +0.145 HD
ATOM     26  H   UNL     1      -1.275   2.875  -0.259  0.00  0.00    +0.145 HD
ENDBRANCH  14  20
ENDBRANCH  13  14
ENDBRANCH   1  13
BRANCH   5  27
ATOM     27  C   UNL     1       6.329   3.723  -3.871  0.00  0.00    +0.161 C 
BRANCH  27  28
ATOM     28  C   UNL     1       5.641   4.952  -4.406  0.00  0.00    -0.028 A 
ATOM     29  C   UNL     1       4.260   5.013  -4.437  0.00  0.00    +0.005 A 
ATOM     30  C   UNL     1       3.629   6.143  -4.924  0.00  0.00    +0.000 A 
ATOM     31  C   UNL     1       4.379   7.207  -5.389  0.00  0.00    +0.000 A 
ATOM     32  C   UNL     1       5.760   7.144  -5.363  0.00  0.00    +0.000 A 
ATOM     33  C   UNL     1       6.391   6.016  -4.871  0.00  0.00    +0.005 A 
ENDBRANCH  27  28
ENDBRANCH   5  27
TORSDOF 6
