REMARK  Name = ZINC39226470
REMARK  7 active torsions:
REMARK  status: ('A' for Active; 'I' for Inactive)
REMARK    1  A    between atoms: C_1  and  C_2
REMARK    2  A    between atoms: C_2  and  N_3
REMARK    3  A    between atoms: N_3  and  C_4
REMARK    4  A    between atoms: C_4  and  C_5
REMARK    5  A    between atoms: C_11  and  C_13
REMARK    6  A    between atoms: C_16  and  C_19
REMARK    7  A    between atoms: N_31  and  C_34
REMARK                            x       y       z     vdW  Elec       q    Type
REMARK                         _______ _______ _______ _____ _____    ______ ____
ROOT
ATOM      1  C   UNL     1      -1.065  -0.255   2.497  0.00  0.00    +0.037 A 
ATOM      2  C   UNL     1       0.243   0.195   2.303  0.00  0.00    +0.013 A 
ATOM      3  C   UNL     1       1.009   0.568   3.384  0.00  0.00    +0.009 A 
ATOM      4  C   UNL     1       0.479   0.497   4.673  0.00  0.00    -0.018 A 
ATOM      5  C   UNL     1      -0.828   0.048   4.867  0.00  0.00    +0.009 A 
ATOM      6  C   UNL     1      -1.597  -0.320   3.788  0.00  0.00    +0.013 A 
ENDROOT
BRANCH   4   7
ATOM      7  C   UNL     1       1.305   0.899   5.837  0.00  0.00    -0.017 A 
ATOM      8  C   UNL     1       2.610   1.354   5.646  0.00  0.00    +0.012 A 
ATOM      9  C   UNL     1       3.372   1.723   6.731  0.00  0.00    +0.046 A 
ATOM     10  C   UNL     1       2.847   1.647   8.019  0.00  0.00    +0.124 A 
ATOM     11  C   UNL     1       1.550   1.200   8.211  0.00  0.00    -0.005 A 
ATOM     12  C   UNL     1       0.779   0.830   7.125  0.00  0.00    +0.015 A 
ATOM     13  C   UNL     1       0.943   1.116   9.589  0.00  0.00    +0.043 C 
ATOM     14  C   UNL     1       2.054   1.135  10.643  0.00  0.00    +0.052 C 
ATOM     15  C   UNL     1       3.012   2.284  10.314  0.00  0.00    +0.108 C 
ATOM     16  O   UNL     1       3.637   2.015   9.061  0.00  0.00    -0.486 OA
ATOM     17  C   UNL     1       4.074   2.394  11.410  0.00  0.00    +0.029 C 
ATOM     18  C   UNL     1       4.978   3.594  11.119  0.00  0.00    -0.075 C 
ATOM     19  N   UNL     1       4.172   4.821  11.086  0.00  0.00    +0.378 N 
ATOM     20  C   UNL     1       3.203   4.751   9.986  0.00  0.00    -0.075 C 
ATOM     21  C   UNL     1       2.229   3.596  10.232  0.00  0.00    +0.029 C 
ATOM     22  C   UNL     1       5.054   5.979  10.887  0.00  0.00    -0.096 C 
ATOM     23  H   UNL     1       3.680   4.922  11.961  0.00  0.00    -0.082 HD
ENDBRANCH   4   7
BRANCH   1  25
ATOM     24  N   UNL     1      -1.317  -1.284   0.291  0.00  0.00    -0.293 N 
ATOM     25  C   UNL     1      -1.888  -0.655   1.338  0.00  0.00    +0.247 C 
ATOM     26  O   UNL     1      -3.080  -0.418   1.327  0.00  0.00    -0.270 OA
BRANCH  24  28
ATOM     27  C   UNL     1       0.914  -0.679  -0.508  0.00  0.00    +0.024 C 
ATOM     28  C   UNL     1       0.099  -1.655   0.343  0.00  0.00    +0.105 C 
ENDBRANCH  24  28
BRANCH  24  29
ATOM     29  C   UNL     1      -2.113  -1.596  -0.899  0.00  0.00    +0.143 C 
BRANCH  29  30
ATOM     30  C   UNL     1      -2.736  -2.959  -0.743  0.00  0.00    -0.030 A 
ATOM     31  C   UNL     1      -2.058  -4.083  -1.179  0.00  0.00    +0.005 A 
ATOM     32  C   UNL     1      -2.630  -5.333  -1.036  0.00  0.00    +0.000 A 
ATOM     33  C   UNL     1      -3.879  -5.460  -0.457  0.00  0.00    +0.000 A 
ATOM     34  C   UNL     1      -4.556  -4.337  -0.021  0.00  0.00    +0.000 A 
ATOM     35  C   UNL     1      -3.983  -3.087  -0.160  0.00  0.00    +0.005 A 
ENDBRANCH  29  30
ENDBRANCH  24  29
ENDBRANCH   1  25
TORSDOF 5
