REMARK  Name = ZINC06569943
REMARK  8 active torsions:
REMARK  status: ('A' for Active; 'I' for Inactive)
REMARK    1  A    between atoms: C_1  and  C_2
REMARK    2  A    between atoms: C_2  and  N_3
REMARK    3  A    between atoms: N_3  and  C_4
REMARK    4  A    between atoms: N_3  and  C_6
REMARK    5  A    between atoms: C_4  and  C_5
REMARK    6  A    between atoms: C_9  and  N_12
REMARK    7  A    between atoms: N_12  and  N_13
REMARK    8  A    between atoms: C_27  and  C_28
REMARK                            x       y       z     vdW  Elec       q    Type
REMARK                         _______ _______ _______ _____ _____    ______ ____
ROOT
ATOM      1  N   UNL     1       2.941  -6.504   0.662  0.00  0.00    -0.141 NA
ATOM      2  C   UNL     1       3.167  -7.787   0.538  0.00  0.00    +0.284 C 
ATOM      3  C   UNL     1       4.483  -8.442   0.541  0.00  0.00    +0.256 C 
ATOM      4  O   UNL     1       5.578  -7.918   0.657  0.00  0.00    -0.281 OA
ATOM      5  C   UNL     1       4.183  -9.874   0.372  0.00  0.00    +0.112 A 
ATOM      6  C   UNL     1       2.786  -9.980   0.283  0.00  0.00    +0.145 A 
ATOM      7  C   UNL     1       2.203 -11.238   0.117  0.00  0.00    +0.048 A 
ATOM      8  C   UNL     1       2.973 -12.360   0.040  0.00  0.00    +0.015 A 
ATOM      9  C   UNL     1       4.369 -12.272   0.127  0.00  0.00    +0.021 A 
ATOM     10  C   UNL     1       4.983 -11.019   0.295  0.00  0.00    +0.154 A 
ATOM     11  O   UNL     1       6.325 -10.936   0.378  0.00  0.00    -0.421 OA
ATOM     12  C   UNL     1       7.103 -12.028   0.306  0.00  0.00    +0.337 A 
ATOM     13  O   UNL     1       8.312 -11.903   0.387  0.00  0.00    -0.245 OA
ATOM     14  C   UNL     1       6.555 -13.316   0.140  0.00  0.00    +0.096 A 
ATOM     15  C   UNL     1       5.208 -13.469   0.045  0.00  0.00    -0.033 A 
ATOM     16  C   UNL     1       4.594 -14.833  -0.134  0.00  0.00    +0.045 C 
ATOM     17  O   UNL     1       2.232  -8.754   0.389  0.00  0.00    -0.433 OA
ENDROOT
BRANCH   1  18
ATOM     18  N   UNL     1       1.627  -6.019   0.647  0.00  0.00    -0.234 N 
ATOM     19  H   UNL     1       0.884  -6.635   0.545  0.00  0.00    +0.174 HD
BRANCH  18  23
ATOM     20  C   UNL     1       0.908  -1.939   1.045  0.00  0.00    +0.014 A 
ATOM     21  C   UNL     1      -0.152  -2.815   0.897  0.00  0.00    +0.023 A 
ATOM     22  C   UNL     1       0.082  -4.169   0.765  0.00  0.00    +0.026 A 
ATOM     23  C   UNL     1       1.386  -4.652   0.780  0.00  0.00    +0.049 A 
ATOM     24  C   UNL     1       2.449  -3.768   0.928  0.00  0.00    +0.026 A 
ATOM     25  C   UNL     1       2.207  -2.415   1.054  0.00  0.00    +0.023 A 
BRANCH  20  26
ATOM     26  N   UNL     1       0.667  -0.568   1.179  0.00  0.00    -0.394 NA
ATOM     27  H   UNL     1       1.544  -0.080   1.271  0.00  0.00    +0.126 HD
BRANCH  26  29
ATOM     28  C   UNL     1       0.868  -0.191  -1.233  0.00  0.00    +0.022 C 
ATOM     29  C   UNL     1      -0.044  -0.078  -0.010  0.00  0.00    +0.081 C 
ENDBRANCH  26  29
BRANCH  26  30
ATOM     30  C   UNL     1      -0.154  -0.330   2.373  0.00  0.00    +0.081 C 
ATOM     31  C   UNL     1       0.637  -0.723   3.623  0.00  0.00    +0.022 C 
ENDBRANCH  26  30
ENDBRANCH  20  26
ENDBRANCH  18  23
ENDBRANCH   1  18
TORSDOF 5
