REMARK  Name = ZINC39732594
REMARK  8 active torsions:
REMARK  status: ('A' for Active; 'I' for Inactive)
REMARK    1  A    between atoms: C_1  and  C_2
REMARK    2  A    between atoms: C_2  and  C_3
REMARK    3  A    between atoms: C_3  and  O_4
REMARK    4  A    between atoms: O_4  and  C_5
REMARK    5  A    between atoms: C_6  and  C_13
REMARK    6  A    between atoms: C_14  and  C_15
REMARK    7  A    between atoms: C_14  and  C_17
REMARK    8  A    between atoms: C_23  and  C_27
REMARK                            x       y       z     vdW  Elec       q    Type
REMARK                         _______ _______ _______ _____ _____    ______ ____
ROOT
ATOM      1  C   UNL     1      -0.943  -2.775  -3.456  0.00  0.00    +0.030 C 
ATOM      2  C   UNL     1      -1.524  -2.746  -4.675  0.00  0.00    +0.072 C 
ENDROOT
BRANCH   2   3
ATOM      3  C   UNL     1      -0.851  -3.414  -5.846  0.00  0.00    +0.216 C 
ATOM      4  N   UNL     1      -0.803  -2.497  -6.991  0.00  0.00    -0.359 N 
ATOM      5  C   UNL     1      -1.469  -3.050  -7.963  0.00  0.00    +0.060 A 
ATOM      6  C   UNL     1      -1.771  -2.625  -9.336  0.00  0.00    +0.027 A 
ATOM      7  C   UNL     1      -2.502  -3.427 -10.136  0.00  0.00    +0.005 A 
ATOM      8  C   UNL     1      -2.998  -4.672  -9.710  0.00  0.00    -0.048 A 
ATOM      9  C   UNL     1      -2.780  -5.157  -8.472  0.00  0.00    +0.030 A 
ATOM     10  C   UNL     1      -1.994  -4.369  -7.513  0.00  0.00    +0.061 A 
ATOM     11  N   UNL     1      -1.632  -4.579  -6.279  0.00  0.00    -0.359 N 
ATOM     12  C   UNL     1      -3.807  -5.497 -10.678  0.00  0.00    +0.044 C 
ATOM     13  H   UNL     1      -0.358  -1.635  -7.018  0.00  0.00    +0.162 HD
ATOM     14  H   UNL     1      -1.840  -5.362  -5.745  0.00  0.00    +0.162 HD
ENDBRANCH   2   3
BRANCH   1  16
ATOM     15  C   UNL     1       1.327  -3.086  -2.478  0.00  0.00    +0.142 A 
ATOM     16  C   UNL     1       0.258  -3.593  -3.233  0.00  0.00    +0.020 A 
ATOM     17  C   UNL     1       0.342  -4.881  -3.772  0.00  0.00    +0.027 A 
ATOM     18  C   UNL     1       1.471  -5.642  -3.558  0.00  0.00    +0.020 A 
ATOM     19  C   UNL     1       2.524  -5.138  -2.812  0.00  0.00    +0.034 A 
ATOM     20  C   UNL     1       2.456  -3.864  -2.278  0.00  0.00    +0.061 A 
ATOM     21 BR   UNL     1       3.904  -3.185  -1.269  0.00  0.00    -0.046 Br
ATOM     22 BR   UNL     1       1.584  -7.384  -4.286  0.00  0.00    -0.050 Br
BRANCH  15  23
ATOM     23  O   UNL     1       1.257  -1.837  -1.950  0.00  0.00    -0.490 OA
BRANCH  23  24
ATOM     24  C   UNL     1       1.740  -0.763  -2.759  0.00  0.00    +0.229 C 
BRANCH  24  26
ATOM     25  C   UNL     1       2.097   1.708  -2.868  0.00  0.00    +0.007 C 
ATOM     26  C   UNL     1       1.580   0.557  -2.002  0.00  0.00    +0.038 C 
ENDBRANCH  24  26
ENDBRANCH  23  24
ENDBRANCH  15  23
ENDBRANCH   1  16
BRANCH   2  27
ATOM     27  C   UNL     1      -2.779  -2.081  -4.854  0.00  0.00    +0.099 C 
ATOM     28  N   UNL     1      -3.775  -1.554  -4.997  0.00  0.00    -0.191 NA
ENDBRANCH   2  27
TORSDOF 6
