REMARK  Name = ZINC15970031
REMARK  6 active torsions:
REMARK  status: ('A' for Active; 'I' for Inactive)
REMARK    1  A    between atoms: C_1  and  C_2
REMARK    2  A    between atoms: C_2  and  C_3
REMARK    3  A    between atoms: C_3  and  C_4
REMARK    4  A    between atoms: C_4  and  N_5
REMARK    5  A    between atoms: C_10  and  C_28
REMARK    6  A    between atoms: C_28  and  C_29
REMARK                            x       y       z     vdW  Elec       q    Type
REMARK                         _______ _______ _______ _____ _____    ______ ____
ROOT
ATOM      1  N   UNL     1       1.471  -2.526   2.420  0.00  0.00    -0.242 N 
ATOM      2  C   UNL     1       2.791  -2.744   2.436  0.00  0.00    +0.227 C 
ATOM      3  O   UNL     1       3.542  -2.569   1.500  0.00  0.00    -0.275 OA
ATOM      4  C   UNL     1       3.201  -3.242   3.803  0.00  0.00    +0.107 C 
ATOM      5  C   UNL     1       4.071  -2.172   4.495  0.00  0.00    +0.072 C 
ATOM      6  N   UNL     1       3.101  -1.271   5.173  0.00  0.00    -0.295 NA
ATOM      7  C   UNL     1       2.060  -2.182   5.683  0.00  0.00    +0.136 C 
ATOM      8  C   UNL     1       1.863  -3.265   4.593  0.00  0.00    +0.122 C 
ATOM      9  C   UNL     1       0.852  -2.782   3.578  0.00  0.00    +0.228 C 
ATOM     10  O   UNL     1      -0.336  -2.650   3.781  0.00  0.00    -0.275 OA
ATOM     11  C   UNL     1       0.781  -1.451   5.976  0.00  0.00    +0.005 A 
ATOM     12  C   UNL     1      -0.079  -0.699   5.207  0.00  0.00    +0.027 A 
ATOM     13  C   UNL     1      -1.208  -0.138   5.778  0.00  0.00    +0.041 A 
ATOM     14  C   UNL     1      -1.470  -0.335   7.123  0.00  0.00    +0.022 A 
ATOM     15  C   UNL     1      -0.612  -1.089   7.896  0.00  0.00    +0.025 A 
ATOM     16  C   UNL     1       0.526  -1.657   7.329  0.00  0.00    +0.039 A 
ATOM     17  N   UNL     1       1.530  -2.447   7.894  0.00  0.00    -0.283 N 
ATOM     18  C   UNL     1       2.467  -2.799   6.994  0.00  0.00    +0.243 C 
ATOM     19  O   UNL     1       3.449  -3.481   7.199  0.00  0.00    -0.273 OA
ATOM     20 CL   UNL     1      -2.293   0.812   4.811  0.00  0.00    -0.084 Cl
ATOM     21  H   UNL     1       3.542  -0.767   5.927  0.00  0.00    +0.124 HD
ATOM     22  H   UNL     1       1.549  -2.713   8.827  0.00  0.00    +0.155 HD
ENDROOT
BRANCH   1  23
ATOM     23  C   UNL     1       0.763  -2.041   1.233  0.00  0.00    +0.116 C 
BRANCH  23  24
ATOM     24  C   UNL     1       0.742  -0.511   1.242  0.00  0.00    +0.019 C 
BRANCH  24  26
ATOM     25  C   UNL     1      -0.019   1.526   0.010  0.00  0.00    +0.004 C 
ATOM     26  C   UNL     1       0.002  -0.004   0.002  0.00  0.00    -0.002 C 
ENDBRANCH  24  26
ENDBRANCH  23  24
ENDBRANCH   1  23
BRANCH   5  27
ATOM     27  C   UNL     1       4.887  -1.397   3.459  0.00  0.00    +0.056 C 
BRANCH  27  28
ATOM     28  C   UNL     1       5.818  -0.444   4.163  0.00  0.00    -0.021 A 
ATOM     29  C   UNL     1       5.583   0.851   4.430  0.00  0.00    +0.087 A 
ATOM     30  N   UNL     1       6.656   1.395   5.081  0.00  0.00    -0.360 N 
ATOM     31  H   UNL     1       6.720   2.317   5.378  0.00  0.00    +0.165 HD
ATOM     32  C   UNL     1       7.633   0.440   5.253  0.00  0.00    +0.047 A 
ATOM     33  C   UNL     1       7.148  -0.755   4.691  0.00  0.00    +0.003 A 
ATOM     34  C   UNL     1       7.933  -1.909   4.725  0.00  0.00    +0.010 A 
ATOM     35  C   UNL     1       9.168  -1.873   5.308  0.00  0.00    +0.001 A 
ATOM     36  C   UNL     1       9.650  -0.698   5.867  0.00  0.00    +0.002 A 
ATOM     37  C   UNL     1       8.896   0.456   5.837  0.00  0.00    +0.026 A 
ENDBRANCH  27  28
ENDBRANCH   5  27
TORSDOF 5
