REMARK  Name = ZINC09357638
REMARK  8 active torsions:
REMARK  status: ('A' for Active; 'I' for Inactive)
REMARK    1  A    between atoms: C_1  and  N_2
REMARK    2  A    between atoms: N_2  and  C_3
REMARK    3  A    between atoms: N_2  and  C_4
REMARK    4  A    between atoms: C_7  and  C_10
REMARK    5  A    between atoms: C_10  and  N_11
REMARK    6  A    between atoms: N_11  and  C_12
REMARK    7  A    between atoms: C_20  and  C_22
REMARK    8  A    between atoms: C_26  and  N_28
REMARK                            x       y       z     vdW  Elec       q    Type
REMARK                         _______ _______ _______ _____ _____    ______ ____
ROOT
ATOM      1  N   UNL     1      -5.657  -3.818   1.219  0.00  0.00    -0.289 N 
ATOM      2  C   UNL     1      -4.617  -4.093   2.031  0.00  0.00    +0.247 C 
ATOM      3  O   UNL     1      -3.483  -4.066   1.595  0.00  0.00    -0.270 OA
ENDROOT
BRANCH   1   4
ATOM      4  C   UNL     1      -6.770  -2.998   1.706  0.00  0.00    +0.099 C 
ATOM      5  C   UNL     1      -6.227  -1.835   2.553  0.00  0.00    +0.047 C 
ATOM      6  C   UNL     1      -7.384  -1.161   3.328  0.00  0.00    +0.168 C 
ATOM      7  S   UNL     1      -8.585  -2.538   3.538  0.00  0.00    -0.029 S 
ATOM      8  O   UNL     1      -9.786  -2.212   2.851  0.00  0.00    -0.174 OA
ATOM      9  O   UNL     1      -8.641  -2.897   4.912  0.00  0.00    -0.174 OA
ATOM     10  C   UNL     1      -7.701  -3.859   2.608  0.00  0.00    +0.188 C 
ENDBRANCH   1   4
BRANCH   2  11
ATOM     11  C   UNL     1      -4.856  -4.427   3.450  0.00  0.00    +0.039 A 
ATOM     12  C   UNL     1      -5.884  -3.797   4.155  0.00  0.00    +0.014 A 
ATOM     13  C   UNL     1      -6.101  -4.113   5.480  0.00  0.00    +0.023 A 
ATOM     14  C   UNL     1      -5.303  -5.052   6.111  0.00  0.00    +0.071 A 
ATOM     15  C   UNL     1      -4.281  -5.679   5.417  0.00  0.00    +0.145 A 
ATOM     16  C   UNL     1      -4.058  -5.377   4.090  0.00  0.00    +0.047 A 
ATOM     17 CL   UNL     1      -5.583  -5.444   7.779  0.00  0.00    -0.081 Cl
BRANCH  15  18
ATOM     18  N   UNL     1      -3.432  -6.682   6.099  0.00  0.00    +0.058 N 
ATOM     19  O   UNL     1      -2.540  -7.230   5.495  0.00  0.00    -0.126 OA
ATOM     20  O   UNL     1      -3.631  -6.952   7.261  0.00  0.00    -0.126 OA
ENDBRANCH  15  18
ENDBRANCH   2  11
BRANCH   1  21
ATOM     21  C   UNL     1      -5.676  -4.338  -0.150  0.00  0.00    +0.143 C 
BRANCH  21  25
ATOM     22  C   UNL     1      -3.811  -1.522  -2.770  0.00  0.00    +0.029 A 
ATOM     23  C   UNL     1      -3.052  -2.510  -2.156  0.00  0.00    +0.023 A 
ATOM     24  C   UNL     1      -3.658  -3.418  -1.310  0.00  0.00    +0.007 A 
ATOM     25  C   UNL     1      -5.018  -3.345  -1.074  0.00  0.00    -0.030 A 
ATOM     26  C   UNL     1      -5.777  -2.362  -1.683  0.00  0.00    +0.007 A 
ATOM     27  C   UNL     1      -5.176  -1.448  -2.526  0.00  0.00    +0.023 A 
BRANCH  22  29
ATOM     28  C   UNL     1      -4.002   0.443  -4.268  0.00  0.00    +0.129 C 
ATOM     29  N   UNL     1      -3.201  -0.602  -3.626  0.00  0.00    -0.336 N 
ATOM     30  C   UNL     1      -1.761  -0.682  -3.882  0.00  0.00    +0.129 C 
ENDBRANCH  22  29
ENDBRANCH  21  25
ENDBRANCH   1  21
TORSDOF 6
