REMARK  Name = ZINC08997667
REMARK  6 active torsions:
REMARK  status: ('A' for Active; 'I' for Inactive)
REMARK    1  A    between atoms: C_1  and  C_2
REMARK    2  A    between atoms: C_5  and  C_8
REMARK    3  A    between atoms: N_12  and  C_13
REMARK    4  A    between atoms: C_13  and  C_15
REMARK    5  A    between atoms: C_15  and  N_52
REMARK    6  A    between atoms: N_18  and  C_21
REMARK                            x       y       z     vdW  Elec       q    Type
REMARK                         _______ _______ _______ _____ _____    ______ ____
ROOT
ATOM      1  C   UNL     1      -0.785   1.673  -3.609  0.00  0.00    +0.222 C 
ATOM      2  O   UNL     1      -1.631   2.533  -3.454  0.00  0.00    -0.276 OA
ENDROOT
BRANCH   1   7
ATOM      3  C   UNL     1      -1.593   2.236  -8.143  0.00  0.00    +0.055 A 
ATOM      4  C   UNL     1      -2.482   3.156  -7.705  0.00  0.00    +0.074 A 
ATOM      5  S   UNL     1      -2.280   3.051  -5.935  0.00  0.00    -0.060 S 
ATOM      6  C   UNL     1      -1.058   1.821  -5.893  0.00  0.00    +0.163 A 
ATOM      7  N   UNL     1      -0.459   1.276  -4.833  0.00  0.00    -0.158 NA
ATOM      8  N   UNL     1      -0.859   1.556  -7.214  0.00  0.00    -0.335 N 
ATOM      9  H   UNL     1      -0.208   0.892  -7.491  0.00  0.00    +0.168 HD
BRANCH   3  14
ATOM     10  C   UNL     1      -0.906   1.234 -13.768  0.00  0.00    +0.044 C 
ATOM     11  C   UNL     1      -1.086   1.496 -12.295  0.00  0.00    -0.050 A 
ATOM     12  C   UNL     1      -2.002   2.442 -11.871  0.00  0.00    +0.004 A 
ATOM     13  C   UNL     1      -2.171   2.688 -10.524  0.00  0.00    +0.010 A 
ATOM     14  C   UNL     1      -1.417   1.979  -9.589  0.00  0.00    -0.001 A 
ATOM     15  C   UNL     1      -0.490   1.030 -10.023  0.00  0.00    +0.010 A 
ATOM     16  C   UNL     1      -0.335   0.790 -11.373  0.00  0.00    +0.004 A 
ENDBRANCH   3  14
ENDBRANCH   1   7
BRANCH   1  17
ATOM     17  C   UNL     1      -0.109   1.057  -2.412  0.00  0.00    +0.021 C 
BRANCH  17  23
ATOM     18  C   UNL     1      -2.130   1.071  -1.077  0.00  0.00    -0.059 C 
ATOM     19  C   UNL     1      -2.781   1.669   0.172  0.00  0.00    +0.086 C 
ATOM     20  N   UNL     1      -2.002   1.285   1.358  0.00  0.00    -0.331 N 
ATOM     21  C   UNL     1      -0.617   1.764   1.253  0.00  0.00    +0.086 C 
ATOM     22  C   UNL     1       0.034   1.166   0.003  0.00  0.00    -0.059 C 
ATOM     23  N   UNL     1      -0.745   1.578  -1.183  0.00  0.00    +0.387 N 
ATOM     24  H   UNL     1      -0.768   2.603  -1.228  0.00  0.00    -0.081 HD
BRANCH  20  25
ATOM     25  C   UNL     1      -2.607   1.755   2.528  0.00  0.00    +0.065 A 
ATOM     26  C   UNL     1      -2.732   3.120   2.747  0.00  0.00    +0.026 A 
ATOM     27  C   UNL     1      -3.330   3.580   3.904  0.00  0.00    +0.002 A 
ATOM     28  C   UNL     1      -3.805   2.684   4.844  0.00  0.00    +0.003 A 
ATOM     29  C   UNL     1      -3.683   1.323   4.630  0.00  0.00    +0.040 A 
ATOM     30  C   UNL     1      -3.090   0.855   3.472  0.00  0.00    +0.144 A 
ATOM     31  F   UNL     1      -2.976  -0.475   3.260  0.00  0.00    -0.204 F 
ENDBRANCH  20  25
ENDBRANCH  17  23
ENDBRANCH   1  17
TORSDOF 5
