REMARK  Name = ZINC40733963
REMARK  8 active torsions:
REMARK  status: ('A' for Active; 'I' for Inactive)
REMARK    1  A    between atoms: C_1  and  O_2
REMARK    2  A    between atoms: O_2  and  C_3
REMARK    3  A    between atoms: C_5  and  C_20
REMARK    4  A    between atoms: C_8  and  O_9
REMARK    5  A    between atoms: O_9  and  C_10
REMARK    6  A    between atoms: C_10  and  C_11
REMARK    7  A    between atoms: C_20  and  N_21
REMARK    8  A    between atoms: N_21  and  C_22
REMARK                            x       y       z     vdW  Elec       q    Type
REMARK                         _______ _______ _______ _____ _____    ______ ____
ROOT
ATOM      1  C   UNL     1       0.626  -0.619   1.042  0.00  0.00    +0.163 A 
ATOM      2  C   UNL     1       1.202   0.137   2.051  0.00  0.00    +0.051 A 
ATOM      3  C   UNL     1       1.837  -0.489   3.108  0.00  0.00    -0.060 A 
ATOM      4  C   UNL     1       1.899  -1.869   3.161  0.00  0.00    +0.021 A 
ATOM      5  C   UNL     1       1.326  -2.630   2.158  0.00  0.00    +0.063 A 
ATOM      6  C   UNL     1       0.683  -2.008   1.099  0.00  0.00    +0.176 A 
ATOM      7 BR   UNL     1       1.414  -4.517   2.234  0.00  0.00    -0.046 Br
ENDROOT
BRANCH   1   9
ATOM      8  C   UNL     1      -0.017   1.425   0.010  0.00  0.00    +0.277 C 
ATOM      9  O   UNL     1       0.002  -0.004   0.002  0.00  0.00    -0.491 OA
ENDBRANCH   1   9
BRANCH   6  10
ATOM     10  O   UNL     1       0.114  -2.754   0.114  0.00  0.00    -0.482 OA
BRANCH  10  11
ATOM     11  C   UNL     1       0.939  -3.091  -1.003  0.00  0.00    +0.269 C 
BRANCH  11  12
ATOM     12  C   UNL     1       0.145  -3.913  -1.984  0.00  0.00    +0.043 A 
ATOM     13  C   UNL     1       0.122  -5.293  -1.873  0.00  0.00    +0.131 A 
ATOM     14  C   UNL     1      -0.609  -6.048  -2.776  0.00  0.00    +0.039 A 
ATOM     15  C   UNL     1      -1.315  -5.423  -3.787  0.00  0.00    +0.004 A 
ATOM     16  C   UNL     1      -1.291  -4.046  -3.898  0.00  0.00    +0.020 A 
ATOM     17  C   UNL     1      -0.566  -3.290  -2.993  0.00  0.00    +0.050 A 
ATOM     18 CL   UNL     1      -0.544  -1.559  -3.130  0.00  0.00    -0.083 Cl
ATOM     19  F   UNL     1       0.812  -5.903  -0.885  0.00  0.00    -0.205 F 
ENDBRANCH  11  12
ENDBRANCH  10  11
ENDBRANCH   6  10
BRANCH   3  20
ATOM     20  C   UNL     1       2.463   0.335   4.203  0.00  0.00    -0.046 C 
BRANCH  20  21
ATOM     21  N   UNL     1       1.472   0.577   5.261  0.00  0.00    +0.384 N 
ATOM     22  H   UNL     1       0.683   1.073   4.876  0.00  0.00    -0.085 HD
ATOM     23  H   UNL     1       1.162  -0.306   5.639  0.00  0.00    -0.085 HD
BRANCH  21  24
ATOM     24  C   UNL     1       2.083   1.380   6.329  0.00  0.00    -0.065 C 
ATOM     25  C   UNL     1       3.200   0.575   6.997  0.00  0.00    -0.024 C 
ATOM     26  C   UNL     1       3.836   1.412   8.109  0.00  0.00    +0.005 C 
ATOM     27  C   UNL     1       2.772   1.769   9.150  0.00  0.00    -0.010 C 
ATOM     28  C   UNL     1       2.191   0.485   9.746  0.00  0.00    +0.007 C 
ATOM     29  C   UNL     1       1.555  -0.351   8.633  0.00  0.00    -0.010 C 
ATOM     30  C   UNL     1       2.618  -0.708   7.593  0.00  0.00    +0.005 C 
ATOM     31  C   UNL     1       0.438   0.453   7.965  0.00  0.00    +0.005 C 
ATOM     32  C   UNL     1       1.020   1.737   7.369  0.00  0.00    -0.024 C 
ATOM     33  C   UNL     1       1.655   2.573   8.482  0.00  0.00    +0.005 C 
ENDBRANCH  21  24
ENDBRANCH  20  21
ENDBRANCH   3  20
TORSDOF 7
