REMARK  Name = ZINC18202340
REMARK  3 active torsions:
REMARK  status: ('A' for Active; 'I' for Inactive)
REMARK    1  A    between atoms: C_1  and  C_2
REMARK    2  A    between atoms: C_2  and  C_26
REMARK    3  A    between atoms: C_6  and  C_17
REMARK                            x       y       z     vdW  Elec       q    Type
REMARK                         _______ _______ _______ _____ _____    ______ ____
ROOT
ATOM      1  C   UNL     1      -0.019   1.526   0.010  0.00  0.00    +0.011 C 
ATOM      2  C   UNL     1       0.002  -0.004   0.002  0.00  0.00    -0.023 C 
ATOM      3  C   UNL     1       0.741  -0.502  -1.242  0.00  0.00    +0.058 C 
ATOM      4  C   UNL     1       2.167  -0.011  -1.214  0.00  0.00    +0.017 C 
ATOM      5  C   UNL     1       2.812   0.187  -0.045  0.00  0.00    +0.024 C 
ATOM      6  C   UNL     1       4.237   0.677  -0.018  0.00  0.00    +0.092 C 
ATOM      7  C   UNL     1       4.903   0.490  -1.349  0.00  0.00    +0.069 A 
ATOM      8  C   UNL     1       6.310   0.531  -1.452  0.00  0.00    +0.280 A 
ATOM      9  O   UNL     1       6.995   0.713  -0.455  0.00  0.00    -0.265 OA
ATOM     10  N   UNL     1       6.893   0.368  -2.650  0.00  0.00    -0.177 NA
ATOM     11  C   UNL     1       6.171   0.170  -3.732  0.00  0.00    +0.195 A 
ATOM     12  N   UNL     1       4.812   0.121  -3.674  0.00  0.00    -0.316 N 
ATOM     13  C   UNL     1       4.169   0.281  -2.475  0.00  0.00    +0.112 A 
ATOM     14  N   UNL     1       2.797   0.227  -2.406  0.00  0.00    -0.304 N 
ATOM     15  N   UNL     1       6.799   0.009  -4.939  0.00  0.00    -0.329 N 
ATOM     16  C   UNL     1       2.173  -0.054   1.184  0.00  0.00    +0.162 C 
ATOM     17  O   UNL     1       2.787   0.115   2.219  0.00  0.00    -0.292 OA
ATOM     18  C   UNL     1       0.743  -0.516   1.242  0.00  0.00    +0.086 C 
ATOM     19  C   UNL     1      -1.432  -0.538   0.002  0.00  0.00    +0.011 C 
ATOM     20  H   UNL     1       2.270   0.359  -3.210  0.00  0.00    +0.153 HD
ATOM     21  H   UNL     1       7.767   0.043  -4.990  0.00  0.00    +0.145 HD
ATOM     22  H   UNL     1       6.275  -0.138  -5.742  0.00  0.00    +0.145 HD
ATOM     23  H   UNL     1       4.297  -0.027  -4.483  0.00  0.00    +0.170 HD
ENDROOT
BRANCH   6  24
ATOM     24  C   UNL     1       4.248   2.142   0.337  0.00  0.00    -0.035 A 
ATOM     25  C   UNL     1       3.586   3.052  -0.466  0.00  0.00    +0.004 A 
ATOM     26  C   UNL     1       3.596   4.396  -0.140  0.00  0.00    +0.000 A 
ATOM     27  C   UNL     1       4.268   4.829   0.988  0.00  0.00    +0.000 A 
ATOM     28  C   UNL     1       4.929   3.918   1.790  0.00  0.00    +0.000 A 
ATOM     29  C   UNL     1       4.916   2.574   1.468  0.00  0.00    +0.004 A 
ENDBRANCH   6  24
TORSDOF 1
