REMARK  Name = ZINC01241938
REMARK  9 active torsions:
REMARK  status: ('A' for Active; 'I' for Inactive)
REMARK    1  A    between atoms: C_1  and  C_2
REMARK    2  A    between atoms: C_7  and  N_8
REMARK    3  A    between atoms: C_18  and  S_19
REMARK    4  A    between atoms: S_19  and  C_20
REMARK    5  A    between atoms: C_20  and  C_21
REMARK    6  A    between atoms: N_23  and  N_24
REMARK    7  A    between atoms: C_25  and  C_26
REMARK    8  A    between atoms: C_25  and  C_27
REMARK    9  A    between atoms: C_32  and  O_33
REMARK                            x       y       z     vdW  Elec       q    Type
REMARK                         _______ _______ _______ _____ _____    ______ ____
ROOT
ATOM      1  N   UNL     1       0.025  -0.014   2.418  0.00  0.00    -0.255 N 
ATOM      2  C   UNL     1      -1.148   0.297   3.016  0.00  0.00    +0.267 A 
ATOM      3  O   UNL     1      -2.213  -0.014   2.515  0.00  0.00    -0.267 OA
ATOM      4  C   UNL     1      -1.090   1.023   4.292  0.00  0.00    +0.065 A 
ATOM      5  C   UNL     1      -2.244   1.387   4.985  0.00  0.00    +0.015 A 
ATOM      6  C   UNL     1      -2.133   2.061   6.170  0.00  0.00    +0.001 A 
ATOM      7  C   UNL     1      -0.886   2.386   6.688  0.00  0.00    +0.002 A 
ATOM      8  C   UNL     1       0.261   2.041   6.029  0.00  0.00    +0.028 A 
ATOM      9  C   UNL     1       0.181   1.351   4.816  0.00  0.00    +0.079 A 
ATOM     10  N   UNL     1       1.291   0.990   4.131  0.00  0.00    -0.223 NA
ATOM     11  C   UNL     1       1.214   0.337   2.997  0.00  0.00    +0.177 A 
ENDROOT
BRANCH   1  18
ATOM     12  C   UNL     1      -0.018   1.503   0.010  0.00  0.00    +0.046 C 
ATOM     13  C   UNL     1       0.002  -0.004   0.002  0.00  0.00    -0.026 A 
ATOM     14  C   UNL     1       0.006  -0.689  -1.198  0.00  0.00    +0.005 A 
ATOM     15  C   UNL     1       0.024  -2.071  -1.206  0.00  0.00    +0.000 A 
ATOM     16  C   UNL     1       0.039  -2.773  -0.014  0.00  0.00    +0.002 A 
ATOM     17  C   UNL     1       0.035  -2.094   1.188  0.00  0.00    +0.026 A 
ATOM     18  C   UNL     1       0.023  -0.705   1.200  0.00  0.00    +0.055 A 
ENDBRANCH   1  18
BRANCH  11  19
ATOM     19  S   UNL     1       2.710  -0.101   2.176  0.00  0.00    -0.078 S 
BRANCH  19  20
ATOM     20  C   UNL     1       4.011   0.542   3.264  0.00  0.00    +0.174 C 
BRANCH  20  21
ATOM     21  C   UNL     1       5.361   0.230   2.671  0.00  0.00    +0.242 C 
ATOM     22  O   UNL     1       5.438  -0.367   1.618  0.00  0.00    -0.273 OA
ATOM     23  N   UNL     1       6.484   0.614   3.311  0.00  0.00    -0.206 N 
ATOM     24  H   UNL     1       6.423   1.092   4.153  0.00  0.00    +0.177 HD
BRANCH  23  25
ATOM     25  N   UNL     1       7.738   0.325   2.759  0.00  0.00    -0.184 NA
ATOM     26  C   UNL     1       8.819   0.695   3.375  0.00  0.00    +0.067 C 
ATOM     27  C   UNL     1       8.724   1.436   4.684  0.00  0.00    +0.068 C 
BRANCH  26  28
ATOM     28  C   UNL     1      10.139   0.390   2.795  0.00  0.00    +0.039 A 
ATOM     29  C   UNL     1      11.305   0.781   3.457  0.00  0.00    +0.013 A 
ATOM     30  C   UNL     1      12.537   0.492   2.909  0.00  0.00    +0.001 A 
ATOM     31  C   UNL     1      12.624  -0.184   1.705  0.00  0.00    +0.004 A 
ATOM     32  C   UNL     1      11.478  -0.577   1.039  0.00  0.00    +0.046 A 
ATOM     33  C   UNL     1      10.232  -0.300   1.578  0.00  0.00    +0.126 A 
BRANCH  33  34
ATOM     34  O   UNL     1       9.105  -0.690   0.928  0.00  0.00    -0.506 OA
ATOM     35  H   UNL     1       8.765  -0.035   0.303  0.00  0.00    +0.292 HD
ENDBRANCH  33  34
ENDBRANCH  26  28
ENDBRANCH  23  25
ENDBRANCH  20  21
ENDBRANCH  19  20
ENDBRANCH  11  19
TORSDOF 7
