REMARK  Name = ZINC46053265
REMARK  7 active torsions:
REMARK  status: ('A' for Active; 'I' for Inactive)
REMARK    1  A    between atoms: C_1  and  N_2
REMARK    2  A    between atoms: C_6  and  C_9
REMARK    3  A    between atoms: C_6  and  O_25
REMARK    4  A    between atoms: C_9  and  N_10
REMARK    5  A    between atoms: N_10  and  C_11
REMARK    6  A    between atoms: C_11  and  C_12
REMARK    7  A    between atoms: C_17  and  C_18
REMARK                            x       y       z     vdW  Elec       q    Type
REMARK                         _______ _______ _______ _____ _____    ______ ____
ROOT
ATOM      1  N   UNL     1       3.697  -1.863  -0.746  0.00  0.00    +0.384 N 
ATOM      2  H   UNL     1       3.481  -0.877  -0.752  0.00  0.00    -0.085 HD
ATOM      3  H   UNL     1       4.024  -2.129   0.171  0.00  0.00    -0.085 HD
ENDROOT
BRANCH   1   4
ATOM      4  C   UNL     1       2.491  -2.631  -1.079  0.00  0.00    -0.037 C 
BRANCH   4  10
ATOM      5  C   UNL     1      -1.860  -4.297  -0.001  0.00  0.00    +0.132 C 
ATOM      6  N   UNL     1      -0.664  -3.588   0.460  0.00  0.00    -0.302 N 
ATOM      7  C   UNL     1      -0.415  -3.530   1.895  0.00  0.00    +0.107 C 
ATOM      8  C   UNL     1       0.560  -2.399   2.224  0.00  0.00    +0.022 C 
ATOM      9  C   UNL     1       1.789  -2.530   1.316  0.00  0.00    +0.044 C 
ATOM     10  C   UNL     1       1.359  -2.243  -0.124  0.00  0.00    +0.127 C 
ATOM     11  C   UNL     1       0.132  -3.042  -0.459  0.00  0.00    +0.245 C 
ATOM     12  O   UNL     1      -0.152  -3.194  -1.628  0.00  0.00    -0.273 OA
BRANCH  10  13
ATOM     13  O   UNL     1       1.078  -0.850  -0.267  0.00  0.00    -0.381 OA
ATOM     14  H   UNL     1       0.799  -0.594  -1.157  0.00  0.00    +0.211 HD
ENDBRANCH  10  13
ENDBRANCH   4  10
ENDBRANCH   1   4
BRANCH   1  15
ATOM     15  C   UNL     1       4.744  -2.141  -1.738  0.00  0.00    -0.043 C 
BRANCH  15  16
ATOM     16  C   UNL     1       6.018  -1.445  -1.333  0.00  0.00    -0.019 A 
ATOM     17  C   UNL     1       6.530  -0.330  -1.900  0.00  0.00    +0.107 A 
ATOM     18  N   UNL     1       7.677  -0.024  -1.255  0.00  0.00    -0.284 N 
ATOM     19  H   UNL     1       8.256   0.728  -1.451  0.00  0.00    +0.188 HD
ATOM     20  N   UNL     1       7.883  -0.982  -0.254  0.00  0.00    -0.174 NA
ATOM     21  C   UNL     1       6.883  -1.837  -0.293  0.00  0.00    +0.094 A 
BRANCH  21  22
ATOM     22  C   UNL     1       6.701  -3.009   0.599  0.00  0.00    +0.002 A 
ATOM     23  C   UNL     1       6.938  -2.890   1.967  0.00  0.00    +0.011 A 
ATOM     24  C   UNL     1       6.767  -3.982   2.792  0.00  0.00    +0.020 A 
ATOM     25  C   UNL     1       6.361  -5.195   2.263  0.00  0.00    +0.041 A 
ATOM     26  C   UNL     1       6.124  -5.319   0.905  0.00  0.00    +0.020 A 
ATOM     27  C   UNL     1       6.286  -4.230   0.072  0.00  0.00    +0.011 A 
ATOM     28 CL   UNL     1       6.148  -6.566   3.306  0.00  0.00    -0.084 Cl
ENDBRANCH  21  22
ENDBRANCH  15  16
ENDBRANCH   1  15
TORSDOF 6
