REMARK  Name = ZINC62794832
REMARK  4 active torsions:
REMARK  status: ('A' for Active; 'I' for Inactive)
REMARK    1  A    between atoms: C_3  and  S_11
REMARK    2  A    between atoms: C_6  and  C_7
REMARK    3  A    between atoms: S_11  and  C_12
REMARK    4  A    between atoms: N_16  and  C_17
REMARK                            x       y       z     vdW  Elec       q    Type
REMARK                         _______ _______ _______ _____ _____    ______ ____
ROOT
ATOM      1  C   UNL     1      -0.013   1.381  -0.113  0.00  0.00    +0.012 A 
ATOM      2  C   UNL     1       1.169   2.087  -0.121  0.00  0.00    +0.017 A 
ATOM      3  C   UNL     1       2.383   1.415  -0.012  0.00  0.00    +0.034 A 
ATOM      4  C   UNL     1       2.406   0.027   0.106  0.00  0.00    +0.055 A 
ATOM      5  C   UNL     1       1.227  -0.684   0.115  0.00  0.00    +0.032 A 
ATOM      6  C   UNL     1       0.006  -0.011   0.005  0.00  0.00    +0.014 A 
ATOM      7 CL   UNL     1       3.923  -0.807   0.241  0.00  0.00    -0.082 Cl
ENDROOT
BRANCH   6   8
ATOM      8  C   UNL     1      -1.260  -0.771   0.014  0.00  0.00    +0.094 C 
ATOM      9  N   UNL     1      -1.240  -2.099   0.127  0.00  0.00    -0.387 N 
ATOM     10  N   UNL     1      -2.423  -0.128  -0.090  0.00  0.00    -0.345 N 
ATOM     11  H   UNL     1      -0.394  -2.566   0.203  0.00  0.00    +0.157 HD
ATOM     12  H   UNL     1      -2.438   0.838  -0.172  0.00  0.00    +0.144 HD
ATOM     13  H   UNL     1      -3.255  -0.627  -0.084  0.00  0.00    +0.144 HD
ATOM     14  H   UNL     1      -2.072  -2.598   0.133  0.00  0.00    +0.157 HD
ENDBRANCH   6   8
BRANCH   3  15
ATOM     15  S   UNL     1       3.894   2.322  -0.024  0.00  0.00    -0.047 S 
BRANCH  15  16
ATOM     16  C   UNL     1       4.543   2.047  -1.639  0.00  0.00    +0.214 A 
ATOM     17  N   UNL     1       3.949   1.406  -2.622  0.00  0.00    -0.101 NA
ATOM     18  N   UNL     1       4.698   1.386  -3.664  0.00  0.00    -0.022 NA
ATOM     19  N   UNL     1       5.807   2.001  -3.431  0.00  0.00    -0.043 NA
ATOM     20  N   UNL     1       5.746   2.461  -2.103  0.00  0.00    -0.217 N 
BRANCH  20  21
ATOM     21  C   UNL     1       6.766   3.221  -1.377  0.00  0.00    +0.112 C 
ATOM     22  C   UNL     1       8.128   3.398  -2.051  0.00  0.00    +0.029 C 
ATOM     23  C   UNL     1       7.168   4.584  -1.944  0.00  0.00    +0.029 C 
ENDBRANCH  20  21
ENDBRANCH  15  16
ENDBRANCH   3  15
TORSDOF 4
