REMARK  Name = ZINC09420419
REMARK  7 active torsions:
REMARK  status: ('A' for Active; 'I' for Inactive)
REMARK    1  A    between atoms: C_1  and  C_2
REMARK    2  A    between atoms: C_2  and  C_4
REMARK    3  A    between atoms: C_2  and  C_19
REMARK    4  A    between atoms: N_21  and  C_22
REMARK    5  A    between atoms: C_22  and  C_23
REMARK    6  A    between atoms: C_23  and  C_25
REMARK    7  A    between atoms: C_23  and  O_31
REMARK                            x       y       z     vdW  Elec       q    Type
REMARK                         _______ _______ _______ _____ _____    ______ ____
ROOT
ATOM      1  C   UNL     1       1.298  -4.548   2.139  0.00  0.00    +0.022 C 
ATOM      2  C   UNL     1      -0.109  -4.165   2.601  0.00  0.00    +0.102 C 
ENDROOT
BRANCH   2   3
ATOM      3  C   UNL     1      -0.335  -4.678   4.000  0.00  0.00    -0.034 A 
ATOM      4  C   UNL     1       0.491  -4.255   5.029  0.00  0.00    +0.005 A 
ATOM      5  C   UNL     1       0.291  -4.714   6.313  0.00  0.00    +0.011 A 
ATOM      6  C   UNL     1      -0.740  -5.614   6.573  0.00  0.00    +0.007 A 
ATOM      7  C   UNL     1      -1.212  -6.288   7.796  0.00  0.00    +0.009 A 
ATOM      8  C   UNL     1      -0.797  -6.263   9.126  0.00  0.00    +0.030 A 
ATOM      9  C   UNL     1      -1.459  -7.025  10.065  0.00  0.00    +0.042 A 
ATOM     10  C   UNL     1      -2.537  -7.815   9.690  0.00  0.00    +0.022 A 
ATOM     11  C   UNL     1      -2.958  -7.848   8.378  0.00  0.00    +0.027 A 
ATOM     12  C   UNL     1      -2.301  -7.086   7.416  0.00  0.00    +0.048 A 
ATOM     13  N   UNL     1      -2.503  -6.929   6.056  0.00  0.00    -0.354 N 
ATOM     14  H   UNL     1      -3.197  -7.372   5.543  0.00  0.00    +0.166 HD
ATOM     15  C   UNL     1      -1.573  -6.048   5.532  0.00  0.00    +0.048 A 
ATOM     16  C   UNL     1      -1.359  -5.569   4.243  0.00  0.00    +0.030 A 
ATOM     17 CL   UNL     1      -0.944  -6.996  11.723  0.00  0.00    -0.084 Cl
ENDBRANCH   2   3
BRANCH   2  18
ATOM     18  C   UNL     1      -0.251  -2.665   2.587  0.00  0.00    +0.220 C 
ATOM     19  O   UNL     1      -0.511  -2.071   3.612  0.00  0.00    -0.275 OA
ATOM     20  N   UNL     1      -0.090  -1.984   1.436  0.00  0.00    -0.312 N 
ATOM     21  H   UNL     1       0.118  -2.458   0.616  0.00  0.00    +0.149 HD
BRANCH  20  22
ATOM     22  C   UNL     1      -0.228  -0.525   1.422  0.00  0.00    +0.140 C 
BRANCH  22  23
ATOM     23  C   UNL     1       0.002  -0.004   0.002  0.00  0.00    +0.162 C 
BRANCH  23  24
ATOM     24  C   UNL     1      -0.018   1.503   0.010  0.00  0.00    -0.018 A 
ATOM     25  C   UNL     1      -1.225   2.178   0.020  0.00  0.00    +0.006 A 
ATOM     26  C   UNL     1      -1.244   3.560   0.032  0.00  0.00    +0.000 A 
ATOM     27  C   UNL     1      -0.056   4.267   0.025  0.00  0.00    +0.000 A 
ATOM     28  C   UNL     1       1.151   3.592   0.010  0.00  0.00    +0.000 A 
ATOM     29  C   UNL     1       1.169   2.210   0.003  0.00  0.00    +0.006 A 
ENDBRANCH  23  24
BRANCH  23  30
ATOM     30  O   UNL     1      -1.032  -0.490  -0.857  0.00  0.00    -0.386 OA
ATOM     31  H   UNL     1      -1.922  -0.218  -0.594  0.00  0.00    +0.210 HD
ENDBRANCH  23  30
ENDBRANCH  22  23
ENDBRANCH  20  22
ENDBRANCH   2  18
TORSDOF 6
