REMARK  Name = ZINC38680349
REMARK  9 active torsions:
REMARK  status: ('A' for Active; 'I' for Inactive)
REMARK    1  A    between atoms: C_4  and  C_8
REMARK    2  A    between atoms: C_13  and  O_22
REMARK    3  A    between atoms: C_17  and  N_21
REMARK    4  A    between atoms: C_18  and  C_19
REMARK    5  A    between atoms: O_22  and  C_23
REMARK    6  A    between atoms: C_23  and  C_25
REMARK    7  A    between atoms: C_25  and  O_26
REMARK    8  A    between atoms: O_26  and  C_27
REMARK    9  A    between atoms: C_30  and  N_33
REMARK                            x       y       z     vdW  Elec       q    Type
REMARK                         _______ _______ _______ _____ _____    ______ ____
ROOT
ATOM      1  C   UNL     1       3.675  -0.755  -0.065  0.00  0.00    +0.102 C 
ATOM      2  C   UNL     1       3.788  -1.607   1.171  0.00  0.00    +0.008 A 
ATOM      3  C   UNL     1       4.181  -1.026   2.364  0.00  0.00    +0.012 A 
ATOM      4  C   UNL     1       4.290  -1.792   3.508  0.00  0.00    +0.047 A 
ATOM      5  C   UNL     1       4.004  -3.150   3.464  0.00  0.00    +0.135 A 
ATOM      6  C   UNL     1       3.611  -3.734   2.271  0.00  0.00    +0.093 A 
ATOM      7  C   UNL     1       3.501  -2.962   1.121  0.00  0.00    +0.138 A 
ATOM      8  O   UNL     1       3.115  -3.549  -0.038  0.00  0.00    -0.441 OA
ATOM      9  C   UNL     1       3.368  -2.945  -1.212  0.00  0.00    +0.199 C 
ATOM     10  C   UNL     1       3.639  -1.624  -1.290  0.00  0.00    +0.098 C 
ENDROOT
BRANCH   1  14
ATOM     11  C   UNL     1       0.087   1.560   0.132  0.00  0.00    +0.004 A 
ATOM     12  C   UNL     1       1.314   2.193   0.054  0.00  0.00    +0.039 A 
ATOM     13  C   UNL     1       2.477   1.444  -0.010  0.00  0.00    +0.129 A 
ATOM     14  C   UNL     1       2.410   0.062   0.005  0.00  0.00    +0.019 A 
ATOM     15  C   UNL     1       1.183  -0.570   0.083  0.00  0.00    +0.048 A 
ATOM     16  C   UNL     1       0.021   0.180   0.147  0.00  0.00    +0.020 A 
ATOM     17 CL   UNL     1       1.098  -2.304   0.102  0.00  0.00    -0.083 Cl
ATOM     18  F   UNL     1       3.675   2.063  -0.087  0.00  0.00    -0.205 F 
ENDBRANCH   1  14
BRANCH   9  19
ATOM     19  N   UNL     1       3.350  -3.693  -2.363  0.00  0.00    -0.328 N 
ATOM     20  H   UNL     1       3.156  -4.642  -2.321  0.00  0.00    +0.145 HD
ATOM     21  H   UNL     1       3.531  -3.271  -3.217  0.00  0.00    +0.145 HD
ENDBRANCH   9  19
BRANCH  10  22
ATOM     22  C   UNL     1       3.899  -1.041  -2.572  0.00  0.00    +0.101 C 
ATOM     23  N   UNL     1       4.105  -0.579  -3.589  0.00  0.00    -0.191 NA
ENDBRANCH  10  22
BRANCH   5  24
ATOM     24  O   UNL     1       4.112  -3.905   4.588  0.00  0.00    -0.423 OA
BRANCH  24  25
ATOM     25  C   UNL     1       5.102  -4.810   4.648  0.00  0.00    +0.350 C 
ATOM     26  O   UNL     1       5.926  -4.863   3.767  0.00  0.00    -0.247 OA
BRANCH  25  27
ATOM     27  C   UNL     1       5.185  -5.760   5.816  0.00  0.00    +0.349 C 
BRANCH  27  28
ATOM     28  O   UNL     1       6.316  -6.618   5.651  0.00  0.00    -0.481 OA
BRANCH  28  29
ATOM     29  C   UNL     1       6.537  -7.540   6.624  0.00  0.00    +0.121 A 
ATOM     30  C   UNL     1       5.679  -7.622   7.712  0.00  0.00    +0.048 A 
ATOM     31  C   UNL     1       5.905  -8.561   8.699  0.00  0.00    +0.036 A 
ATOM     32  C   UNL     1       6.985  -9.420   8.605  0.00  0.00    +0.126 A 
ATOM     33  C   UNL     1       7.841  -9.340   7.522  0.00  0.00    +0.036 A 
ATOM     34  C   UNL     1       7.617  -8.406   6.529  0.00  0.00    +0.048 A 
BRANCH  32  35
ATOM     35  N   UNL     1       7.225 -10.425   9.664  0.00  0.00    +0.056 N 
ATOM     36  O   UNL     1       6.477 -10.495  10.611  0.00  0.00    -0.126 OA
ATOM     37  O   UNL     1       8.169 -11.176   9.582  0.00  0.00    -0.126 OA
ENDBRANCH  32  35
ENDBRANCH  28  29
ENDBRANCH  27  28
ENDBRANCH  25  27
ENDBRANCH  24  25
ENDBRANCH   5  24
TORSDOF 9
