REMARK  Name = ZINC16037985
REMARK  10 active torsions:
REMARK  status: ('A' for Active; 'I' for Inactive)
REMARK    1  A    between atoms: C_1  and  C_2
REMARK    2  A    between atoms: C_2  and  C_3
REMARK    3  A    between atoms: C_3  and  N_4
REMARK    4  A    between atoms: C_11  and  C_23
REMARK    5  A    between atoms: C_13  and  C_19
REMARK    6  A    between atoms: C_13  and  C_21
REMARK    7  A    between atoms: C_14  and  N_18
REMARK    8  A    between atoms: C_15  and  C_16
REMARK    9  A    between atoms: C_25  and  O_30
REMARK   10  A    between atoms: O_30  and  C_31
REMARK                            x       y       z     vdW  Elec       q    Type
REMARK                         _______ _______ _______ _____ _____    ______ ____
ROOT
ATOM      1  N   UNL     1       0.637   4.856  -0.141  0.00  0.00    -0.298 NA
ATOM      2  C   UNL     1       2.017   5.053  -0.620  0.00  0.00    +0.112 C 
ATOM      3  C   UNL     1       2.455   3.771  -1.284  0.00  0.00    -0.007 C 
ATOM      4  C   UNL     1       2.013   2.611  -0.835  0.00  0.00    -0.026 C 
ATOM      5  C   UNL     1       1.117   2.487   0.364  0.00  0.00    +0.044 C 
ATOM      6  C   UNL     1       0.602   3.809   0.884  0.00  0.00    +0.093 C 
ATOM      7  C   UNL     1      -0.019   1.525   0.010  0.00  0.00    +0.070 C 
ATOM      8  C   UNL     1       0.574   0.144  -0.276  0.00  0.00    +0.188 C 
ATOM      9  C   UNL     1       1.704   0.216  -1.257  0.00  0.00    +0.054 C 
ATOM     10  C   UNL     1       2.396   1.353  -1.524  0.00  0.00    +0.074 C 
ENDROOT
BRANCH   7  11
ATOM     11  C   UNL     1      -0.743   2.027  -1.212  0.00  0.00    -0.002 A 
ATOM     12  C   UNL     1      -0.219   1.795  -2.469  0.00  0.00    +0.052 A 
ATOM     13  C   UNL     1      -0.886   2.257  -3.594  0.00  0.00    +0.121 A 
ATOM     14  C   UNL     1      -2.079   2.951  -3.455  0.00  0.00    +0.048 A 
ATOM     15  C   UNL     1      -2.601   3.181  -2.197  0.00  0.00    +0.042 A 
ATOM     16  C   UNL     1      -1.937   2.714  -1.075  0.00  0.00    +0.127 A 
ATOM     17  F   UNL     1      -2.452   2.934   0.154  0.00  0.00    -0.205 F 
BRANCH  13  18
ATOM     18  O   UNL     1      -0.371   2.031  -4.831  0.00  0.00    -0.495 OA
ATOM     19  C   UNL     1      -1.111   2.535  -5.945  0.00  0.00    +0.277 C 
ENDBRANCH  13  18
ENDBRANCH   7  11
BRANCH   9  20
ATOM     20  N   UNL     1       2.058  -0.926  -1.920  0.00  0.00    -0.358 N 
ATOM     21  H   UNL     1       2.883  -0.907  -2.646  0.00  0.00    +0.142 HD
ATOM     22  H   UNL     1       1.516  -1.864  -1.727  0.00  0.00    +0.142 HD
ENDBRANCH   9  20
BRANCH  10  23
ATOM     23  C   UNL     1       3.482   1.339  -2.457  0.00  0.00    +0.101 C 
ATOM     24  N   UNL     1       4.344   1.328  -3.197  0.00  0.00    -0.191 NA
ENDBRANCH  10  23
BRANCH   8  25
ATOM     25  C   UNL     1       1.067  -0.436   0.984  0.00  0.00    +0.091 C 
ATOM     26  N   UNL     1       1.449  -0.884   1.956  0.00  0.00    -0.194 NA
ENDBRANCH   8  25
BRANCH   8  27
ATOM     27  C   UNL     1      -0.480  -0.725  -0.823  0.00  0.00    +0.091 C 
ATOM     28  N   UNL     1      -1.294  -1.397  -1.246  0.00  0.00    -0.194 NA
ENDBRANCH   8  27
BRANCH   1  29
ATOM     29  C   UNL     1       0.073   6.112   0.371  0.00  0.00    +0.084 C 
BRANCH  29  31
ATOM     30  C   UNL     1       0.250   7.849   2.158  0.00  0.00    +0.005 C 
ATOM     31  C   UNL     1       0.837   6.541   1.625  0.00  0.00    +0.012 C 
ENDBRANCH  29  31
ENDBRANCH   1  29
TORSDOF 8
