REMARK  Name = ZINC11069811
REMARK  7 active torsions:
REMARK  status: ('A' for Active; 'I' for Inactive)
REMARK    1  A    between atoms: C_1  and  C_2
REMARK    2  A    between atoms: C_2  and  N_66
REMARK    3  A    between atoms: C_5  and  N_8
REMARK    4  A    between atoms: C_9  and  C_11
REMARK    5  A    between atoms: C_11  and  S_12
REMARK    6  A    between atoms: S_12  and  C_13
REMARK    7  A    between atoms: N_26  and  C_27
REMARK                            x       y       z     vdW  Elec       q    Type
REMARK                         _______ _______ _______ _____ _____    ______ ____
ROOT
ATOM      1  C   UNL     1       1.561   2.953  -0.086  0.00  0.00    +0.173 A 
ATOM      2  N   UNL     1       2.780   3.453  -0.098  0.00  0.00    -0.216 NA
ATOM      3  C   UNL     1       3.841   2.659  -0.028  0.00  0.00    +0.117 A 
ATOM      4  C   UNL     1       3.725   1.262   0.060  0.00  0.00    +0.076 A 
ATOM      5  C   UNL     1       4.984   0.518   0.129  0.00  0.00    -0.023 A 
ATOM      6  C   UNL     1       6.123   1.239   0.101  0.00  0.00    -0.004 A 
ATOM      7  S   UNL     1       5.596   2.928  -0.016  0.00  0.00    -0.073 S 
ATOM      8  C   UNL     1       7.528   0.721   0.158  0.00  0.00    +0.043 C 
ATOM      9  C   UNL     1       7.486  -0.741   0.626  0.00  0.00    +0.005 C 
ATOM     10  C   UNL     1       6.420  -1.486  -0.182  0.00  0.00    +0.005 C 
ATOM     11  C   UNL     1       5.027  -1.004   0.228  0.00  0.00    +0.037 C 
ATOM     12  C   UNL     1       2.390   0.747   0.077  0.00  0.00    +0.263 A 
ATOM     13  O   UNL     1       2.191  -0.453   0.157  0.00  0.00    -0.267 OA
ATOM     14  N   UNL     1       1.357   1.606  -0.002  0.00  0.00    -0.284 N 
ENDROOT
BRANCH  14  15
ATOM     15  C   UNL     1      -0.013   1.086   0.008  0.00  0.00    +0.093 C 
ATOM     16  C   UNL     1      -0.274   0.260  -1.268  0.00  0.00    +0.025 C 
ATOM     17  C   UNL     1      -0.005  -1.203  -0.835  0.00  0.00    +0.002 C 
ATOM     18  C   UNL     1      -0.576  -1.244   0.605  0.00  0.00    +0.002 C 
ATOM     19  C   UNL     1      -0.204   0.130   1.198  0.00  0.00    +0.025 C 
ENDBRANCH  14  15
BRANCH   1  20
ATOM     20  S   UNL     1       0.175   4.037  -0.181  0.00  0.00    -0.078 S 
BRANCH  20  21
ATOM     21  C   UNL     1       1.029   5.631  -0.269  0.00  0.00    +0.173 C 
BRANCH  21  23
ATOM     22  N   UNL     1       0.421   8.023  -0.435  0.00  0.00    -0.312 N 
ATOM     23  C   UNL     1       0.013   6.741  -0.359  0.00  0.00    +0.224 C 
ATOM     24  O   UNL     1      -1.171   6.480  -0.363  0.00  0.00    -0.275 OA
ATOM     25  H   UNL     1       1.369   8.232  -0.432  0.00  0.00    +0.149 HD
BRANCH  22  28
ATOM     26  C   UNL     1      -0.970  11.535  -0.135  0.00  0.00    -0.077 C 
ATOM     27  C   UNL     1       0.044  10.399   0.015  0.00  0.00    +0.003 C 
ATOM     28  C   UNL     1      -0.566   9.102  -0.523  0.00  0.00    +0.069 C 
ATOM     29  C   UNL     1      -0.973   9.306  -1.984  0.00  0.00    +0.003 C 
ATOM     30  C   UNL     1      -1.958  10.474  -2.076  0.00  0.00    -0.077 C 
ATOM     31  N   UNL     1      -1.302  11.696  -1.567  0.00  0.00    +0.380 N 
ATOM     32  H   UNL     1      -0.434  11.853  -2.094  0.00  0.00    -0.082 HD
BRANCH  31  34
ATOM     33  C   UNL     1      -2.743  12.851  -3.177  0.00  0.00    -0.017 C 
ATOM     34  C   UNL     1      -2.192  12.861  -1.750  0.00  0.00    -0.082 C 
ENDBRANCH  31  34
ENDBRANCH  22  28
ENDBRANCH  21  23
ENDBRANCH  20  21
ENDBRANCH   1  20
TORSDOF 6
