REMARK  Name = ZINC35671552
REMARK  6 active torsions:
REMARK  status: ('A' for Active; 'I' for Inactive)
REMARK    1  A    between atoms: C_1  and  C_2
REMARK    2  A    between atoms: C_2  and  C_3
REMARK    3  A    between atoms: C_6  and  C_9
REMARK    4  A    between atoms: C_9  and  C_11
REMARK    5  A    between atoms: C_9  and  N_27
REMARK    6  A    between atoms: C_11  and  N_12
REMARK                            x       y       z     vdW  Elec       q    Type
REMARK                         _______ _______ _______ _____ _____    ______ ____
ROOT
ATOM      1  C   UNL     1       2.821  -3.320  -4.730  0.00  0.00    +0.115 C 
ENDROOT
BRANCH   1   2
ATOM      2  N   UNL     1       1.498  -3.937  -4.605  0.00  0.00    -0.300 N 
ATOM      3  C   UNL     1       0.930  -4.100  -3.380  0.00  0.00    +0.202 A 
ATOM      4  N   UNL     1      -0.234  -4.638  -3.204  0.00  0.00    -0.235 NA
ATOM      5  C   UNL     1      -0.991  -5.090  -4.259  0.00  0.00    +0.107 A 
ATOM      6  C   UNL     1      -2.265  -5.692  -4.204  0.00  0.00    +0.081 A 
ATOM      7  C   UNL     1      -2.828  -6.067  -5.402  0.00  0.00    +0.070 A 
ATOM      8  S   UNL     1      -1.647  -5.608  -6.630  0.00  0.00    -0.073 S 
ATOM      9  C   UNL     1      -0.422  -4.931  -5.537  0.00  0.00    +0.105 A 
ATOM     10  C   UNL     1       0.827  -4.346  -5.708  0.00  0.00    +0.268 A 
ATOM     11  O   UNL     1       1.308  -4.209  -6.821  0.00  0.00    -0.266 OA
ATOM     12  S   UNL     1      -4.394  -6.836  -5.573  0.00  0.00    -0.107 S 
ATOM     13  C   UNL     1      -4.582  -7.631  -3.942  0.00  0.00    +0.171 C 
ATOM     14  C   UNL     1      -4.038  -6.715  -2.884  0.00  0.00    +0.227 C 
ATOM     15  O   UNL     1      -4.624  -6.700  -1.821  0.00  0.00    -0.275 OA
ATOM     16  N   UNL     1      -2.978  -5.918  -2.993  0.00  0.00    -0.282 N 
ATOM     17  H   UNL     1      -2.671  -5.461  -2.195  0.00  0.00    +0.155 HD
ENDBRANCH   1   2
BRANCH   1  18
ATOM     18  C   UNL     1       2.661  -1.826  -5.019  0.00  0.00    -0.017 C 
BRANCH  18  19
ATOM     19  N   UNL     1       3.983  -1.228  -5.249  0.00  0.00    +0.385 N 
ATOM     20  C   UNL     1       3.833   0.215  -5.473  0.00  0.00    -0.078 C 
ATOM     21  C   UNL     1       5.213   0.857  -5.633  0.00  0.00    -0.019 C 
ATOM     22  C   UNL     1       5.928   0.224  -6.830  0.00  0.00    -0.004 C 
ATOM     23  C   UNL     1       6.013  -1.290  -6.620  0.00  0.00    -0.019 C 
ATOM     24  C   UNL     1       4.603  -1.852  -6.424  0.00  0.00    -0.078 C 
ATOM     25  H   UNL     1       4.566  -1.381  -4.440  0.00  0.00    -0.081 HD
ENDBRANCH  18  19
BRANCH  18  29
ATOM     26  C   UNL     1       0.796   0.077  -1.681  0.00  0.00    -0.048 A 
ATOM     27  C   UNL     1       0.048  -0.253  -2.795  0.00  0.00    +0.004 A 
ATOM     28  C   UNL     1       0.651  -0.869  -3.876  0.00  0.00    +0.002 A 
ATOM     29  C   UNL     1       2.003  -1.154  -3.842  0.00  0.00    -0.059 A 
ATOM     30  C   UNL     1       2.752  -0.824  -2.728  0.00  0.00    +0.002 A 
ATOM     31  C   UNL     1       2.149  -0.204  -1.649  0.00  0.00    +0.004 A 
BRANCH  26  33
ATOM     32  C   UNL     1       0.197   2.266  -0.682  0.00  0.00    +0.009 C 
ATOM     33  C   UNL     1       0.138   0.748  -0.502  0.00  0.00    +0.032 C 
ENDBRANCH  26  33
ENDBRANCH  18  29
ENDBRANCH   1  18
TORSDOF 5
