REMARK  Name = ZINC08791042
REMARK  5 active torsions:
REMARK  status: ('A' for Active; 'I' for Inactive)
REMARK    1  A    between atoms: C_1  and  C_2
REMARK    2  A    between atoms: C_18  and  C_20
REMARK    3  A    between atoms: C_20  and  N_66
REMARK    4  A    between atoms: C_23  and  C_26
REMARK    5  A    between atoms: C_23  and  O_33
REMARK                            x       y       z     vdW  Elec       q    Type
REMARK                         _______ _______ _______ _____ _____    ______ ____
ROOT
ATOM      1  C   UNL     1       2.170   1.639  -1.320  0.00  0.00    +0.011 C 
ATOM      2  C   UNL     1       1.457   2.070  -0.037  0.00  0.00    -0.023 C 
ATOM      3  C   UNL     1       2.170   1.457   1.167  0.00  0.00    +0.007 C 
ATOM      4  C   UNL     1       2.243  -0.063   1.001  0.00  0.00    +0.003 C 
ATOM      5  C   UNL     1       0.826  -0.644   0.962  0.00  0.00    +0.037 C 
ATOM      6  C   UNL     1       0.029   0.044  -0.147  0.00  0.00    +0.096 C 
ATOM      7  C   UNL     1       0.004   1.576  -0.072  0.00  0.00    +0.030 C 
ATOM      8  C   UNL     1      -0.669   1.990   1.238  0.00  0.00    +0.014 C 
ATOM      9  C   UNL     1      -0.622   3.465   1.460  0.00  0.00    +0.042 C 
ATOM     10  C   UNL     1       0.781   4.089   1.317  0.00  0.00    +0.181 C 
ATOM     11  C   UNL     1       1.468   3.589   0.045  0.00  0.00    +0.052 C 
ATOM     12  O   UNL     1       0.451   5.509   1.068  0.00  0.00    -0.461 OA
ATOM     13  C   UNL     1      -0.603   5.508   0.194  0.00  0.00    +0.309 C 
ATOM     14  O   UNL     1      -0.847   6.381  -0.605  0.00  0.00    -0.251 OA
ATOM     15  C   UNL     1      -1.412   4.235   0.387  0.00  0.00    +0.088 C 
ATOM     16  C   UNL     1      -1.209  -0.664  -0.691  0.00  0.00    +0.196 C 
ATOM     17  O   UNL     1       0.006  -0.562  -1.437  0.00  0.00    -0.368 OA
ENDROOT
BRANCH  15  18
ATOM     18  C   UNL     1      -2.822   4.560   0.885  0.00  0.00    -0.064 C 
BRANCH  18  24
ATOM     19  C   UNL     1      -3.514   4.496  -1.434  0.00  0.00    -0.076 C 
ATOM     20  C   UNL     1      -4.176   5.310  -2.547  0.00  0.00    +0.021 C 
ATOM     21  C   UNL     1      -5.631   5.597  -2.167  0.00  0.00    +0.088 C 
ATOM     22  C   UNL     1      -5.663   6.340  -0.828  0.00  0.00    +0.021 C 
ATOM     23  C   UNL     1      -4.958   5.496   0.235  0.00  0.00    -0.076 C 
ATOM     24  N   UNL     1      -3.556   5.276  -0.179  0.00  0.00    +0.380 N 
ATOM     25  H   UNL     1      -3.108   6.186  -0.338  0.00  0.00    -0.082 HD
BRANCH  21  26
ATOM     26  C   UNL     1      -6.271   6.450  -3.232  0.00  0.00    -0.016 A 
ATOM     27  C   UNL     1      -6.217   7.828  -3.139  0.00  0.00    +0.008 A 
ATOM     28  C   UNL     1      -6.799   8.611  -4.118  0.00  0.00    +0.020 A 
ATOM     29  C   UNL     1      -7.446   8.014  -5.186  0.00  0.00    +0.041 A 
ATOM     30  C   UNL     1      -7.505   6.635  -5.276  0.00  0.00    +0.020 A 
ATOM     31  C   UNL     1      -6.917   5.854  -4.298  0.00  0.00    +0.008 A 
ATOM     32 CL   UNL     1      -8.184   8.997  -6.412  0.00  0.00    -0.084 Cl
ENDBRANCH  21  26
BRANCH  21  33
ATOM     33  O   UNL     1      -6.345   4.365  -2.046  0.00  0.00    -0.384 OA
ATOM     34  H   UNL     1      -6.365   3.841  -2.859  0.00  0.00    +0.211 HD
ENDBRANCH  21  33
ENDBRANCH  18  24
ENDBRANCH  15  18
TORSDOF 4
