REMARK  Name = ZINC35486666
REMARK  11 active torsions:
REMARK  status: ('A' for Active; 'I' for Inactive)
REMARK    1  A    between atoms: C_1  and  C_2
REMARK    2  A    between atoms: C_2  and  C_3
REMARK    3  A    between atoms: C_3  and  C_4
REMARK    4  A    between atoms: C_4  and  O_5
REMARK    5  A    between atoms: O_5  and  C_6
REMARK    6  A    between atoms: C_10  and  C_12
REMARK    7  A    between atoms: N_27  and  C_28
REMARK    8  A    between atoms: C_28  and  C_29
REMARK    9  A    between atoms: C_29  and  N_30
REMARK   10  A    between atoms: N_30  and  C_31
REMARK   11  A    between atoms: N_30  and  C_32
REMARK                            x       y       z     vdW  Elec       q    Type
REMARK                         _______ _______ _______ _____ _____    ______ ____
ROOT
ATOM      1  C   UNL     1      -5.730  -6.426   0.011  0.00  0.00    +0.145 C 
ATOM      2  C   UNL     1      -6.077  -6.914   1.379  0.00  0.00    +0.072 A 
ATOM      3  C   UNL     1      -6.186  -6.205   2.659  0.00  0.00    +0.199 A 
ATOM      4  O   UNL     1      -6.161  -4.991   2.753  0.00  0.00    -0.287 OA
ATOM      5  C   UNL     1      -6.329  -7.109   3.828  0.00  0.00    +0.065 A 
ATOM      6  C   UNL     1      -6.244  -6.604   5.125  0.00  0.00    +0.030 A 
ATOM      7  C   UNL     1      -6.374  -7.458   6.198  0.00  0.00    +0.019 A 
ATOM      8  C   UNL     1      -6.588  -8.814   5.986  0.00  0.00    +0.019 A 
ATOM      9  C   UNL     1      -6.675  -9.323   4.710  0.00  0.00    +0.048 A 
ATOM     10  C   UNL     1      -6.550  -8.479   3.607  0.00  0.00    +0.140 A 
ATOM     11  O   UNL     1      -6.649  -9.004   2.365  0.00  0.00    -0.450 OA
ATOM     12  C   UNL     1      -6.305  -8.258   1.296  0.00  0.00    +0.199 A 
ATOM     13  C   UNL     1      -6.110  -8.675  -0.103  0.00  0.00    +0.283 C 
ATOM     14  O   UNL     1      -6.233  -9.811  -0.514  0.00  0.00    -0.267 OA
ATOM     15  N   UNL     1      -5.775  -7.610  -0.863  0.00  0.00    -0.285 N 
ATOM     16 BR   UNL     1      -6.261  -6.785   7.961  0.00  0.00    -0.050 Br
ENDROOT
BRANCH   1  21
ATOM     17  C   UNL     1      -2.913  -3.908   0.009  0.00  0.00    +0.121 A 
ATOM     18  C   UNL     1      -1.802  -4.739  -0.000  0.00  0.00    +0.045 A 
ATOM     19  C   UNL     1      -1.967  -6.110  -0.006  0.00  0.00    +0.004 A 
ATOM     20  C   UNL     1      -3.238  -6.655  -0.002  0.00  0.00    +0.006 A 
ATOM     21  C   UNL     1      -4.347  -5.829   0.007  0.00  0.00    -0.019 A 
ATOM     22  C   UNL     1      -4.187  -4.457   0.018  0.00  0.00    +0.051 A 
BRANCH  17  23
ATOM     23  O   UNL     1      -2.753  -2.558   0.015  0.00  0.00    -0.492 OA
BRANCH  23  24
ATOM     24  C   UNL     1      -1.413  -2.063   0.004  0.00  0.00    +0.229 C 
BRANCH  24  25
ATOM     25  C   UNL     1      -1.433  -0.534   0.013  0.00  0.00    +0.041 C 
BRANCH  25  27
ATOM     26  C   UNL     1      -0.019   1.526   0.010  0.00  0.00    +0.004 C 
ATOM     27  C   UNL     1       0.002  -0.004   0.002  0.00  0.00    -0.000 C 
ENDBRANCH  25  27
ENDBRANCH  24  25
ENDBRANCH  23  24
ENDBRANCH  17  23
ENDBRANCH   1  21
BRANCH  15  28
ATOM     28  C   UNL     1      -5.504  -7.628  -2.302  0.00  0.00    +0.090 C 
BRANCH  28  29
ATOM     29  C   UNL     1      -4.014  -7.883  -2.538  0.00  0.00    -0.060 C 
BRANCH  29  30
ATOM     30  N   UNL     1      -3.742  -7.902  -3.981  0.00  0.00    +0.377 N 
ATOM     31  C   UNL     1      -2.296  -8.027  -4.205  0.00  0.00    -0.097 C 
ATOM     32  C   UNL     1      -4.433  -9.043  -4.595  0.00  0.00    -0.097 C 
ATOM     33  H   UNL     1      -4.074  -7.045  -4.397  0.00  0.00    -0.083 HD
ENDBRANCH  29  30
ENDBRANCH  28  29
ENDBRANCH  15  28
TORSDOF 8
