REMARK  Name = ZINC36652980
REMARK  13 active torsions:
REMARK  status: ('A' for Active; 'I' for Inactive)
REMARK    1  A    between atoms: C_1  and  C_2
REMARK    2  A    between atoms: N_11  and  C_12
REMARK    3  A    between atoms: C_12  and  C_13
REMARK    4  A    between atoms: C_13  and  C_14
REMARK    5  A    between atoms: C_14  and  N_15
REMARK    6  A    between atoms: N_15  and  C_16
REMARK    7  A    between atoms: N_15  and  C_17
REMARK    8  A    between atoms: C_18  and  C_20
REMARK    9  A    between atoms: C_20  and  C_21
REMARK   10  A    between atoms: C_24  and  S_27
REMARK   11  A    between atoms: S_27  and  C_28
REMARK   12  A    between atoms: C_28  and  C_29
REMARK   13  A    between atoms: C_28  and  C_30
REMARK                            x       y       z     vdW  Elec       q    Type
REMARK                         _______ _______ _______ _____ _____    ______ ____
ROOT
ATOM      1  C   UNL     1       0.054   1.366  -0.111  0.00  0.00    +0.044 C 
ATOM      2  C   UNL     1      -0.115  -0.131  -0.085  0.00  0.00    -0.049 A 
ATOM      3  C   UNL     1      -0.358  -0.829  -1.260  0.00  0.00    +0.005 A 
ATOM      4  C   UNL     1      -0.516  -2.190  -1.264  0.00  0.00    +0.029 A 
ATOM      5  C   UNL     1      -0.435  -2.931  -0.062  0.00  0.00    +0.080 A 
ATOM      6  C   UNL     1      -0.186  -2.187   1.114  0.00  0.00    +0.041 A 
ATOM      7  C   UNL     1      -0.024  -0.824   1.108  0.00  0.00    +0.020 A 
ATOM      8  S   UNL     1      -0.158  -3.451   2.362  0.00  0.00    -0.052 S 
ATOM      9  C   UNL     1      -0.468  -4.840   1.282  0.00  0.00    +0.168 A 
ATOM     10  N   UNL     1      -0.565  -4.265   0.106  0.00  0.00    -0.224 NA
ATOM     11  N   UNL     1      -0.578  -6.183   1.603  0.00  0.00    -0.250 N 
ATOM     12  C   UNL     1      -0.446  -6.583   2.884  0.00  0.00    +0.226 C 
ATOM     13  O   UNL     1      -0.232  -5.766   3.754  0.00  0.00    -0.275 OA
ENDROOT
BRANCH  11  14
ATOM     14  C   UNL     1      -0.838  -7.170   0.551  0.00  0.00    +0.114 C 
BRANCH  14  15
ATOM     15  C   UNL     1       0.492  -7.676  -0.012  0.00  0.00    +0.001 C 
BRANCH  15  16
ATOM     16  C   UNL     1       0.221  -8.706  -1.110  0.00  0.00    -0.078 C 
BRANCH  16  17
ATOM     17  N   UNL     1       1.497  -9.193  -1.651  0.00  0.00    +0.376 N 
ATOM     18  C   UNL     1       1.240 -10.267  -2.620  0.00  0.00    -0.097 C 
ATOM     19  C   UNL     1       2.199  -8.089  -2.318  0.00  0.00    -0.097 C 
ATOM     20  H   UNL     1       2.067  -9.548  -0.898  0.00  0.00    -0.083 HD
ENDBRANCH  16  17
ENDBRANCH  15  16
ENDBRANCH  14  15
ENDBRANCH  11  14
BRANCH  12  21
ATOM     21  C   UNL     1      -0.566  -8.044   3.233  0.00  0.00    +0.131 C 
BRANCH  21  22
ATOM     22  C   UNL     1      -0.381  -8.222   4.718  0.00  0.00    -0.039 A 
ATOM     23  C   UNL     1       0.884  -8.433   5.235  0.00  0.00    +0.005 A 
ATOM     24  C   UNL     1       1.058  -8.597   6.595  0.00  0.00    +0.015 A 
ATOM     25  C   UNL     1      -0.040  -8.549   7.445  0.00  0.00    +0.008 A 
ATOM     26  C   UNL     1      -1.310  -8.335   6.922  0.00  0.00    +0.015 A 
ATOM     27  C   UNL     1      -1.476  -8.167   5.562  0.00  0.00    +0.005 A 
BRANCH  25  28
ATOM     28  S   UNL     1       0.176  -8.758   9.181  0.00  0.00    -0.122 S 
BRANCH  28  29
ATOM     29  C   UNL     1       0.289  -7.062   9.817  0.00  0.00    +0.045 C 
ATOM     30  C   UNL     1       0.299  -7.091  11.346  0.00  0.00    +0.019 C 
ATOM     31  C   UNL     1       1.579  -6.413   9.310  0.00  0.00    +0.019 C 
ENDBRANCH  28  29
ENDBRANCH  25  28
ENDBRANCH  21  22
ENDBRANCH  12  21
TORSDOF 8
