REMARK  Name = ZINC39988580
REMARK  16 active torsions:
REMARK  status: ('A' for Active; 'I' for Inactive)
REMARK    1  A    between atoms: C_1  and  C_2
REMARK    2  A    between atoms: C_2  and  C_4
REMARK    3  A    between atoms: C_2  and  C_12
REMARK    4  A    between atoms: C_4  and  C_5
REMARK    5  A    between atoms: C_5  and  C_7
REMARK    6  A    between atoms: C_5  and  C_8
REMARK    7  A    between atoms: C_8  and  O_10
REMARK    8  A    between atoms: O_10  and  C_11
REMARK    9  A    between atoms: C_26  and  C_28
REMARK   10  A    between atoms: C_28  and  C_30
REMARK   11  A    between atoms: C_28  and  C_31
REMARK   12  A    between atoms: C_31  and  C_32
REMARK   13  A    between atoms: C_32  and  C_34
REMARK   14  A    between atoms: C_32  and  C_35
REMARK   15  A    between atoms: C_35  and  O_37
REMARK   16  A    between atoms: O_37  and  C_38
REMARK                            x       y       z     vdW  Elec       q    Type
REMARK                         _______ _______ _______ _____ _____    ______ ____
ROOT
ATOM      1  C   UNL     1       0.745  -2.584  -0.821  0.00  0.00    +0.219 C 
ATOM      2  O   UNL     1      -0.213  -3.280  -1.088  0.00  0.00    -0.275 OA
ATOM      3  N   UNL     1       1.869  -2.674  -1.559  0.00  0.00    -0.297 N 
ATOM      4  C   UNL     1       3.126  -1.948  -1.224  0.00  0.00    +0.136 C 
ATOM      5  C   UNL     1       3.500  -2.285   0.221  0.00  0.00    +0.179 C 
ATOM      6  O   UNL     1       4.714  -3.040   0.235  0.00  0.00    -0.377 OA
ATOM      7  C   UNL     1       4.708  -4.132   1.156  0.00  0.00    +0.179 C 
ATOM      8  C   UNL     1       5.400  -5.340   0.519  0.00  0.00    +0.136 C 
ATOM      9  N   UNL     1       4.382  -6.413   0.335  0.00  0.00    -0.297 N 
ATOM     10  C   UNL     1       4.264  -6.884  -1.074  0.00  0.00    +0.136 C 
ATOM     11  C   UNL     1       2.798  -6.762  -1.496  0.00  0.00    +0.179 C 
ATOM     12  O   UNL     1       2.684  -5.808  -2.553  0.00  0.00    -0.377 OA
ATOM     13  C   UNL     1       1.557  -4.938  -2.431  0.00  0.00    +0.179 C 
ATOM     14  C   UNL     1       1.976  -3.514  -2.786  0.00  0.00    +0.136 C 
ATOM     15  C   UNL     1       3.640  -6.909   1.345  0.00  0.00    +0.219 C 
ATOM     16  O   UNL     1       3.709  -6.412   2.449  0.00  0.00    -0.275 OA
ENDROOT
BRANCH   1  18
ATOM     17  C   UNL     1       0.619  -0.188  -0.197  0.00  0.00    +0.017 C 
ATOM     18  C   UNL     1       0.677  -1.621   0.335  0.00  0.00    +0.073 C 
BRANCH  18  19
ATOM     19  C   UNL     1      -0.576  -1.907   1.166  0.00  0.00    +0.027 C 
BRANCH  19  20
ATOM     20  C   UNL     1      -0.569  -1.030   2.419  0.00  0.00    +0.095 C 
ATOM     21  C   UNL     1      -1.904  -1.176   3.151  0.00  0.00    +0.019 C 
BRANCH  20  22
ATOM     22  C   UNL     1       0.553  -1.462   3.328  0.00  0.00    +0.310 C 
ATOM     23  O   UNL     1       1.273  -2.377   3.007  0.00  0.00    -0.251 OA
BRANCH  22  24
ATOM     24  O   UNL     1       0.752  -0.829   4.495  0.00  0.00    -0.468 OA
ATOM     25  C   UNL     1       1.834  -1.291   5.307  0.00  0.00    +0.280 C 
ENDBRANCH  22  24
ENDBRANCH  20  22
ENDBRANCH  19  20
ENDBRANCH  18  19
ENDBRANCH   1  18
BRANCH  15  26
ATOM     26  C   UNL     1       2.725  -8.082   1.102  0.00  0.00    +0.073 C 
ATOM     27  C   UNL     1       3.560  -9.351   0.922  0.00  0.00    +0.017 C 
BRANCH  26  28
ATOM     28  C   UNL     1       1.787  -8.254   2.298  0.00  0.00    +0.027 C 
BRANCH  28  29
ATOM     29  C   UNL     1       0.765  -9.351   1.992  0.00  0.00    +0.095 C 
ATOM     30  C   UNL     1      -0.074  -9.629   3.241  0.00  0.00    +0.019 C 
BRANCH  29  31
ATOM     31  C   UNL     1      -0.136  -8.899   0.871  0.00  0.00    +0.310 C 
ATOM     32  O   UNL     1       0.023  -7.812   0.369  0.00  0.00    -0.251 OA
BRANCH  31  33
ATOM     33  O   UNL     1      -1.114  -9.706   0.431  0.00  0.00    -0.468 OA
ATOM     34  C   UNL     1      -1.930  -9.213  -0.634  0.00  0.00    +0.280 C 
ENDBRANCH  31  33
ENDBRANCH  29  31
ENDBRANCH  28  29
ENDBRANCH  26  28
ENDBRANCH  15  26
TORSDOF 10
