REMARK  Name = ZINC09042210
REMARK  8 active torsions:
REMARK  status: ('A' for Active; 'I' for Inactive)
REMARK    1  A    between atoms: C_1  and  N_51
REMARK    2  A    between atoms: C_2  and  N_51
REMARK    3  A    between atoms: C_3  and  C_4
REMARK    4  A    between atoms: C_3  and  N_51
REMARK    5  A    between atoms: C_4  and  N_5
REMARK    6  A    between atoms: C_6  and  C_24
REMARK    7  A    between atoms: C_9  and  C_10
REMARK    8  A    between atoms: C_9  and  O_19
REMARK                            x       y       z     vdW  Elec       q    Type
REMARK                         _______ _______ _______ _____ _____    ______ ____
ROOT
ATOM      1  N   UNL     1       3.405   2.833   0.181  0.00  0.00    -0.285 N 
ATOM      2  C   UNL     1       2.555   1.639   0.159  0.00  0.00    +0.144 C 
ATOM      3  C   UNL     1       1.128   2.127   0.061  0.00  0.00    +0.074 C 
ATOM      4  C   UNL     1      -0.016   1.347   0.009  0.00  0.00    +0.168 C 
ATOM      5  C   UNL     1       1.195   3.526   0.025  0.00  0.00    +0.249 C 
ATOM      6  O   UNL     1       0.245   4.284  -0.056  0.00  0.00    -0.282 OA
ATOM      7  C   UNL     1       2.625   3.925   0.108  0.00  0.00    +0.288 C 
ATOM      8  O   UNL     1       3.029   5.070   0.104  0.00  0.00    -0.266 OA
ENDROOT
BRANCH   4   9
ATOM      9  C   UNL     1      -1.318   1.973  -0.222  0.00  0.00    +0.171 A 
ATOM     10  C   UNL     1      -2.448   1.728   0.498  0.00  0.00    +0.061 A 
ATOM     11  C   UNL     1      -3.471   2.540  -0.053  0.00  0.00    +0.021 A 
ATOM     12  C   UNL     1      -4.824   2.731   0.248  0.00  0.00    +0.011 A 
ATOM     13  C   UNL     1      -5.567   3.604  -0.493  0.00  0.00    +0.001 A 
ATOM     14  C   UNL     1      -4.990   4.305  -1.544  0.00  0.00    +0.004 A 
ATOM     15  C   UNL     1      -3.659   4.131  -1.859  0.00  0.00    +0.047 A 
ATOM     16  C   UNL     1      -2.883   3.248  -1.119  0.00  0.00    +0.136 A 
ATOM     17  O   UNL     1      -1.588   2.879  -1.187  0.00  0.00    -0.452 OA
ENDBRANCH   4   9
BRANCH   2  18
ATOM     18  C   UNL     1       2.743   0.847   1.427  0.00  0.00    -0.022 A 
ATOM     19  C   UNL     1       2.904   1.502   2.633  0.00  0.00    +0.007 A 
ATOM     20  C   UNL     1       3.072   0.776   3.797  0.00  0.00    +0.015 A 
ATOM     21  C   UNL     1       3.091  -0.606   3.753  0.00  0.00    +0.018 A 
ATOM     22  C   UNL     1       2.935  -1.262   2.545  0.00  0.00    +0.015 A 
ATOM     23  C   UNL     1       2.761  -0.535   1.382  0.00  0.00    +0.007 A 
ATOM     24 BR   UNL     1       3.327  -1.600   5.345  0.00  0.00    -0.050 Br
ENDBRANCH   2  18
BRANCH   4  25
ATOM     25  O   UNL     1       0.071   0.008   0.168  0.00  0.00    -0.503 OA
ATOM     26  H   UNL     1      -0.842  -0.396   0.103  0.00  0.00    +0.292 HD
ENDBRANCH   4  25
BRANCH   1  27
ATOM     27  C   UNL     1       4.867   2.836   0.270  0.00  0.00    +0.090 C 
BRANCH  27  28
ATOM     28  C   UNL     1       5.464   2.801  -1.138  0.00  0.00    -0.060 C 
BRANCH  28  31
ATOM     29  C   UNL     1       7.422   1.566  -0.431  0.00  0.00    -0.097 C 
ATOM     30  C   UNL     1       7.537   3.010  -2.371  0.00  0.00    -0.097 C 
ATOM     31  N   UNL     1       6.938   2.826  -1.032  0.00  0.00    +0.377 N 
ATOM     32  H   UNL     1       7.216   3.611  -0.431  0.00  0.00    -0.083 HD
ENDBRANCH  28  31
ENDBRANCH  27  28
ENDBRANCH   1  27
TORSDOF 6
