REMARK  Name = ZINC56160075
REMARK  6 active torsions:
REMARK  status: ('A' for Active; 'I' for Inactive)
REMARK    1  A    between atoms: C_1  and  C_2
REMARK    2  A    between atoms: C_2  and  C_4
REMARK    3  A    between atoms: C_2  and  N_10
REMARK    4  A    between atoms: N_10  and  C_11
REMARK    5  A    between atoms: C_11  and  C_12
REMARK    6  A    between atoms: C_12  and  C_17
REMARK                            x       y       z     vdW  Elec       q    Type
REMARK                         _______ _______ _______ _____ _____    ______ ____
ROOT
ATOM      1  N   UNL     1      -1.342  -0.656  -2.413  0.00  0.00    +0.387 N 
ATOM      2  H   UNL     1      -1.758  -0.336  -3.275  0.00  0.00    -0.085 HD
ATOM      3  H   UNL     1      -1.396  -1.663  -2.367  0.00  0.00    -0.085 HD
ENDROOT
BRANCH   1   5
ATOM      4  C   UNL     1       0.730  -0.828  -1.119  0.00  0.00    -0.004 C 
ATOM      5  C   UNL     1       0.066  -0.238  -2.365  0.00  0.00    +0.013 C 
BRANCH   5   6
ATOM      6  C   UNL     1       0.780  -0.733  -3.596  0.00  0.00    +0.206 C 
ATOM      7  O   UNL     1       0.176  -1.370  -4.432  0.00  0.00    -0.277 OA
ATOM      8  N   UNL     1       2.089  -0.466  -3.768  0.00  0.00    -0.242 N 
ATOM      9  C   UNL     1       2.728  -0.909  -4.870  0.00  0.00    +0.303 C 
ATOM     10  O   UNL     1       2.123  -1.548  -5.708  0.00  0.00    -0.253 OA
ATOM     11  N   UNL     1       4.038  -0.642  -5.042  0.00  0.00    -0.313 N 
ATOM     12  H   UNL     1       2.573   0.044  -3.100  0.00  0.00    +0.159 HD
ATOM     13  H   UNL     1       4.521  -0.132  -4.373  0.00  0.00    +0.146 HD
ATOM     14  H   UNL     1       4.497  -0.961  -5.835  0.00  0.00    +0.146 HD
ENDBRANCH   5   6
ENDBRANCH   1   5
BRANCH   1  15
ATOM     15  C   UNL     1      -2.065  -0.074  -1.275  0.00  0.00    -0.070 C 
BRANCH  15  16
ATOM     16  C   UNL     1      -3.517  -0.556  -1.293  0.00  0.00    -0.019 C 
ATOM     17  C   UNL     1      -3.566  -2.087  -1.150  0.00  0.00    +0.010 C 
ATOM     18  C   UNL     1      -4.246  -2.628  -2.425  0.00  0.00    +0.001 C 
ATOM     19  C   UNL     1      -4.011  -1.518  -3.480  0.00  0.00    +0.001 C 
ATOM     20  C   UNL     1      -4.169  -0.219  -2.650  0.00  0.00    +0.010 C 
BRANCH  16  21
ATOM     21  C   UNL     1      -4.290   0.093  -0.174  0.00  0.00    -0.043 A 
ATOM     22  C   UNL     1      -3.673   1.020   0.645  0.00  0.00    +0.007 A 
ATOM     23  C   UNL     1      -4.381   1.616   1.671  0.00  0.00    +0.038 A 
ATOM     24  C   UNL     1      -5.709   1.285   1.879  0.00  0.00    +0.123 A 
ATOM     25  C   UNL     1      -6.326   0.357   1.058  0.00  0.00    +0.038 A 
ATOM     26  C   UNL     1      -5.618  -0.234   0.029  0.00  0.00    +0.007 A 
ATOM     27  F   UNL     1      -6.402   1.867   2.882  0.00  0.00    -0.205 F 
ENDBRANCH  16  21
ENDBRANCH  15  16
ENDBRANCH   1  15
TORSDOF 5
