REMARK  Name = ZINC23873235
REMARK  7 active torsions:
REMARK  status: ('A' for Active; 'I' for Inactive)
REMARK    1  A    between atoms: C_2  and  C_28
REMARK    2  A    between atoms: C_4  and  S_11
REMARK    3  A    between atoms: C_6  and  C_7
REMARK    4  A    between atoms: S_11  and  N_14
REMARK    5  A    between atoms: N_17  and  C_20
REMARK    6  A    between atoms: C_20  and  N_21
REMARK    7  A    between atoms: C_25  and  C_26
REMARK                            x       y       z     vdW  Elec       q    Type
REMARK                         _______ _______ _______ _____ _____    ______ ____
ROOT
ATOM      1  S   UNL     1       3.891   2.312  -0.026  0.00  0.00    +0.061 S 
ATOM      2  O   UNL     1       3.608   3.588   0.534  0.00  0.00    -0.153 OA
ATOM      3  O   UNL     1       4.883   1.448   0.511  0.00  0.00    -0.153 OA
ENDROOT
BRANCH   1   7
ATOM      4  C   UNL     1       0.002  -0.004   0.002  0.00  0.00    +0.024 A 
ATOM      5  C   UNL     1      -0.017   1.378   0.010  0.00  0.00    +0.057 A 
ATOM      6  C   UNL     1       1.171   2.086   0.002  0.00  0.00    +0.041 A 
ATOM      7  C   UNL     1       2.377   1.411  -0.015  0.00  0.00    +0.107 A 
ATOM      8  C   UNL     1       2.396   0.029  -0.022  0.00  0.00    +0.041 A 
ATOM      9  C   UNL     1       1.208  -0.679  -0.013  0.00  0.00    +0.057 A 
BRANCH   9  10
ATOM     10  C   UNL     1       1.229  -2.186  -0.021  0.00  0.00    +0.417 C 
ATOM     11  F   UNL     1      -0.084  -2.670  -0.011  0.00  0.00    -0.166 F 
ATOM     12  F   UNL     1       1.883  -2.637  -1.172  0.00  0.00    -0.166 F 
ATOM     13  F   UNL     1       1.906  -2.649   1.112  0.00  0.00    -0.166 F 
ENDBRANCH   9  10
BRANCH   5  14
ATOM     14  C   UNL     1      -1.332   2.114   0.020  0.00  0.00    +0.417 C 
ATOM     15  F   UNL     1      -2.383   1.190   0.020  0.00  0.00    -0.166 F 
ATOM     16  F   UNL     1      -1.411   2.911   1.167  0.00  0.00    -0.166 F 
ATOM     17  F   UNL     1      -1.422   2.923  -1.118  0.00  0.00    -0.166 F 
ENDBRANCH   5  14
ENDBRANCH   1   7
BRANCH   1  18
ATOM     18  N   UNL     1       4.296   2.570  -1.611  0.00  0.00    -0.174 NA
ATOM     19  C   UNL     1       5.131   1.607  -2.343  0.00  0.00    +0.125 C 
ATOM     20  C   UNL     1       4.421   1.255  -3.659  0.00  0.00    +0.103 C 
ATOM     21  N   UNL     1       4.115   2.492  -4.390  0.00  0.00    -0.282 NA
ATOM     22  C   UNL     1       3.180   3.339  -3.637  0.00  0.00    +0.103 C 
ATOM     23  C   UNL     1       3.835   3.772  -2.322  0.00  0.00    +0.125 C 
BRANCH  21  24
ATOM     24  C   UNL     1       3.594   2.196  -5.732  0.00  0.00    +0.213 C 
BRANCH  24  25
ATOM     25  N   UNL     1       4.425   1.167  -6.362  0.00  0.00    -0.292 N 
ATOM     26  C   UNL     1       5.403   1.358  -7.274  0.00  0.00    +0.227 A 
ATOM     27  N   UNL     1       5.895   0.184  -7.579  0.00  0.00    -0.137 NA
ATOM     28  N   UNL     1       5.287  -0.734  -6.915  0.00  0.00    -0.119 NA
ATOM     29  C   UNL     1       4.372  -0.185  -6.143  0.00  0.00    +0.235 A 
BRANCH  29  30
ATOM     30  C   UNL     1       3.489  -0.870  -5.247  0.00  0.00    +0.140 C 
ATOM     31  N   UNL     1       2.789  -1.413  -4.537  0.00  0.00    -0.188 NA
ENDBRANCH  29  30
ENDBRANCH  24  25
ENDBRANCH  21  24
ENDBRANCH   1  18
TORSDOF 7
