REMARK  Name = ZINC39354025
REMARK  7 active torsions:
REMARK  status: ('A' for Active; 'I' for Inactive)
REMARK    1  A    between atoms: C_1  and  C_2
REMARK    2  A    between atoms: C_4  and  N_17
REMARK    3  A    between atoms: N_8  and  C_11
REMARK    4  A    between atoms: N_9  and  C_10
REMARK    5  A    between atoms: C_18  and  S_20
REMARK    6  A    between atoms: S_20  and  C_21
REMARK    7  A    between atoms: N_27  and  C_28
REMARK                            x       y       z     vdW  Elec       q    Type
REMARK                         _______ _______ _______ _____ _____    ______ ____
ROOT
ATOM      1  N   UNL     1      -3.180   1.671   1.825  0.00  0.00    -0.293 N 
ATOM      2  C   UNL     1      -4.102   1.486   0.859  0.00  0.00    +0.280 C 
ATOM      3  O   UNL     1      -4.700   0.430   0.784  0.00  0.00    -0.263 OA
ATOM      4  H   UNL     1      -2.703   2.513   1.885  0.00  0.00    +0.150 HD
ENDROOT
BRANCH   1   7
ATOM      5  C   UNL     1      -0.984   2.186   3.275  0.00  0.00    +0.028 C 
ATOM      6  C   UNL     1      -1.471   0.739   3.364  0.00  0.00    +0.102 C 
ATOM      7  C   UNL     1      -2.900   0.600   2.784  0.00  0.00    +0.180 C 
ATOM      8  C   UNL     1      -3.765   0.739   4.024  0.00  0.00    +0.256 C 
ATOM      9  O   UNL     1      -4.959   0.947   4.042  0.00  0.00    -0.272 OA
ATOM     10  N   UNL     1      -2.971   0.592   5.101  0.00  0.00    -0.201 N 
ATOM     11  N   UNL     1      -1.672   0.333   4.774  0.00  0.00    -0.218 NA
ATOM     12  C   UNL     1      -1.354  -1.089   4.963  0.00  0.00    +0.128 C 
BRANCH  10  13
ATOM     13  C   UNL     1      -3.430   0.693   6.420  0.00  0.00    +0.053 A 
ATOM     14  C   UNL     1      -2.737   1.468   7.340  0.00  0.00    +0.025 A 
ATOM     15  C   UNL     1      -3.193   1.565   8.640  0.00  0.00    +0.002 A 
ATOM     16  C   UNL     1      -4.338   0.892   9.026  0.00  0.00    +0.000 A 
ATOM     17  C   UNL     1      -5.029   0.119   8.111  0.00  0.00    +0.002 A 
ATOM     18  C   UNL     1      -4.582   0.022   6.808  0.00  0.00    +0.025 A 
ENDBRANCH  10  13
ENDBRANCH   1   7
BRANCH   2  19
ATOM     19  S   UNL     1      -4.439   2.774  -0.295  0.00  0.00    +0.008 S 
BRANCH  19  20
ATOM     20  C   UNL     1      -5.681   2.093  -1.343  0.00  0.00    +0.205 A 
ATOM     21  H   UNL     1      -7.690  -0.040  -2.416  0.00  0.00    +0.194 HD
ATOM     22  N   UNL     1      -6.197   0.904  -1.234  0.00  0.00    -0.144 NA
ATOM     23  N   UNL     1      -7.147   0.748  -2.253  0.00  0.00    -0.225 N 
ATOM     24  C   UNL     1      -7.168   1.893  -2.965  0.00  0.00    +0.349 A 
ATOM     25  O   UNL     1      -7.873   2.127  -3.931  0.00  0.00    -0.245 OA
ATOM     26  N   UNL     1      -6.272   2.733  -2.411  0.00  0.00    -0.238 N 
BRANCH  26  27
ATOM     27  C   UNL     1      -5.987   4.035  -2.848  0.00  0.00    +0.053 A 
ATOM     28  C   UNL     1      -5.085   4.239  -3.883  0.00  0.00    +0.026 A 
ATOM     29  C   UNL     1      -4.806   5.522  -4.311  0.00  0.00    +0.002 A 
ATOM     30  C   UNL     1      -5.424   6.603  -3.710  0.00  0.00    +0.000 A 
ATOM     31  C   UNL     1      -6.323   6.402  -2.678  0.00  0.00    +0.002 A 
ATOM     32  C   UNL     1      -6.611   5.121  -2.250  0.00  0.00    +0.026 A 
ENDBRANCH  26  27
ENDBRANCH  19  20
ENDBRANCH   2  19
TORSDOF 5
