REMARK  Name = ZINC01270278
REMARK  4 active torsions:
REMARK  status: ('A' for Active; 'I' for Inactive)
REMARK    1  A    between atoms: C_1  and  C_2
REMARK    2  A    between atoms: C_2  and  C_3
REMARK    3  A    between atoms: C_3  and  N_12
REMARK    4  A    between atoms: N_12  and  N_13
REMARK                            x       y       z     vdW  Elec       q    Type
REMARK                         _______ _______ _______ _____ _____    ______ ____
ROOT
ATOM      1  N   UNL     1       2.419  -2.848  -0.038  0.00  0.00    -0.250 N 
ATOM      2  C   UNL     1       1.224  -2.154  -0.011  0.00  0.00    +0.143 A 
ATOM      3  C   UNL     1       1.238  -0.690  -0.013  0.00  0.00    +0.024 A 
ATOM      4  C   UNL     1       2.429   0.040  -0.041  0.00  0.00    +0.012 A 
ATOM      5  C   UNL     1       2.382   1.405  -0.041  0.00  0.00    +0.001 A 
ATOM      6  C   UNL     1       1.167   2.078  -0.013  0.00  0.00    +0.001 A 
ATOM      7  C   UNL     1      -0.015   1.390   0.014  0.00  0.00    +0.009 A 
ATOM      8  C   UNL     1       0.003  -0.003   0.015  0.00  0.00    -0.005 A 
ATOM      9  C   UNL     1      -1.224  -0.807   0.044  0.00  0.00    +0.008 A 
ATOM     10  C   UNL     1      -2.483  -0.209   0.073  0.00  0.00    +0.010 A 
ATOM     11  C   UNL     1      -3.605  -0.989   0.099  0.00  0.00    +0.001 A 
ATOM     12  C   UNL     1      -3.502  -2.374   0.098  0.00  0.00    +0.002 A 
ATOM     13  C   UNL     1      -2.284  -2.987   0.070  0.00  0.00    +0.028 A 
ATOM     14  C   UNL     1      -1.112  -2.215   0.043  0.00  0.00    +0.074 A 
ATOM     15  N   UNL     1       0.092  -2.814   0.016  0.00  0.00    -0.230 NA
ATOM     16  H   UNL     1       3.257  -2.368  -0.133  0.00  0.00    +0.171 HD
ENDROOT
BRANCH   1  17
ATOM     17  N   UNL     1       2.420  -4.245   0.071  0.00  0.00    -0.269 N 
ATOM     18  H   UNL     1       1.581  -4.730   0.091  0.00  0.00    +0.170 HD
BRANCH  17  19
ATOM     19  C   UNL     1       3.585  -4.912   0.149  0.00  0.00    +0.035 C 
ATOM     20  C   UNL     1       3.591  -6.301   0.142  0.00  0.00    +0.078 C 
ATOM     21  C   UNL     1       4.842  -7.087   0.119  0.00  0.00    +0.168 C 
ATOM     22  O   UNL     1       5.799  -6.745  -0.545  0.00  0.00    -0.292 OA
ATOM     23  C   UNL     1       4.864  -8.343   0.973  0.00  0.00    +0.080 C 
ATOM     24  C   UNL     1       3.610  -9.168   0.668  0.00  0.00    +0.016 C 
ATOM     25  C   UNL     1       2.356  -8.355   0.998  0.00  0.00    +0.080 C 
ATOM     26  C   UNL     1       2.348  -7.099   0.151  0.00  0.00    +0.168 C 
ATOM     27  O   UNL     1       1.371  -6.766  -0.488  0.00  0.00    -0.292 OA
BRANCH  19  29
ATOM     28  C   UNL     1       5.359  -3.780  -1.163  0.00  0.00    +0.010 C 
ATOM     29  C   UNL     1       4.884  -4.153   0.243  0.00  0.00    +0.049 C 
ENDBRANCH  19  29
ENDBRANCH  17  19
ENDBRANCH   1  17
TORSDOF 3
