REMARK  Name = ZINC39355415
REMARK  8 active torsions:
REMARK  status: ('A' for Active; 'I' for Inactive)
REMARK    1  A    between atoms: C_1  and  O_2
REMARK    2  A    between atoms: O_2  and  C_3
REMARK    3  A    between atoms: C_3  and  C_5
REMARK    4  A    between atoms: C_18  and  O_20
REMARK    5  A    between atoms: O_20  and  C_21
REMARK    6  A    between atoms: C_21  and  C_22
REMARK    7  A    between atoms: C_22  and  C_23
REMARK    8  A    between atoms: C_28  and  C_30
REMARK                            x       y       z     vdW  Elec       q    Type
REMARK                         _______ _______ _______ _____ _____    ______ ____
ROOT
ATOM      1  C   UNL     1       0.679  -2.115   1.088  0.00  0.00    +0.147 C 
ATOM      2  C   UNL     1       1.434  -2.548   2.342  0.00  0.00    +0.094 C 
ATOM      3  C   UNL     1       0.763  -1.986   3.577  0.00  0.00    +0.042 C 
ATOM      4  C   UNL     1       0.962  -2.946   4.765  0.00  0.00    +0.110 C 
ATOM      5  N   UNL     1       2.286  -2.892   5.252  0.00  0.00    -0.298 N 
ATOM      6  C   UNL     1       3.447  -3.228   4.407  0.00  0.00    +0.127 C 
ATOM      7  C   UNL     1       3.705  -2.080   3.459  0.00  0.00    +0.127 C 
ATOM      8  N   UNL     1       2.849  -2.150   2.266  0.00  0.00    -0.296 N 
ATOM      9  C   UNL     1       3.437  -1.860   1.094  0.00  0.00    +0.218 C 
ATOM     10  O   UNL     1       4.613  -1.565   1.117  0.00  0.00    -0.276 OA
ATOM     11  C   UNL     1       2.754  -1.871  -0.237  0.00  0.00    +0.128 C 
ATOM     12  C   UNL     1       1.417  -2.650  -0.145  0.00  0.00    +0.142 C 
ATOM     13  C   UNL     1       2.495  -2.522   6.531  0.00  0.00    +0.246 C 
ATOM     14  O   UNL     1       1.554  -2.241   7.243  0.00  0.00    -0.273 OA
ENDROOT
BRANCH  13  15
ATOM     15  C   UNL     1       3.899  -2.457   7.076  0.00  0.00    +0.241 C 
ATOM     16  C   UNL     1       4.368  -3.822   7.511  0.00  0.00    -0.012 C 
ATOM     17  C   UNL     1       4.597  -3.705   8.823  0.00  0.00    +0.065 C 
ATOM     18  C   UNL     1       5.089  -4.852   9.678  0.00  0.00    +0.057 C 
ATOM     19  C   UNL     1       4.847  -6.162   8.920  0.00  0.00    +0.006 C 
ATOM     20  C   UNL     1       5.412  -6.050   7.501  0.00  0.00    +0.005 C 
ATOM     21  C   UNL     1       4.554  -5.066   6.693  0.00  0.00    +0.035 C 
ATOM     22  N   UNL     1       4.327  -2.445   9.229  0.00  0.00    -0.158 NA
ATOM     23  N   UNL     1       3.937  -1.683   8.333  0.00  0.00    -0.170 NA
ENDBRANCH  13  15
BRANCH   1  24
ATOM     24  C   UNL     1       0.618  -0.611   1.029  0.00  0.00    +0.314 C 
ATOM     25  O   UNL     1       1.124   0.049   1.905  0.00  0.00    -0.250 OA
BRANCH  24  27
ATOM     26  C   UNL     1      -0.017   1.425   0.010  0.00  0.00    +0.280 C 
ATOM     27  O   UNL     1       0.002  -0.004   0.002  0.00  0.00    -0.468 OA
ENDBRANCH  24  27
ENDBRANCH   1  24
BRANCH  12  28
ATOM     28  O   UNL     1       0.634  -2.414  -1.317  0.00  0.00    -0.375 OA
BRANCH  28  29
ATOM     29  C   UNL     1       0.827  -3.383  -2.350  0.00  0.00    +0.165 C 
BRANCH  29  30
ATOM     30  C   UNL     1      -0.055  -3.033  -3.549  0.00  0.00    +0.070 C 
BRANCH  30  31
ATOM     31  C   UNL     1       0.148  -4.055  -4.638  0.00  0.00    -0.008 A 
ATOM     32  C   UNL     1      -0.519  -5.215  -4.855  0.00  0.00    +0.011 A 
ATOM     33  C   UNL     1      -0.157  -6.005  -5.930  0.00  0.00    +0.008 A 
ATOM     34  C   UNL     1       0.854  -5.597  -6.735  0.00  0.00    +0.045 A 
ATOM     35  S   UNL     1       1.325  -4.049  -5.980  0.00  0.00    -0.102 S 
ENDBRANCH  30  31
ENDBRANCH  29  30
ENDBRANCH  28  29
ENDBRANCH  12  28
TORSDOF 7
