REMARK  Name = ZINC40313459
REMARK  3 active torsions:
REMARK  status: ('A' for Active; 'I' for Inactive)
REMARK    1  A    between atoms: C_9  and  C_12
REMARK    2  A    between atoms: C_15  and  C_17
REMARK    3  A    between atoms: C_18  and  N_22
REMARK                            x       y       z     vdW  Elec       q    Type
REMARK                         _______ _______ _______ _____ _____    ______ ____
ROOT
ATOM      1  C   UNL     1       0.135   1.370  -0.133  0.00  0.00    +0.002 A 
ATOM      2  C   UNL     1       1.296   2.065   0.152  0.00  0.00    +0.004 A 
ATOM      3  C   UNL     1       2.456   1.384   0.472  0.00  0.00    +0.047 A 
ATOM      4  C   UNL     1       2.460  -0.002   0.508  0.00  0.00    +0.143 A 
ATOM      5  C   UNL     1       1.289  -0.700   0.223  0.00  0.00    +0.079 A 
ATOM      6  C   UNL     1       0.129  -0.013  -0.098  0.00  0.00    +0.027 A 
ATOM      7  N   UNL     1       1.287  -2.104   0.266  0.00  0.00    -0.260 N 
ATOM      8  C   UNL     1       2.590  -2.789   0.305  0.00  0.00    +0.168 C 
ATOM      9  C   UNL     1       3.494  -2.014   1.274  0.00  0.00    +0.276 C 
ATOM     10  O   UNL     1       3.606  -0.663   0.818  0.00  0.00    -0.476 OA
ATOM     11  C   UNL     1       0.133  -2.800   0.272  0.00  0.00    +0.259 C 
ATOM     12  O   UNL     1      -0.931  -2.214   0.373  0.00  0.00    -0.269 OA
ENDROOT
BRANCH   9  13
ATOM     13  C   UNL     1       4.858  -2.652   1.313  0.00  0.00    +0.253 C 
ATOM     14  O   UNL     1       5.825  -2.042   0.907  0.00  0.00    -0.272 OA
ATOM     15  N   UNL     1       5.005  -3.901   1.798  0.00  0.00    -0.326 N 
ATOM     16  H   UNL     1       4.231  -4.388   2.122  0.00  0.00    +0.145 HD
ATOM     17  H   UNL     1       5.883  -4.311   1.823  0.00  0.00    +0.145 HD
ENDBRANCH   9  13
BRANCH  11  18
ATOM     18  C   UNL     1       0.156  -4.210   0.160  0.00  0.00    +0.095 A 
ATOM     19  C   UNL     1      -0.890  -5.121   0.309  0.00  0.00    +0.044 A 
ATOM     20  C   UNL     1      -0.548  -6.449   0.138  0.00  0.00    +0.031 A 
ATOM     21  C   UNL     1       0.735  -6.765  -0.153  0.00  0.00    +0.048 A 
ATOM     22  S   UNL     1       1.527  -5.285  -0.214  0.00  0.00    -0.090 S 
BRANCH  19  23
ATOM     23  N   UNL     1      -2.189  -4.720   0.610  0.00  0.00    -0.357 N 
ATOM     24  H   UNL     1      -2.392  -3.779   0.724  0.00  0.00    +0.142 HD
ATOM     25  H   UNL     1      -2.891  -5.383   0.706  0.00  0.00    +0.142 HD
ENDBRANCH  19  23
ENDBRANCH  11  18
TORSDOF 3
