REMARK  Name = ZINC22758384
REMARK  7 active torsions:
REMARK  status: ('A' for Active; 'I' for Inactive)
REMARK    1  A    between atoms: C_1  and  C_2
REMARK    2  A    between atoms: C_2  and  C_3
REMARK    3  A    between atoms: C_3  and  N_4
REMARK    4  A    between atoms: N_16  and  C_19
REMARK    5  A    between atoms: C_19  and  N_20
REMARK    6  A    between atoms: N_20  and  C_21
REMARK    7  A    between atoms: N_20  and  C_22
REMARK                            x       y       z     vdW  Elec       q    Type
REMARK                         _______ _______ _______ _____ _____    ______ ____
ROOT
ATOM      1  N   UNL     1       1.720   6.657   1.088  0.00  0.00    -0.277 N 
ATOM      2  C   UNL     1       1.719   7.825   0.414  0.00  0.00    +0.263 A 
ATOM      3  O   UNL     1       1.823   8.881   1.009  0.00  0.00    -0.267 OA
ATOM      4  C   UNL     1       1.591   7.802  -1.054  0.00  0.00    +0.064 A 
ATOM      5  C   UNL     1       1.585   8.981  -1.798  0.00  0.00    +0.015 A 
ATOM      6  C   UNL     1       1.464   8.921  -3.170  0.00  0.00    +0.001 A 
ATOM      7  C   UNL     1       1.348   7.697  -3.810  0.00  0.00    +0.002 A 
ATOM      8  C   UNL     1       1.353   6.522  -3.085  0.00  0.00    +0.027 A 
ATOM      9  C   UNL     1       1.474   6.564  -1.704  0.00  0.00    +0.064 A 
ATOM     10  N   UNL     1       1.482   5.392  -0.950  0.00  0.00    -0.257 N 
ATOM     11  C   UNL     1       1.603   5.445   0.421  0.00  0.00    +0.238 A 
ATOM     12  N   UNL     1       1.584   4.224   0.883  0.00  0.00    -0.133 NA
ATOM     13  N   UNL     1       1.447   3.349  -0.201  0.00  0.00    -0.255 N 
ATOM     14  C   UNL     1       1.392   4.098  -1.320  0.00  0.00    +0.182 A 
ATOM     15  S   UNL     1       1.234   3.513  -2.921  0.00  0.00    -0.011 S 
ENDROOT
BRANCH   1  16
ATOM     16  C   UNL     1       1.847   6.667   2.547  0.00  0.00    +0.128 C 
BRANCH  16  18
ATOM     17  C   UNL     1       3.459   6.611   4.455  0.00  0.00    +0.005 C 
ATOM     18  C   UNL     1       3.327   6.600   2.931  0.00  0.00    +0.018 C 
ENDBRANCH  16  18
ENDBRANCH   1  16
BRANCH  13  19
ATOM     19  C   UNL     1       1.382   1.887  -0.132  0.00  0.00    +0.072 C 
BRANCH  19  20
ATOM     20  N   UNL     1      -0.018   1.465   0.010  0.00  0.00    +0.395 N 
ATOM     21  C   UNL     1      -0.791   1.792  -1.195  0.00  0.00    -0.093 C 
ATOM     22  H   UNL     1      -0.454   2.020   0.853  0.00  0.00    -0.079 HD
BRANCH  20  23
ATOM     23  C   UNL     1      -0.107   0.031   0.319  0.00  0.00    -0.035 C 
ATOM     24  C   UNL     1      -1.550  -0.341   0.720  0.00  0.00    -0.006 C 
ATOM     25  C   UNL     1      -1.513  -0.195   2.258  0.00  0.00    +0.034 C 
ATOM     26  C   UNL     1      -0.068  -0.429   2.644  0.00  0.00    -0.046 A 
ATOM     27  C   UNL     1       0.740  -0.298   1.530  0.00  0.00    -0.058 A 
ATOM     28  C   UNL     1       2.109  -0.471   1.647  0.00  0.00    +0.002 A 
ATOM     29  C   UNL     1       2.669  -0.772   2.873  0.00  0.00    +0.000 A 
ATOM     30  C   UNL     1       1.861  -0.903   3.987  0.00  0.00    +0.000 A 
ATOM     31  C   UNL     1       0.495  -0.731   3.872  0.00  0.00    +0.004 A 
ENDBRANCH  20  23
ENDBRANCH  19  20
ENDBRANCH  13  19
TORSDOF 5
