REMARK  Name = ZINC27827245
REMARK  11 active torsions:
REMARK  status: ('A' for Active; 'I' for Inactive)
REMARK    1  A    between atoms: C_1  and  O_2
REMARK    2  A    between atoms: O_2  and  C_3
REMARK    3  A    between atoms: C_6  and  C_11
REMARK    4  A    between atoms: C_8  and  O_9
REMARK    5  A    between atoms: O_9  and  C_10
REMARK    6  A    between atoms: C_11  and  C_12
REMARK    7  A    between atoms: C_12  and  N_13
REMARK    8  A    between atoms: N_13  and  C_14
REMARK    9  A    between atoms: N_24  and  C_25
REMARK   10  A    between atoms: C_25  and  C_26
REMARK   11  A    between atoms: C_26  and  C_27
REMARK                            x       y       z     vdW  Elec       q    Type
REMARK                         _______ _______ _______ _____ _____    ______ ____
ROOT
ATOM      1  C   UNL     1       0.078  -6.770  -2.849  0.00  0.00    +0.046 C 
ATOM      2  C   UNL     1      -0.883  -7.922  -2.966  0.00  0.00    -0.059 C 
ATOM      3  C   UNL     1      -0.179  -8.994  -3.330  0.00  0.00    +0.014 C 
ATOM      4  C   UNL     1      -0.783 -10.361  -3.554  0.00  0.00    +0.040 C 
ATOM      5  C   UNL     1      -2.170 -10.393  -2.901  0.00  0.00    +0.005 C 
ATOM      6  C   UNL     1      -2.975  -9.171  -3.352  0.00  0.00    +0.005 C 
ATOM      7  C   UNL     1      -2.370  -7.907  -2.727  0.00  0.00    +0.031 C 
ATOM      8  C   UNL     1       1.232  -8.626  -3.470  0.00  0.00    +0.241 C 
ATOM      9  O   UNL     1       2.123  -9.389  -3.792  0.00  0.00    -0.270 OA
ATOM     10  N   UNL     1       1.400  -7.317  -3.190  0.00  0.00    -0.308 N 
ENDROOT
BRANCH   1  11
ATOM     11  N   UNL     1       0.083  -6.251  -1.475  0.00  0.00    +0.394 N 
ATOM     12  H   UNL     1       0.992  -6.606  -0.967  0.00  0.00    -0.083 HD
ATOM     13  H   UNL     1      -0.804  -6.635  -0.950  0.00  0.00    -0.083 HD
BRANCH  11  14
ATOM     14  C   UNL     1       0.059  -4.782  -1.467  0.00  0.00    -0.075 C 
BRANCH  14  15
ATOM     15  C   UNL     1       0.065  -4.280  -0.021  0.00  0.00    +0.016 C 
BRANCH  15  19
ATOM     16  C   UNL     1       0.002  -0.004   0.002  0.00  0.00    +0.161 A 
ATOM     17  C   UNL     1       1.210  -0.682  -0.019  0.00  0.00    +0.049 A 
ATOM     18  C   UNL     1       1.227  -2.064  -0.020  0.00  0.00    +0.007 A 
ATOM     19  C   UNL     1       0.041  -2.773  -0.013  0.00  0.00    -0.045 A 
ATOM     20  C   UNL     1      -1.168  -2.103   0.002  0.00  0.00    +0.053 A 
ATOM     21  C   UNL     1      -1.192  -0.718   0.010  0.00  0.00    +0.162 A 
BRANCH  16  23
ATOM     22  C   UNL     1       1.248   2.022   0.001  0.00  0.00    +0.277 C 
ATOM     23  O   UNL     1      -0.016   1.356   0.009  0.00  0.00    -0.491 OA
ENDBRANCH  16  23
BRANCH  21  24
ATOM     24  O   UNL     1      -2.381  -0.057   0.025  0.00  0.00    -0.491 OA
ATOM     25  C   UNL     1      -3.567  -0.854   0.032  0.00  0.00    +0.277 C 
ENDBRANCH  21  24
ENDBRANCH  15  19
ENDBRANCH  14  15
ENDBRANCH  11  14
ENDBRANCH   1  11
BRANCH  10  26
ATOM     26  C   UNL     1       2.664  -6.577  -3.220  0.00  0.00    +0.111 C 
BRANCH  26  27
ATOM     27  C   UNL     1       3.327  -6.643  -1.843  0.00  0.00    +0.054 C 
BRANCH  27  28
ATOM     28  C   UNL     1       4.627  -5.882  -1.874  0.00  0.00    -0.046 A 
ATOM     29  C   UNL     1       5.801  -6.531  -2.208  0.00  0.00    +0.005 A 
ATOM     30  C   UNL     1       6.992  -5.832  -2.243  0.00  0.00    +0.020 A 
ATOM     31  C   UNL     1       7.012  -4.484  -1.931  0.00  0.00    +0.041 A 
ATOM     32  C   UNL     1       5.838  -3.836  -1.590  0.00  0.00    +0.020 A 
ATOM     33  C   UNL     1       4.646  -4.535  -1.562  0.00  0.00    +0.005 A 
ATOM     34 CL   UNL     1       8.509  -3.606  -1.967  0.00  0.00    -0.084 Cl
ENDBRANCH  27  28
ENDBRANCH  26  27
ENDBRANCH  10  26
TORSDOF 9
