REMARK  Name = ZINC19893978
REMARK  10 active torsions:
REMARK  status: ('A' for Active; 'I' for Inactive)
REMARK    1  A    between atoms: C_1  and  C_2
REMARK    2  A    between atoms: C_2  and  C_3
REMARK    3  A    between atoms: C_2  and  C_4
REMARK    4  A    between atoms: C_4  and  C_5
REMARK    5  A    between atoms: C_8  and  C_11
REMARK    6  A    between atoms: C_13  and  C_33
REMARK    7  A    between atoms: C_15  and  C_17
REMARK    8  A    between atoms: N_23  and  C_28
REMARK    9  A    between atoms: C_28  and  C_29
REMARK   10  A    between atoms: N_31  and  N_32
REMARK                            x       y       z     vdW  Elec       q    Type
REMARK                         _______ _______ _______ _____ _____    ______ ____
ROOT
ATOM      1  C   UNL     1      -2.707   2.942   4.747  0.00  0.00    +0.072 A 
ATOM      2  C   UNL     1      -2.340   4.158   5.315  0.00  0.00    +0.037 A 
ATOM      3  C   UNL     1      -3.003   4.602   6.462  0.00  0.00    -0.014 A 
ATOM      4  C   UNL     1      -4.008   3.795   7.000  0.00  0.00    +0.037 A 
ATOM      5  C   UNL     1      -4.315   2.589   6.378  0.00  0.00    +0.072 A 
ATOM      6  N   UNL     1      -3.667   2.203   5.287  0.00  0.00    -0.247 NA
ENDROOT
BRANCH   5   7
ATOM      7  C   UNL     1      -5.380   1.724   6.942  0.00  0.00    +0.002 A 
ATOM      8  C   UNL     1      -6.138   2.167   8.025  0.00  0.00    +0.014 A 
ATOM      9  C   UNL     1      -7.130   1.364   8.551  0.00  0.00    +0.048 A 
ATOM     10  C   UNL     1      -7.375   0.116   8.003  0.00  0.00    +0.143 A 
ATOM     11  C   UNL     1      -6.619  -0.333   6.919  0.00  0.00    +0.079 A 
ATOM     12  C   UNL     1      -5.628   0.470   6.385  0.00  0.00    +0.037 A 
ATOM     13  N   UNL     1      -6.881  -1.600   6.378  0.00  0.00    -0.256 N 
ATOM     14  C   UNL     1      -8.039  -2.220   6.693  0.00  0.00    +0.258 C 
ATOM     15  O   UNL     1      -8.274  -3.328   6.261  0.00  0.00    -0.271 OA
ATOM     16  C   UNL     1      -9.039  -1.528   7.584  0.00  0.00    +0.325 C 
ATOM     17  O   UNL     1      -8.352  -0.682   8.511  0.00  0.00    -0.481 OA
BRANCH  13  18
ATOM     18  C   UNL     1      -5.913  -2.241   5.484  0.00  0.00    +0.210 C 
BRANCH  18  19
ATOM     19  C   UNL     1      -4.951  -3.069   6.297  0.00  0.00    +0.244 C 
ATOM     20  O   UNL     1      -5.063  -3.119   7.503  0.00  0.00    -0.273 OA
ATOM     21  N   UNL     1      -3.967  -3.755   5.683  0.00  0.00    -0.252 N 
ATOM     22  H   UNL     1      -3.865  -3.710   4.588  0.00  0.00    +0.169 HD
BRANCH  21  23
ATOM     23  N   UNL     1      -3.095  -4.505   6.419  0.00  0.00    -0.254 NA
ATOM     24  H   UNL     1      -2.368  -4.987   5.748  0.00  0.00    +0.140 HD
ATOM     25  H   UNL     1      -2.562  -3.856   7.130  0.00  0.00    +0.140 HD
ENDBRANCH  21  23
ENDBRANCH  18  19
ENDBRANCH  13  18
ENDBRANCH   5   7
BRANCH   1  29
ATOM     26  C   UNL     1      -0.718   1.572   1.248  0.00  0.00    -0.047 A 
ATOM     27  C   UNL     1      -0.358   2.780   1.817  0.00  0.00    +0.004 A 
ATOM     28  C   UNL     1      -1.004   3.232   2.950  0.00  0.00    +0.010 A 
ATOM     29  C   UNL     1      -2.013   2.464   3.526  0.00  0.00    +0.000 A 
ATOM     30  C   UNL     1      -2.368   1.245   2.952  0.00  0.00    +0.010 A 
ATOM     31  C   UNL     1      -1.720   0.805   1.816  0.00  0.00    +0.004 A 
BRANCH  26  32
ATOM     32  C   UNL     1      -0.013   1.086   0.008  0.00  0.00    +0.038 C 
BRANCH  32  34
ATOM     33  C   UNL     1       0.031   1.205  -2.487  0.00  0.00    +0.007 C 
ATOM     34  C   UNL     1      -0.753   1.593  -1.232  0.00  0.00    -0.013 C 
ATOM     35  C   UNL     1      -2.147   0.964  -1.286  0.00  0.00    +0.007 C 
ENDBRANCH  32  34
ENDBRANCH  26  32
ENDBRANCH   1  29
BRANCH   3  36
ATOM     36  C   UNL     1      -2.645   5.895   7.095  0.00  0.00    -0.018 A 
ATOM     37  C   UNL     1      -3.316   6.323   8.238  0.00  0.00    +0.008 A 
ATOM     38  C   UNL     1      -2.975   7.525   8.826  0.00  0.00    +0.001 A 
ATOM     39  C   UNL     1      -1.977   8.308   8.275  0.00  0.00    +0.000 A 
ATOM     40  C   UNL     1      -1.311   7.891   7.137  0.00  0.00    +0.001 A 
ATOM     41  C   UNL     1      -1.640   6.688   6.545  0.00  0.00    +0.008 A 
ENDBRANCH   3  36
TORSDOF 8
