REMARK  Name = ZINC63492373
REMARK  11 active torsions:
REMARK  status: ('A' for Active; 'I' for Inactive)
REMARK    1  A    between atoms: C_1  and  C_2
REMARK    2  A    between atoms: C_3  and  O_33
REMARK    3  A    between atoms: C_11  and  C_16
REMARK    4  A    between atoms: C_13  and  C_15
REMARK    5  A    between atoms: C_16  and  C_17
REMARK    6  A    between atoms: C_17  and  C_18
REMARK    7  A    between atoms: N_20  and  C_21
REMARK    8  A    between atoms: C_21  and  C_22
REMARK    9  A    between atoms: C_22  and  C_23
REMARK   10  A    between atoms: O_33  and  C_34
REMARK   11  A    between atoms: C_34  and  C_36
REMARK                            x       y       z     vdW  Elec       q    Type
REMARK                         _______ _______ _______ _____ _____    ______ ____
ROOT
ATOM      1  C   UNL     1      -1.989  -1.918   3.554  0.00  0.00    +0.024 C 
ENDROOT
BRANCH   1  12
ATOM      2  C   UNL     1      -0.115   1.519  -0.003  0.00  0.00    +0.051 C 
ATOM      3  C   UNL     1      -0.046   0.014   0.002  0.00  0.00    +0.034 A 
ATOM      4  C   UNL     1       0.004  -0.679  -1.197  0.00  0.00    +0.138 A 
ATOM      5  C   UNL     1       0.068  -2.065  -1.189  0.00  0.00    +0.047 A 
ATOM      6  C   UNL     1       0.086  -2.747   0.010  0.00  0.00    +0.011 A 
ATOM      7  C   UNL     1       0.038  -2.058   1.212  0.00  0.00    -0.001 A 
ATOM      8  C   UNL     1      -0.028  -0.676   1.208  0.00  0.00    +0.141 A 
ATOM      9  O   UNL     1      -0.092   0.042   2.363  0.00  0.00    -0.425 OA
ATOM     10  C   UNL     1       0.135  -0.614   3.518  0.00  0.00    +0.316 C 
ATOM     11  O   UNL     1       0.785  -0.121   4.409  0.00  0.00    -0.250 OA
ATOM     12  C   UNL     1      -0.464  -2.001   3.646  0.00  0.00    +0.106 C 
ATOM     13  C   UNL     1       0.070  -2.850   2.494  0.00  0.00    +0.033 C 
ATOM     14  C   UNL     1      -0.784  -4.109   2.337  0.00  0.00    +0.013 C 
BRANCH   4  15
ATOM     15  O   UNL     1      -0.011  -0.003  -2.376  0.00  0.00    -0.426 OA
BRANCH  15  16
ATOM     16  C   UNL     1       1.147   0.510  -2.823  0.00  0.00    +0.309 C 
ATOM     17  O   UNL     1       2.177   0.280  -2.235  0.00  0.00    -0.251 OA
ATOM     18  C   UNL     1       1.162   1.373  -4.059  0.00  0.00    +0.136 C 
ENDBRANCH  15  16
ENDBRANCH   4  15
ENDBRANCH   1  12
BRANCH   1  19
ATOM     19  C   UNL     1      -2.530  -1.135   4.752  0.00  0.00    +0.096 C 
BRANCH  19  20
ATOM     20  C   UNL     1      -4.032  -1.054   4.662  0.00  0.00    +0.213 C 
ATOM     21  O   UNL     1      -4.613  -1.571   3.731  0.00  0.00    -0.276 OA
ATOM     22  N   UNL     1      -4.731  -0.406   5.615  0.00  0.00    -0.315 N 
ATOM     23  H   UNL     1      -4.267   0.007   6.360  0.00  0.00    +0.149 HD
BRANCH  22  24
ATOM     24  C   UNL     1      -6.191  -0.327   5.527  0.00  0.00    +0.108 C 
BRANCH  24  25
ATOM     25  C   UNL     1      -6.733   0.456   6.725  0.00  0.00    +0.052 C 
BRANCH  25  26
ATOM     26  C   UNL     1      -8.235   0.537   6.634  0.00  0.00    -0.040 C 
ATOM     27  C   UNL     1      -9.131  -0.282   7.231  0.00  0.00    +0.000 A 
ATOM     28  C   UNL     1      -8.981  -1.449   8.107  0.00  0.00    +0.030 A 
ATOM     29  C   UNL     1     -10.091  -2.079   8.557  0.00  0.00    +0.042 A 
ATOM     30  C   UNL     1     -11.378  -1.645   8.206  0.00  0.00    +0.022 A 
ATOM     31  C   UNL     1     -11.595  -0.581   7.405  0.00  0.00    +0.027 A 
ATOM     32  C   UNL     1     -10.500   0.156   6.875  0.00  0.00    +0.043 A 
ATOM     33  N   UNL     1     -10.452   1.205   6.090  0.00  0.00    -0.380 N 
ATOM     34  C   UNL     1      -9.045   1.556   5.864  0.00  0.00    +0.144 C 
ATOM     35 CL   UNL     1      -9.918  -3.460   9.594  0.00  0.00    -0.084 Cl
ATOM     36  H   UNL     1     -11.218   1.673   5.724  0.00  0.00    +0.160 HD
ENDBRANCH  25  26
ENDBRANCH  24  25
ENDBRANCH  22  24
ENDBRANCH  19  20
ENDBRANCH   1  19
TORSDOF 8
