REMARK  Name = ZINC09227638
REMARK  10 active torsions:
REMARK  status: ('A' for Active; 'I' for Inactive)
REMARK    1  A    between atoms: C_1  and  C_2
REMARK    2  A    between atoms: C_5  and  S_8
REMARK    3  A    between atoms: S_8  and  N_11
REMARK    4  A    between atoms: C_15  and  C_17
REMARK    5  A    between atoms: C_17  and  C_18
REMARK    6  A    between atoms: C_17  and  C_19
REMARK    7  A    between atoms: C_20  and  C_22
REMARK    8  A    between atoms: C_22  and  S_23
REMARK    9  A    between atoms: S_23  and  C_24
REMARK   10  A    between atoms: N_28  and  C_29
REMARK                            x       y       z     vdW  Elec       q    Type
REMARK                         _______ _______ _______ _____ _____    ______ ____
ROOT
ATOM      1  N   UNL     1      -1.866  -7.466  -0.503  0.00  0.00    -0.154 NA
ATOM      2  C   UNL     1      -2.796  -6.370  -0.824  0.00  0.00    +0.130 C 
ATOM      3  C   UNL     1      -2.261  -5.152  -0.045  0.00  0.00    +0.126 C 
ATOM      4  N   UNL     1      -0.811  -5.404   0.066  0.00  0.00    -0.282 N 
ATOM      5  C   UNL     1      -0.644  -6.864   0.041  0.00  0.00    +0.170 C 
ATOM      6  C   UNL     1       0.165  -4.481   0.165  0.00  0.00    +0.227 C 
ATOM      7  O   UNL     1       1.324  -4.830   0.250  0.00  0.00    -0.275 OA
ENDROOT
BRANCH   1   8
ATOM      8  S   UNL     1      -2.147  -9.083  -0.724  0.00  0.00    +0.063 S 
ATOM      9  O   UNL     1      -1.200  -9.773   0.081  0.00  0.00    -0.153 OA
ATOM     10  O   UNL     1      -3.548  -9.274  -0.585  0.00  0.00    -0.153 OA
BRANCH   8  15
ATOM     11  C   UNL     1      -0.792 -10.363  -6.462  0.00  0.00    +0.044 C 
ATOM     12  C   UNL     1      -1.130 -10.044  -5.029  0.00  0.00    -0.050 A 
ATOM     13  C   UNL     1      -0.157 -10.136  -4.051  0.00  0.00    +0.005 A 
ATOM     14  C   UNL     1      -0.467  -9.843  -2.737  0.00  0.00    +0.029 A 
ATOM     15  C   UNL     1      -1.751  -9.457  -2.399  0.00  0.00    +0.106 A 
ATOM     16  C   UNL     1      -2.726  -9.369  -3.376  0.00  0.00    +0.029 A 
ATOM     17  C   UNL     1      -2.414  -9.659  -4.691  0.00  0.00    +0.005 A 
ENDBRANCH   8  15
ENDBRANCH   1   8
BRANCH   5  18
ATOM     18  C   UNL     1      -0.410  -7.380   1.462  0.00  0.00    +0.020 C 
ATOM     19  C   UNL     1       0.867  -6.755   2.027  0.00  0.00    +0.010 C 
ATOM     20  C   UNL     1      -1.599  -7.000   2.346  0.00  0.00    +0.010 C 
ENDBRANCH   5  18
BRANCH   6  21
ATOM     21  C   UNL     1      -0.182  -3.014   0.170  0.00  0.00    +0.173 C 
BRANCH  21  22
ATOM     22  S   UNL     1       1.333  -2.035   0.314  0.00  0.00    -0.075 S 
BRANCH  22  23
ATOM     23  C   UNL     1       0.651  -0.411   0.295  0.00  0.00    +0.210 A 
ATOM     24  N   UNL     1      -0.623  -0.099   0.200  0.00  0.00    -0.102 NA
ATOM     25  N   UNL     1      -0.777   1.175   0.216  0.00  0.00    -0.022 NA
ATOM     26  N   UNL     1       0.365   1.763   0.321  0.00  0.00    -0.043 NA
ATOM     27  N   UNL     1       1.340   0.752   0.377  0.00  0.00    -0.223 N 
ATOM     28  C   UNL     1       2.790   0.920   0.497  0.00  0.00    +0.177 C 
ENDBRANCH  22  23
ENDBRANCH  21  22
ENDBRANCH   6  21
TORSDOF 6
