REMARK  Name = ZINC09359726
REMARK  14 active torsions:
REMARK  status: ('A' for Active; 'I' for Inactive)
REMARK    1  A    between atoms: C_1  and  C_2
REMARK    2  A    between atoms: C_5  and  C_8
REMARK    3  A    between atoms: C_10  and  C_20
REMARK    4  A    between atoms: C_11  and  O_19
REMARK    5  A    between atoms: N_14  and  C_15
REMARK    6  A    between atoms: C_15  and  C_16
REMARK    7  A    between atoms: C_16  and  N_68
REMARK    8  A    between atoms: C_17  and  N_68
REMARK    9  A    between atoms: C_18  and  N_68
REMARK   10  A    between atoms: C_20  and  C_22
REMARK   11  A    between atoms: C_25  and  O_29
REMARK   12  A    between atoms: C_27  and  C_28
REMARK   13  A    between atoms: O_29  and  C_30
REMARK   14  A    between atoms: C_30  and  C_31
REMARK                            x       y       z     vdW  Elec       q    Type
REMARK                         _______ _______ _______ _____ _____    ______ ____
ROOT
ATOM      1  C   UNL     1      -0.407  -1.866  -3.969  0.00  0.00    +0.144 C 
ATOM      2  C   UNL     1      -0.143  -0.400  -3.712  0.00  0.00    +0.071 C 
ATOM      3  C   UNL     1      -0.065   0.200  -4.922  0.00  0.00    +0.188 C 
ATOM      4  C   UNL     1      -0.274  -0.810  -5.981  0.00  0.00    +0.282 C 
ATOM      5  O   UNL     1      -0.262  -0.583  -7.174  0.00  0.00    -0.267 OA
ATOM      6  N   UNL     1      -0.478  -2.019  -5.427  0.00  0.00    -0.285 N 
ENDROOT
BRANCH   1  11
ATOM      7  C   UNL     1      -5.428  -3.429  -1.572  0.00  0.00    +0.044 C 
ATOM      8  C   UNL     1      -4.119  -3.021  -2.197  0.00  0.00    -0.050 A 
ATOM      9  C   UNL     1      -2.926  -3.435  -1.635  0.00  0.00    +0.004 A 
ATOM     10  C   UNL     1      -1.725  -3.062  -2.208  0.00  0.00    +0.006 A 
ATOM     11  C   UNL     1      -1.717  -2.273  -3.344  0.00  0.00    -0.022 A 
ATOM     12  C   UNL     1      -2.910  -1.854  -3.903  0.00  0.00    +0.006 A 
ATOM     13  C   UNL     1      -4.111  -2.232  -3.332  0.00  0.00    +0.004 A 
ENDBRANCH   1  11
BRANCH   3  14
ATOM     14  O   UNL     1       0.168   1.517  -5.131  0.00  0.00    -0.502 OA
ATOM     15  H   UNL     1       0.177   1.702  -6.113  0.00  0.00    +0.292 HD
ENDBRANCH   3  14
BRANCH   2  16
ATOM     16  C   UNL     1       0.006   0.245  -2.404  0.00  0.00    +0.195 C 
ATOM     17  O   UNL     1       0.121   1.455  -2.332  0.00  0.00    -0.287 OA
BRANCH  16  18
ATOM     18  C   UNL     1       0.017  -0.572  -1.175  0.00  0.00    +0.025 A 
ATOM     19  C   UNL     1      -1.105  -0.598  -0.341  0.00  0.00    +0.015 A 
ATOM     20  C   UNL     1      -1.089  -1.357   0.808  0.00  0.00    +0.046 A 
ATOM     21  C   UNL     1       0.040  -2.100   1.136  0.00  0.00    +0.121 A 
ATOM     22  C   UNL     1       1.155  -2.081   0.307  0.00  0.00    +0.049 A 
ATOM     23  C   UNL     1       1.147  -1.325  -0.844  0.00  0.00    -0.036 A 
ATOM     24  C   UNL     1       2.357  -1.304  -1.741  0.00  0.00    +0.044 C 
BRANCH  21  25
ATOM     25  O   UNL     1       0.051  -2.847   2.269  0.00  0.00    -0.487 OA
BRANCH  25  26
ATOM     26  C   UNL     1      -1.128  -2.822   3.075  0.00  0.00    +0.264 C 
BRANCH  26  27
ATOM     27  C   UNL     1      -0.931  -3.703   4.282  0.00  0.00    -0.010 A 
ATOM     28  C   UNL     1      -1.283  -5.039   4.226  0.00  0.00    +0.007 A 
ATOM     29  C   UNL     1      -1.098  -5.849   5.331  0.00  0.00    +0.000 A 
ATOM     30  C   UNL     1      -0.570  -5.321   6.495  0.00  0.00    +0.000 A 
ATOM     31  C   UNL     1      -0.223  -3.984   6.552  0.00  0.00    +0.000 A 
ATOM     32  C   UNL     1      -0.404  -3.175   5.445  0.00  0.00    +0.007 A 
ENDBRANCH  26  27
ENDBRANCH  25  26
ENDBRANCH  21  25
ENDBRANCH  16  18
ENDBRANCH   2  16
BRANCH   6  33
ATOM     33  C   UNL     1      -0.723  -3.269  -6.151  0.00  0.00    +0.090 C 
BRANCH  33  34
ATOM     34  C   UNL     1       0.611  -3.961  -6.439  0.00  0.00    -0.060 C 
BRANCH  34  37
ATOM     35  C   UNL     1       1.623  -5.787  -7.666  0.00  0.00    -0.097 C 
ATOM     36  C   UNL     1      -0.354  -6.179  -6.323  0.00  0.00    -0.097 C 
ATOM     37  N   UNL     1       0.349  -5.208  -7.188  0.00  0.00    +0.377 N 
ATOM     38  H   UNL     1      -0.244  -4.993  -7.998  0.00  0.00    -0.083 HD
ENDBRANCH  34  37
ENDBRANCH  33  34
ENDBRANCH   6  33
TORSDOF 10
