REMARK  Name = ZINC63696355
REMARK  9 active torsions:
REMARK  status: ('A' for Active; 'I' for Inactive)
REMARK    1  A    between atoms: C_1  and  C_2
REMARK    2  A    between atoms: C_2  and  C_3
REMARK    3  A    between atoms: C_3  and  S_4
REMARK    4  A    between atoms: S_4  and  C_5
REMARK    5  A    between atoms: C_5  and  C_6
REMARK    6  A    between atoms: C_6  and  C_7
REMARK    7  A    between atoms: C_7  and  N_8
REMARK    8  A    between atoms: C_9  and  C_11
REMARK    9  A    between atoms: N_16  and  C_18
REMARK                            x       y       z     vdW  Elec       q    Type
REMARK                         _______ _______ _______ _____ _____    ______ ____
ROOT
ATOM      1  C   UNL     1      -6.229  -8.264   0.017  0.00  0.00    +0.089 C 
ATOM      2  C   UNL     1      -5.541  -8.839   1.258  0.00  0.00    +0.015 C 
ATOM      3  C   UNL     1      -5.723 -10.359   1.275  0.00  0.00    +0.016 C 
ATOM      4  C   UNL     1      -7.217 -10.689   1.253  0.00  0.00    +0.088 C 
ATOM      5  N   UNL     1      -7.829 -10.118   0.047  0.00  0.00    -0.265 NA
ATOM      6  C   UNL     1      -7.708  -8.655   0.031  0.00  0.00    +0.100 C 
ENDROOT
BRANCH   5   7
ATOM      7  C   UNL     1      -9.233 -10.532  -0.078  0.00  0.00    +0.252 C 
ATOM      8  N   UNL     1     -10.052  -9.844   0.927  0.00  0.00    -0.351 N 
ATOM      9  C   UNL     1     -10.940  -9.137   0.290  0.00  0.00    +0.061 A 
ATOM     10  C   UNL     1     -12.021  -8.249   0.740  0.00  0.00    +0.027 A 
ATOM     11  C   UNL     1     -12.801  -7.636  -0.172  0.00  0.00    +0.002 A 
ATOM     12  C   UNL     1     -12.628  -7.808  -1.557  0.00  0.00    +0.002 A 
ATOM     13  C   UNL     1     -11.668  -8.600  -2.076  0.00  0.00    +0.027 A 
ATOM     14  C   UNL     1     -10.756  -9.319  -1.176  0.00  0.00    +0.061 A 
ATOM     15  N   UNL     1      -9.761 -10.132  -1.388  0.00  0.00    -0.351 N 
ATOM     16  H   UNL     1      -9.951  -9.906   1.890  0.00  0.00    +0.163 HD
ATOM     17  H   UNL     1      -9.430 -10.419  -2.253  0.00  0.00    +0.163 HD
ENDBRANCH   5   7
BRANCH   1  19
ATOM     18  N   UNL     1      -4.887  -6.185   0.015  0.00  0.00    -0.315 N 
ATOM     19  C   UNL     1      -6.105  -6.762   0.024  0.00  0.00    +0.217 C 
ATOM     20  O   UNL     1      -7.103  -6.071   0.037  0.00  0.00    -0.275 OA
ATOM     21  H   UNL     1      -4.090  -6.737   0.005  0.00  0.00    +0.149 HD
BRANCH  18  22
ATOM     22  C   UNL     1      -4.767  -4.725   0.022  0.00  0.00    +0.105 C 
BRANCH  22  23
ATOM     23  C   UNL     1      -3.288  -4.335   0.010  0.00  0.00    +0.029 C 
BRANCH  23  24
ATOM     24  C   UNL     1      -3.163  -2.810   0.017  0.00  0.00    +0.070 C 
BRANCH  24  25
ATOM     25  S   UNL     1      -1.409  -2.348   0.003  0.00  0.00    -0.161 S 
BRANCH  25  26
ATOM     26  C   UNL     1      -1.433  -0.534   0.013  0.00  0.00    +0.069 C 
BRANCH  26  28
ATOM     27  C   UNL     1      -0.019   1.526   0.010  0.00  0.00    +0.004 C 
ATOM     28  C   UNL     1       0.002  -0.004   0.002  0.00  0.00    +0.007 C 
ENDBRANCH  26  28
ENDBRANCH  25  26
ENDBRANCH  24  25
ENDBRANCH  23  24
ENDBRANCH  22  23
ENDBRANCH  18  22
ENDBRANCH   1  19
TORSDOF 8
