REMARK  Name = ZINC39927130
REMARK  4 active torsions:
REMARK  status: ('A' for Active; 'I' for Inactive)
REMARK    1  A    between atoms: C_9  and  N_12
REMARK    2  A    between atoms: C_13  and  C_15
REMARK    3  A    between atoms: C_18  and  C_20
REMARK    4  A    between atoms: C_25  and  O_26
REMARK                            x       y       z     vdW  Elec       q    Type
REMARK                         _______ _______ _______ _____ _____    ______ ____
ROOT
ATOM      1  N   UNL     1       5.659   1.488   1.161  0.00  0.00    -0.283 N 
ATOM      2  C   UNL     1       6.883   0.933   1.255  0.00  0.00    +0.262 C 
ATOM      3  O   UNL     1       7.315   0.252   0.343  0.00  0.00    -0.269 OA
ATOM      4  H   UNL     1       5.315   2.030   1.888  0.00  0.00    +0.152 HD
ENDROOT
BRANCH   1  13
ATOM      5  C   UNL     1      -0.017   1.380   0.010  0.00  0.00    +0.040 A 
ATOM      6  C   UNL     1       1.152   2.106   0.002  0.00  0.00    +0.027 A 
ATOM      7  C   UNL     1       2.405   1.470  -0.013  0.00  0.00    +0.043 A 
ATOM      8  C   UNL     1       2.392   0.071  -0.021  0.00  0.00    +0.035 A 
ATOM      9  C   UNL     1       1.225  -0.658  -0.014  0.00  0.00    +0.055 A 
ATOM     10  C   UNL     1       0.002  -0.004   0.002  0.00  0.00    +0.125 A 
ATOM     11  F   UNL     1      -1.152  -0.706   0.009  0.00  0.00    -0.205 F 
ATOM     12  S   UNL     1       4.104  -0.410  -0.041  0.00  0.00    -0.082 S 
ATOM     13  C   UNL     1       4.847   1.271  -0.039  0.00  0.00    +0.224 C 
ATOM     14  N   UNL     1       3.643   2.114  -0.022  0.00  0.00    -0.316 N 
ATOM     15  H   UNL     1       3.707   3.082  -0.018  0.00  0.00    +0.149 HD
ENDBRANCH   1  13
BRANCH   2  16
ATOM     16  C   UNL     1       7.696   1.149   2.455  0.00  0.00    +0.131 C 
ATOM     17  N   UNL     1       7.379   1.843   3.517  0.00  0.00    -0.148 NA
ATOM     18  N   UNL     1       8.278   1.866   4.421  0.00  0.00    -0.153 NA
ATOM     19  C   UNL     1       9.362   1.186   4.120  0.00  0.00    +0.080 C 
ATOM     20  C   UNL     1       9.088   0.610   2.740  0.00  0.00    +0.120 C 
BRANCH  19  21
ATOM     21  C   UNL     1      10.566   1.017   4.936  0.00  0.00    +0.041 A 
ATOM     22  C   UNL     1      11.643   0.258   4.457  0.00  0.00    +0.033 A 
ATOM     23  C   UNL     1      12.771   0.103   5.231  0.00  0.00    +0.042 A 
ATOM     24  C   UNL     1      12.848   0.696   6.484  0.00  0.00    +0.023 A 
ATOM     25  C   UNL     1      11.795   1.447   6.969  0.00  0.00    +0.047 A 
ATOM     26  C   UNL     1      10.652   1.620   6.204  0.00  0.00    +0.126 A 
ATOM     27 CL   UNL     1      14.104  -0.837   4.637  0.00  0.00    -0.084 Cl
BRANCH  26  28
ATOM     28  O   UNL     1       9.621   2.362   6.678  0.00  0.00    -0.506 OA
ATOM     29  H   UNL     1       8.970   1.854   7.183  0.00  0.00    +0.292 HD
ENDBRANCH  26  28
ENDBRANCH  19  21
ENDBRANCH   2  16
TORSDOF 4
