REMARK  Name = ZINC59331892
REMARK  9 active torsions:
REMARK  status: ('A' for Active; 'I' for Inactive)
REMARK    1  A    between atoms: C_1  and  C_2
REMARK    2  A    between atoms: C_2  and  C_3
REMARK    3  A    between atoms: C_2  and  C_4
REMARK    4  A    between atoms: C_2  and  C_5
REMARK    5  A    between atoms: C_12  and  N_17
REMARK    6  A    between atoms: C_13  and  C_14
REMARK    7  A    between atoms: C_18  and  C_20
REMARK    8  A    between atoms: C_21  and  C_22
REMARK    9  A    between atoms: C_25  and  C_27
REMARK                            x       y       z     vdW  Elec       q    Type
REMARK                         _______ _______ _______ _____ _____    ______ ____
ROOT
ATOM      1  N   UNL     1       5.250  -0.618  -5.725  0.00  0.00    -0.276 N 
ATOM      2  C   UNL     1       6.537  -0.410  -5.386  0.00  0.00    +0.242 C 
ATOM      3  O   UNL     1       6.826  -0.127  -4.237  0.00  0.00    -0.270 OA
ATOM      4  H   UNL     1       5.020  -0.843  -6.640  0.00  0.00    +0.156 HD
ENDROOT
BRANCH   1  11
ATOM      5  C   UNL     1       0.718  -0.497  -1.257  0.00  0.00    -0.000 C 
ATOM      6  C   UNL     1      -0.017   0.013  -2.499  0.00  0.00    +0.009 C 
ATOM      7  C   UNL     1       0.538  -0.670  -3.751  0.00  0.00    +0.037 C 
ATOM      8  C   UNL     1       2.052  -0.516  -3.760  0.00  0.00    -0.023 A 
ATOM      9  C   UNL     1       2.731  -0.199  -2.636  0.00  0.00    -0.004 A 
ATOM     10  S   UNL     1       4.426  -0.134  -3.140  0.00  0.00    -0.077 S 
ATOM     11  C   UNL     1       4.255  -0.510  -4.768  0.00  0.00    +0.085 A 
ATOM     12  C   UNL     1       2.890  -0.688  -4.933  0.00  0.00    +0.068 A 
ATOM     13  C   UNL     1       2.158   0.038  -1.273  0.00  0.00    +0.046 C 
BRANCH  12  14
ATOM     14  C   UNL     1       2.317  -1.034  -6.237  0.00  0.00    +0.244 C 
ATOM     15  O   UNL     1       1.974  -0.153  -7.004  0.00  0.00    -0.270 OA
ATOM     16  N   UNL     1       2.170  -2.327  -6.587  0.00  0.00    -0.325 N 
ATOM     17  H   UNL     1       2.444  -3.029  -5.976  0.00  0.00    +0.145 HD
ATOM     18  H   UNL     1       1.791  -2.556  -7.450  0.00  0.00    +0.145 HD
ENDBRANCH  12  14
BRANCH   5  20
ATOM     19  C   UNL     1      -0.019   1.526   0.010  0.00  0.00    +0.011 C 
ATOM     20  C   UNL     1       0.002  -0.004   0.002  0.00  0.00    -0.035 C 
ATOM     21  C   UNL     1       0.742  -0.511   1.242  0.00  0.00    +0.011 C 
ATOM     22  C   UNL     1      -1.433  -0.534   0.013  0.00  0.00    +0.011 C 
ENDBRANCH   5  20
ENDBRANCH   1  11
BRANCH   2  23
ATOM     23  C   UNL     1       7.553  -0.520  -6.363  0.00  0.00    +0.071 C 
ATOM     24  C   UNL     1       8.851  -0.310  -6.021  0.00  0.00    +0.051 C 
BRANCH  24  25
ATOM     25  C   UNL     1       9.865  -0.420  -6.998  0.00  0.00    +0.129 A 
ATOM     26  C   UNL     1      11.219  -0.238  -6.784  0.00  0.00    +0.050 A 
ATOM     27  C   UNL     1      11.853  -0.441  -8.012  0.00  0.00    +0.050 A 
ATOM     28  C   UNL     1      10.869  -0.738  -8.929  0.00  0.00    +0.137 A 
ATOM     29  O   UNL     1       9.681  -0.726  -8.300  0.00  0.00    -0.455 OA
BRANCH  28  30
ATOM     30  C   UNL     1      11.083  -1.026 -10.360  0.00  0.00    +0.036 A 
ATOM     31  C   UNL     1      11.864  -0.169 -11.139  0.00  0.00    +0.014 A 
ATOM     32  C   UNL     1      12.061  -0.444 -12.476  0.00  0.00    +0.021 A 
ATOM     33  C   UNL     1      11.486  -1.568 -13.047  0.00  0.00    +0.042 A 
ATOM     34  C   UNL     1      10.710  -2.422 -12.282  0.00  0.00    +0.040 A 
ATOM     35  C   UNL     1      10.510  -2.162 -10.941  0.00  0.00    +0.053 A 
ATOM     36 CL   UNL     1       9.544  -3.237  -9.981  0.00  0.00    -0.083 Cl
ATOM     37 CL   UNL     1      11.739  -1.906 -14.731  0.00  0.00    -0.083 Cl
ENDBRANCH  28  30
ENDBRANCH  24  25
ENDBRANCH   2  23
TORSDOF 6
