REMARK  Name = ZINC62824105
REMARK  6 active torsions:
REMARK  status: ('A' for Active; 'I' for Inactive)
REMARK    1  A    between atoms: C_1  and  C_2
REMARK    2  A    between atoms: C_3  and  C_21
REMARK    3  A    between atoms: C_5  and  C_20
REMARK    4  A    between atoms: C_6  and  C_7
REMARK    5  A    between atoms: N_9  and  C_10
REMARK    6  A    between atoms: C_15  and  C_16
REMARK                            x       y       z     vdW  Elec       q    Type
REMARK                         _______ _______ _______ _____ _____    ______ ____
ROOT
ATOM      1  C   UNL     1       0.043  -0.517   2.592  0.00  0.00    +0.252 C 
ATOM      2  O   UNL     1      -1.009  -0.356   3.181  0.00  0.00    -0.270 OA
ATOM      3  N   UNL     1       1.211  -0.318   3.234  0.00  0.00    -0.281 N 
ATOM      4  H   UNL     1       2.050  -0.508   2.785  0.00  0.00    +0.155 HD
ENDROOT
BRANCH   1  10
ATOM      5  C   UNL     1       0.014   1.456  -0.014  0.00  0.00    +0.048 C 
ATOM      6  C   UNL     1       0.027  -0.051  -0.003  0.00  0.00    +0.003 A 
ATOM      7  C   UNL     1       0.035  -0.867  -1.068  0.00  0.00    +0.106 A 
ATOM      8  O   UNL     1       0.046  -2.141  -0.647  0.00  0.00    -0.464 OA
ATOM      9  C   UNL     1       0.046  -2.202   0.689  0.00  0.00    +0.115 A 
ATOM     10  C   UNL     1       0.040  -0.928   1.177  0.00  0.00    +0.081 A 
ATOM     11  C   UNL     1       0.057  -3.463   1.514  0.00  0.00    +0.087 C 
ATOM     12  C   UNL     1       0.031  -0.423  -2.509  0.00  0.00    +0.086 C 
ENDBRANCH   1  10
BRANCH   3  13
ATOM     13  C   UNL     1       1.215   0.159   4.540  0.00  0.00    +0.048 A 
ATOM     14  C   UNL     1       0.217  -0.225   5.426  0.00  0.00    +0.025 A 
ATOM     15  C   UNL     1       0.222   0.249   6.722  0.00  0.00    +0.016 A 
ATOM     16  C   UNL     1       1.220   1.112   7.151  0.00  0.00    +0.014 A 
ATOM     17  C   UNL     1       2.219   1.504   6.287  0.00  0.00    +0.031 A 
ATOM     18  C   UNL     1       2.231   1.027   4.972  0.00  0.00    +0.085 A 
ATOM     19  I   UNL     1       1.208   1.821   9.122  0.00  0.00    -0.044 I 
BRANCH  18  20
ATOM     20  C   UNL     1       3.298   1.437   4.046  0.00  0.00    +0.388 C 
ATOM     21  O   UNL     1       4.234   2.113   4.451  0.00  0.00    -0.241 OA
ATOM     22  O   UNL     1       3.250   1.101   2.870  0.00  0.00    -0.241 OA
ENDBRANCH  18  20
ENDBRANCH   3  13
TORSDOF 3
