REMARK  Name = ZINC67128870
REMARK  5 active torsions:
REMARK  status: ('A' for Active; 'I' for Inactive)
REMARK    1  A    between atoms: C_1  and  C_2
REMARK    2  A    between atoms: C_9  and  C_11
REMARK    3  A    between atoms: C_11  and  N_12
REMARK    4  A    between atoms: C_14  and  O_22
REMARK    5  A    between atoms: C_17  and  C_19
REMARK                            x       y       z     vdW  Elec       q    Type
REMARK                         _______ _______ _______ _____ _____    ______ ____
ROOT
ATOM      1  N   UNL     1      -1.311  -1.292   5.279  0.00  0.00    +0.393 N 
ATOM      2  C   UNL     1      -2.057  -2.536   4.989  0.00  0.00    -0.046 C 
ATOM      3  C   UNL     1      -3.009  -2.778   6.175  0.00  0.00    +0.097 C 
ATOM      4  C   UNL     1      -2.732  -1.618   7.159  0.00  0.00    +0.023 C 
ATOM      5  C   UNL     1      -1.308  -1.156   6.758  0.00  0.00    +0.022 C 
ATOM      6  H   UNL     1      -1.775  -0.501   4.857  0.00  0.00    -0.080 HD
ENDROOT
BRANCH   5   7
ATOM      7  C   UNL     1      -1.081   0.278   7.160  0.00  0.00    +0.197 C 
ATOM      8  O   UNL     1      -0.932   1.130   6.309  0.00  0.00    -0.278 OA
ATOM      9  N   UNL     1      -1.044   0.614   8.464  0.00  0.00    -0.331 N 
ATOM     10  H   UNL     1      -1.163  -0.067   9.145  0.00  0.00    +0.145 HD
ATOM     11  H   UNL     1      -0.897   1.538   8.723  0.00  0.00    +0.145 HD
ENDBRANCH   5   7
BRANCH   3  12
ATOM     12  O   UNL     1      -4.368  -2.744   5.735  0.00  0.00    -0.394 OA
ATOM     13  H   UNL     1      -5.013  -2.890   6.440  0.00  0.00    +0.210 HD
ENDBRANCH   3  12
BRANCH   1  14
ATOM     14  C   UNL     1       0.066  -1.399   4.777  0.00  0.00    -0.022 C 
BRANCH  14  23
ATOM     15  C   UNL     1      -0.018   1.503   0.010  0.00  0.00    +0.047 C 
ATOM     16  C   UNL     1       0.002  -0.004   0.002  0.00  0.00    -0.010 A 
ATOM     17  C   UNL     1       0.006  -0.685  -1.176  0.00  0.00    +0.008 A 
ATOM     18  C   UNL     1       0.025  -2.089  -1.168  0.00  0.00    +0.018 A 
ATOM     19  C   UNL     1       0.039  -2.763   0.001  0.00  0.00    +0.092 A 
ATOM     20  N   UNL     1       0.035  -2.093   1.190  0.00  0.00    -0.308 N 
ATOM     21  C   UNL     1       0.023  -0.722   1.214  0.00  0.00    +0.118 A 
ATOM     22  N   UNL     1       0.030  -0.334   2.482  0.00  0.00    -0.345 N 
ATOM     23  C   UNL     1       0.051  -1.412   3.270  0.00  0.00    +0.018 A 
ATOM     24  C   UNL     1       0.046  -2.516   2.491  0.00  0.00    +0.111 A 
ATOM     25  H   UNL     1       0.021   0.586   2.788  0.00  0.00    +0.167 HD
ENDBRANCH  14  23
ENDBRANCH   1  14
TORSDOF 4
