REMARK  Name = ZINC08750503
REMARK  8 active torsions:
REMARK  status: ('A' for Active; 'I' for Inactive)
REMARK    1  A    between atoms: C_1  and  C_2
REMARK    2  A    between atoms: C_2  and  C_3
REMARK    3  A    between atoms: C_2  and  C_4
REMARK    4  A    between atoms: C_4  and  C_6
REMARK    5  A    between atoms: C_4  and  S_12
REMARK    6  A    between atoms: S_12  and  C_13
REMARK    7  A    between atoms: C_16  and  C_25
REMARK    8  A    between atoms: N_17  and  C_18
REMARK                            x       y       z     vdW  Elec       q    Type
REMARK                         _______ _______ _______ _____ _____    ______ ____
ROOT
ATOM      1  C   UNL     1      -5.189   0.796   0.550  0.00  0.00    +0.197 A 
ATOM      2  N   UNL     1      -5.133  -0.453   0.142  0.00  0.00    -0.122 NA
ATOM      3  N   UNL     1      -6.213  -1.071   0.461  0.00  0.00    -0.128 NA
ATOM      4  C   UNL     1      -7.027  -0.258   1.093  0.00  0.00    +0.171 A 
ATOM      5  N   UNL     1      -6.395   0.963   1.175  0.00  0.00    -0.267 N 
ENDROOT
BRANCH   5   6
ATOM      6  C   UNL     1      -6.885   2.134   1.772  0.00  0.00    +0.086 A 
ATOM      7  C   UNL     1      -7.519   3.096   0.999  0.00  0.00    +0.029 A 
ATOM      8  C   UNL     1      -8.001   4.249   1.590  0.00  0.00    +0.002 A 
ATOM      9  C   UNL     1      -7.852   4.445   2.951  0.00  0.00    +0.003 A 
ATOM     10  C   UNL     1      -7.221   3.489   3.725  0.00  0.00    +0.040 A 
ATOM     11  C   UNL     1      -6.741   2.331   3.141  0.00  0.00    +0.147 A 
ATOM     12  F   UNL     1      -6.130   1.394   3.899  0.00  0.00    -0.203 F 
ENDBRANCH   5   6
BRANCH   4  13
ATOM     13  C   UNL     1      -8.367  -0.591   1.623  0.00  0.00    +0.038 A 
ATOM     14  C   UNL     1      -9.448   0.257   1.377  0.00  0.00    +0.013 A 
ATOM     15  C   UNL     1     -10.695  -0.059   1.873  0.00  0.00    +0.001 A 
ATOM     16  C   UNL     1     -10.877  -1.214   2.614  0.00  0.00    +0.001 A 
ATOM     17  C   UNL     1      -9.810  -2.059   2.862  0.00  0.00    +0.021 A 
ATOM     18  C   UNL     1      -8.557  -1.758   2.366  0.00  0.00    +0.052 A 
ATOM     19 CL   UNL     1      -7.221  -2.823   2.671  0.00  0.00    -0.083 Cl
ENDBRANCH   4  13
BRANCH   1  20
ATOM     20  S   UNL     1      -3.942   2.022   0.339  0.00  0.00    -0.073 S 
BRANCH  20  21
ATOM     21  C   UNL     1      -2.695   1.052  -0.545  0.00  0.00    +0.143 C 
BRANCH  21  22
ATOM     22  C   UNL     1      -1.452   1.884  -0.733  0.00  0.00    +0.234 C 
ATOM     23  O   UNL     1      -1.514   3.092  -0.655  0.00  0.00    -0.274 OA
ATOM     24  N   UNL     1      -0.273   1.285  -0.989  0.00  0.00    -0.239 N 
ATOM     25  C   UNL     1       0.838   2.029  -1.163  0.00  0.00    +0.303 C 
ATOM     26  O   UNL     1       0.776   3.240  -1.084  0.00  0.00    -0.253 OA
ATOM     27  N   UNL     1       2.016   1.430  -1.424  0.00  0.00    -0.313 N 
ATOM     28  H   UNL     1      -0.223   0.318  -1.052  0.00  0.00    +0.159 HD
ATOM     29  H   UNL     1       2.066   0.463  -1.487  0.00  0.00    +0.146 HD
ATOM     30  H   UNL     1       2.815   1.965  -1.549  0.00  0.00    +0.146 HD
ENDBRANCH  21  22
BRANCH  21  32
ATOM     31  C   UNL     1      -3.469   1.887  -2.769  0.00  0.00    +0.009 C 
ATOM     32  C   UNL     1      -3.244   0.640  -1.912  0.00  0.00    +0.005 C 
ATOM     33  C   UNL     1      -2.241  -0.283  -2.608  0.00  0.00    +0.009 C 
ENDBRANCH  21  32
ENDBRANCH  20  21
ENDBRANCH   1  20
TORSDOF 6
