REMARK  Name = ZINC13755986
REMARK  13 active torsions:
REMARK  status: ('A' for Active; 'I' for Inactive)
REMARK    1  A    between atoms: C_1  and  C_2
REMARK    2  A    between atoms: C_2  and  O_3
REMARK    3  A    between atoms: O_3  and  C_4
REMARK    4  A    between atoms: C_6  and  C_11
REMARK    5  A    between atoms: C_9  and  O_10
REMARK    6  A    between atoms: C_17  and  C_35
REMARK    7  A    between atoms: C_18  and  C_25
REMARK    8  A    between atoms: C_20  and  C_23
REMARK    9  A    between atoms: C_21  and  N_22
REMARK   10  A    between atoms: C_28  and  O_34
REMARK   11  A    between atoms: C_29  and  O_31
REMARK   12  A    between atoms: O_31  and  C_32
REMARK   13  A    between atoms: C_32  and  C_33
REMARK                            x       y       z     vdW  Elec       q    Type
REMARK                         _______ _______ _______ _____ _____    ______ ____
ROOT
ATOM      1  C   UNL     1      -2.832   0.855   0.128  0.00  0.00    +0.028 C 
ATOM      2  C   UNL     1      -1.661   1.502   0.361  0.00  0.00    +0.080 A 
ATOM      3  C   UNL     1      -0.416   0.993   0.946  0.00  0.00    +0.271 A 
ATOM      4  O   UNL     1      -0.326  -0.166   1.305  0.00  0.00    -0.266 OA
ATOM      5  N   UNL     1       0.627   1.838   1.072  0.00  0.00    -0.256 N 
ATOM      6  C   UNL     1       0.453   3.140   0.644  0.00  0.00    +0.104 A 
ATOM      7  C   UNL     1       1.409   4.101   0.708  0.00  0.00    +0.072 C 
ATOM      8  C   UNL     1       2.761   3.733   1.285  0.00  0.00    +0.106 C 
ATOM      9  C   UNL     1       2.912   2.296   1.742  0.00  0.00    +0.080 C 
ATOM     10  C   UNL     1       1.861   1.458   1.611  0.00  0.00    +0.119 C 
ATOM     11  S   UNL     1      -1.223   3.204   0.041  0.00  0.00    -0.065 S 
ENDROOT
BRANCH   1  14
ATOM     12  C   UNL     1      -4.116  -2.545   1.052  0.00  0.00    +0.162 A 
ATOM     13  C   UNL     1      -4.045  -1.175   0.892  0.00  0.00    +0.057 A 
ATOM     14  C   UNL     1      -2.913  -0.600   0.301  0.00  0.00    -0.020 A 
ATOM     15  C   UNL     1      -1.862  -1.419  -0.129  0.00  0.00    +0.012 A 
ATOM     16  C   UNL     1      -1.940  -2.784   0.039  0.00  0.00    +0.050 A 
ATOM     17  C   UNL     1      -3.062  -3.352   0.626  0.00  0.00    +0.158 A 
BRANCH  17  18
ATOM     18  O   UNL     1      -3.135  -4.700   0.784  0.00  0.00    -0.503 OA
ATOM     19  H   UNL     1      -3.534  -5.163   0.035  0.00  0.00    +0.292 HD
ENDBRANCH  17  18
BRANCH  12  20
ATOM     20  O   UNL     1      -5.213  -3.106   1.626  0.00  0.00    -0.489 OA
BRANCH  20  22
ATOM     21  C   UNL     1      -7.398  -3.028   2.657  0.00  0.00    +0.048 C 
ATOM     22  C   UNL     1      -6.255  -2.220   2.039  0.00  0.00    +0.226 C 
ENDBRANCH  20  22
ENDBRANCH  12  20
ENDBRANCH   1  14
BRANCH   8  23
ATOM     23  C   UNL     1       3.033   4.634   2.462  0.00  0.00    -0.030 A 
ATOM     24  C   UNL     1       2.249   4.541   3.597  0.00  0.00    +0.008 A 
ATOM     25  C   UNL     1       2.494   5.365   4.679  0.00  0.00    +0.049 A 
ATOM     26  C   UNL     1       3.527   6.287   4.628  0.00  0.00    +0.158 A 
ATOM     27  C   UNL     1       4.316   6.381   3.486  0.00  0.00    +0.162 A 
ATOM     28  C   UNL     1       4.068   5.548   2.406  0.00  0.00    +0.054 A 
BRANCH  26  29
ATOM     29  O   UNL     1       3.770   7.098   5.692  0.00  0.00    -0.503 OA
ATOM     30  H   UNL     1       4.394   6.731   6.333  0.00  0.00    +0.292 HD
ENDBRANCH  26  29
BRANCH  27  31
ATOM     31  O   UNL     1       5.331   7.284   3.431  0.00  0.00    -0.489 OA
BRANCH  31  32
ATOM     32  C   UNL     1       6.099   7.324   2.226  0.00  0.00    +0.226 C 
ATOM     33  C   UNL     1       7.187   8.393   2.350  0.00  0.00    +0.048 C 
ENDBRANCH  31  32
ENDBRANCH  27  31
ENDBRANCH   8  23
BRANCH  10  34
ATOM     34  N   UNL     1       2.013   0.158   2.030  0.00  0.00    -0.343 N 
ATOM     35  H   UNL     1       2.872  -0.283   1.941  0.00  0.00    +0.144 HD
ATOM     36  H   UNL     1       1.261  -0.318   2.416  0.00  0.00    +0.144 HD
ENDBRANCH  10  34
BRANCH   9  37
ATOM     37  C   UNL     1       4.147   1.837   2.304  0.00  0.00    +0.099 C 
ATOM     38  N   UNL     1       5.126   1.472   2.750  0.00  0.00    -0.191 NA
ENDBRANCH   9  37
BRANCH   7  39
ATOM     39  C   UNL     1       1.146   5.429   0.241  0.00  0.00    +0.098 C 
ATOM     40  N   UNL     1       0.938   6.483  -0.129  0.00  0.00    -0.191 NA
ENDBRANCH   7  39
TORSDOF 11
