REMARK  Name = ZINC24275657
REMARK  9 active torsions:
REMARK  status: ('A' for Active; 'I' for Inactive)
REMARK    1  A    between atoms: C_1  and  C_2
REMARK    2  A    between atoms: C_8  and  N_10
REMARK    3  A    between atoms: C_11  and  C_13
REMARK    4  A    between atoms: C_13  and  S_14
REMARK    5  A    between atoms: S_14  and  C_15
REMARK    6  A    between atoms: C_18  and  S_21
REMARK    7  A    between atoms: N_19  and  N_20
REMARK    8  A    between atoms: S_21  and  C_22
REMARK    9  A    between atoms: C_22  and  C_23
REMARK                            x       y       z     vdW  Elec       q    Type
REMARK                         _______ _______ _______ _____ _____    ______ ____
ROOT
ATOM      1  C   UNL     1       2.327  -4.910   4.006  0.00  0.00    +0.209 A 
ATOM      2  N   UNL     1       1.401  -5.585   3.369  0.00  0.00    -0.120 NA
ATOM      3  N   UNL     1       1.674  -6.950   3.528  0.00  0.00    -0.120 NA
ATOM      4  C   UNL     1       2.751  -7.064   4.266  0.00  0.00    +0.209 A 
ATOM      5  N   UNL     1       3.183  -5.806   4.581  0.00  0.00    -0.219 N 
ENDROOT
BRANCH   5   6
ATOM      6  N   UNL     1       4.279  -5.500   5.337  0.00  0.00    -0.294 N 
ATOM      7  H   UNL     1       4.903  -6.304   5.753  0.00  0.00    +0.163 HD
ATOM      8  H   UNL     1       4.537  -4.448   5.530  0.00  0.00    +0.163 HD
ENDBRANCH   5   6
BRANCH   1   9
ATOM      9  S   UNL     1       2.441  -3.155   4.111  0.00  0.00    -0.075 S 
BRANCH   9  10
ATOM     10  C   UNL     1       1.023  -2.564   3.147  0.00  0.00    +0.173 C 
BRANCH  10  12
ATOM     11  N   UNL     1       0.031  -0.392   2.498  0.00  0.00    -0.312 N 
ATOM     12  C   UNL     1       1.002  -1.057   3.155  0.00  0.00    +0.224 C 
ATOM     13  O   UNL     1       1.860  -0.442   3.752  0.00  0.00    -0.275 OA
ATOM     14  H   UNL     1      -0.747  -0.950   1.956  0.00  0.00    +0.149 HD
BRANCH  11  21
ATOM     15  C   UNL     1      -0.013   1.086   0.008  0.00  0.00    +0.009 C 
ATOM     16  C   UNL     1      -0.729   1.579   1.267  0.00  0.00    +0.006 C 
ATOM     17  C   UNL     1      -2.164   1.050   1.278  0.00  0.00    +0.005 C 
ATOM     18  C   UNL     1      -2.880   1.543   2.537  0.00  0.00    +0.000 C 
ATOM     19  C   UNL     1      -2.140   1.036   3.776  0.00  0.00    +0.002 C 
ATOM     20  C   UNL     1      -0.705   1.566   3.765  0.00  0.00    +0.022 C 
ATOM     21  C   UNL     1       0.011   1.072   2.506  0.00  0.00    +0.076 C 
ENDBRANCH  11  21
ENDBRANCH  10  12
ENDBRANCH   9  10
ENDBRANCH   1   9
BRANCH   4  22
ATOM     22  S   UNL     1       3.510  -8.575   4.763  0.00  0.00    -0.080 S 
BRANCH  22  23
ATOM     23  C   UNL     1       2.460  -9.857   4.025  0.00  0.00    +0.112 C 
BRANCH  23  24
ATOM     24  C   UNL     1       3.005 -11.217   4.378  0.00  0.00    -0.037 A 
ATOM     25  C   UNL     1       3.927 -11.829   3.550  0.00  0.00    +0.004 A 
ATOM     26  C   UNL     1       4.431 -13.074   3.877  0.00  0.00    +0.000 A 
ATOM     27  C   UNL     1       4.003 -13.712   5.026  0.00  0.00    +0.000 A 
ATOM     28  C   UNL     1       3.076 -13.103   5.851  0.00  0.00    +0.000 A 
ATOM     29  C   UNL     1       2.577 -11.855   5.527  0.00  0.00    +0.004 A 
ENDBRANCH  23  24
ENDBRANCH  22  23
ENDBRANCH   4  22
TORSDOF 8
