REMARK  Name = ZINC22323834
REMARK  8 active torsions:
REMARK  status: ('A' for Active; 'I' for Inactive)
REMARK    1  A    between atoms: C_1  and  C_2
REMARK    2  A    between atoms: C_2  and  C_4
REMARK    3  A    between atoms: C_2  and  S_7
REMARK    4  A    between atoms: S_7  and  C_8
REMARK    5  A    between atoms: N_18  and  C_19
REMARK    6  A    between atoms: C_19  and  C_20
REMARK    7  A    between atoms: C_20  and  C_21
REMARK    8  A    between atoms: C_20  and  C_22
REMARK                            x       y       z     vdW  Elec       q    Type
REMARK                         _______ _______ _______ _____ _____    ______ ____
ROOT
ATOM      1  C   UNL     1      -2.365  -0.093  -1.525  0.00  0.00    +0.173 A 
ATOM      2  N   UNL     1      -1.593   0.592  -2.333  0.00  0.00    -0.223 NA
ATOM      3  C   UNL     1      -2.040   1.036  -3.532  0.00  0.00    +0.079 A 
ATOM      4  C   UNL     1      -1.217   1.766  -4.394  0.00  0.00    +0.029 A 
ATOM      5  C   UNL     1      -1.704   2.196  -5.595  0.00  0.00    +0.017 A 
ATOM      6  C   UNL     1      -3.012   1.919  -5.978  0.00  0.00    +0.019 A 
ATOM      7  C   UNL     1      -3.847   1.201  -5.149  0.00  0.00    +0.030 A 
ATOM      8  C   UNL     1      -3.369   0.752  -3.918  0.00  0.00    +0.066 A 
ATOM      9  C   UNL     1      -4.212  -0.018  -2.993  0.00  0.00    +0.262 A 
ATOM     10  O   UNL     1      -5.365  -0.293  -3.270  0.00  0.00    -0.267 OA
ATOM     11  N   UNL     1      -3.658  -0.414  -1.824  0.00  0.00    -0.287 N 
ATOM     12 BR   UNL     1      -3.650   2.532  -7.649  0.00  0.00    -0.050 Br
ENDROOT
BRANCH   1  13
ATOM     13  S   UNL     1      -1.700  -0.632   0.015  0.00  0.00    -0.075 S 
BRANCH  13  15
ATOM     14  C   UNL     1      -0.019   1.526   0.010  0.00  0.00    +0.029 C 
ATOM     15  C   UNL     1       0.002  -0.004   0.002  0.00  0.00    +0.137 C 
BRANCH  15  16
ATOM     16  C   UNL     1       0.731  -0.503   1.223  0.00  0.00    +0.224 C 
ATOM     17  O   UNL     1       0.105  -0.891   2.187  0.00  0.00    -0.275 OA
ATOM     18  N   UNL     1       2.079  -0.519   1.244  0.00  0.00    -0.328 N 
ATOM     19  H   UNL     1       2.579  -0.208   0.473  0.00  0.00    +0.145 HD
ATOM     20  H   UNL     1       2.548  -0.840   2.030  0.00  0.00    +0.145 HD
ENDBRANCH  15  16
ENDBRANCH  13  15
ENDBRANCH   1  13
BRANCH  11  21
ATOM     21  C   UNL     1      -4.454  -1.189  -0.869  0.00  0.00    +0.130 C 
BRANCH  21  22
ATOM     22  C   UNL     1      -5.177  -0.236   0.084  0.00  0.00    +0.003 C 
ATOM     23  C   UNL     1      -6.189   0.600  -0.702  0.00  0.00    +0.009 C 
ATOM     24  C   UNL     1      -5.908  -1.045   1.158  0.00  0.00    +0.009 C 
ENDBRANCH  21  22
ENDBRANCH  11  21
TORSDOF 5
