REMARK  Name = ZINC12324509
REMARK  4 active torsions:
REMARK  status: ('A' for Active; 'I' for Inactive)
REMARK    1  A    between atoms: C_3  and  N_9
REMARK    2  A    between atoms: C_10  and  C_12
REMARK    3  A    between atoms: C_15  and  O_29
REMARK    4  A    between atoms: C_19  and  N_28
REMARK                            x       y       z     vdW  Elec       q    Type
REMARK                         _______ _______ _______ _____ _____    ______ ____
ROOT
ATOM      1  C   UNL     1       4.778   4.086  -0.402  0.00  0.00    +0.121 C 
ATOM      2  C   UNL     1       5.363   3.801  -1.788  0.00  0.00    +0.113 C 
ATOM      3  C   UNL     1       6.563   4.678  -2.026  0.00  0.00    +0.190 C 
ATOM      4  N   UNL     1       6.629   5.884  -1.557  0.00  0.00    -0.197 NA
ATOM      5  C   UNL     1       5.627   6.414  -0.800  0.00  0.00    +0.167 A 
ATOM      6  C   UNL     1       4.682   5.575  -0.206  0.00  0.00    +0.049 A 
ATOM      7  C   UNL     1       3.667   6.136   0.555  0.00  0.00    +0.127 A 
ATOM      8  N   UNL     1       3.638   7.460   0.709  0.00  0.00    -0.199 NA
ATOM      9  C   UNL     1       4.562   8.229   0.153  0.00  0.00    +0.221 A 
ATOM     10  N   UNL     1       5.543   7.728  -0.588  0.00  0.00    -0.195 NA
ATOM     11  N   UNL     1       4.501   9.598   0.347  0.00  0.00    -0.300 N 
ATOM     12  C   UNL     1       5.442  10.585  -0.203  0.00  0.00    +0.108 C 
ATOM     13  C   UNL     1       4.993  11.974   0.296  0.00  0.00    +0.020 C 
ATOM     14  C   UNL     1       4.159  11.636   1.560  0.00  0.00    +0.020 C 
ATOM     15  C   UNL     1       3.478  10.309   1.135  0.00  0.00    +0.108 C 
ENDROOT
BRANCH   1  17
ATOM     16  N   UNL     1       3.167   2.502   0.605  0.00  0.00    -0.284 N 
ATOM     17  C   UNL     1       3.405   3.474  -0.298  0.00  0.00    +0.225 C 
ATOM     18  O   UNL     1       2.514   3.855  -1.028  0.00  0.00    -0.275 OA
ATOM     19  H   UNL     1       3.857   2.249   1.238  0.00  0.00    +0.155 HD
BRANCH  16  22
ATOM     20  C   UNL     1      -0.130   1.266  -0.457  0.00  0.00    +0.022 A 
ATOM     21  C   UNL     1       1.096   1.901  -0.484  0.00  0.00    +0.026 A 
ATOM     22  C   UNL     1       1.923   1.859   0.630  0.00  0.00    +0.052 A 
ATOM     23  C   UNL     1       1.515   1.177   1.770  0.00  0.00    +0.064 A 
ATOM     24  C   UNL     1       0.287   0.543   1.791  0.00  0.00    +0.041 A 
ATOM     25  C   UNL     1      -0.535   0.587   0.678  0.00  0.00    +0.042 A 
ATOM     26 CL   UNL     1      -2.077  -0.210   0.708  0.00  0.00    -0.083 Cl
ATOM     27 CL   UNL     1       2.546   1.121   3.165  0.00  0.00    -0.082 Cl
ENDBRANCH  16  22
ENDBRANCH   1  17
BRANCH   7  28
ATOM     28  N   UNL     1       2.700   5.335   1.143  0.00  0.00    -0.343 N 
ATOM     29  H   UNL     1       2.928   4.443   1.446  0.00  0.00    +0.144 HD
ATOM     30  H   UNL     1       1.795   5.668   1.252  0.00  0.00    +0.144 HD
ENDBRANCH   7  28
BRANCH   3  31
ATOM     31  O   UNL     1       7.596   4.196  -2.744  0.00  0.00    -0.495 OA
ATOM     32  H   UNL     1       8.326   4.821  -2.850  0.00  0.00    +0.293 HD
ENDBRANCH   3  31
TORSDOF 4
