REMARK  Name = ZINC09255768
REMARK  8 active torsions:
REMARK  status: ('A' for Active; 'I' for Inactive)
REMARK    1  A    between atoms: C_1  and  C_2
REMARK    2  A    between atoms: C_3  and  S_8
REMARK    3  A    between atoms: C_4  and  C_7
REMARK    4  A    between atoms: S_8  and  N_11
REMARK    5  A    between atoms: C_16  and  C_18
REMARK    6  A    between atoms: C_16  and  C_19
REMARK    7  A    between atoms: C_16  and  N_59
REMARK    8  A    between atoms: C_25  and  C_30
REMARK                            x       y       z     vdW  Elec       q    Type
REMARK                         _______ _______ _______ _____ _____    ______ ____
ROOT
ATOM      1  C   UNL     1       2.158   7.147   1.259  0.00  0.00    -0.004 C 
ATOM      2  C   UNL     1       0.633   7.152   1.138  0.00  0.00    -0.005 C 
ENDROOT
BRANCH   1   3
ATOM      3  C   UNL     1       2.588   8.220   2.226  0.00  0.00    +0.097 A 
ATOM      4  N   UNL     1       2.171   9.498   2.034  0.00  0.00    -0.312 N 
ATOM      5  H   UNL     1       1.601   9.703   1.276  0.00  0.00    +0.170 HD
ATOM      6  C   UNL     1       2.532  10.485   2.875  0.00  0.00    +0.260 A 
ATOM      7  O   UNL     1       2.148  11.627   2.689  0.00  0.00    -0.267 OA
ATOM      8  C   UNL     1       3.373  10.174   3.990  0.00  0.00    +0.080 A 
ATOM      9  C   UNL     1       3.893  11.056   5.028  0.00  0.00    +0.004 A 
ATOM     10  C   UNL     1       4.680  10.528   5.997  0.00  0.00    +0.056 A 
ATOM     11  S   UNL     1       4.766   8.801   5.565  0.00  0.00    -0.076 S 
ATOM     12  C   UNL     1       3.754   8.827   4.108  0.00  0.00    +0.116 A 
ATOM     13  N   UNL     1       3.351   7.904   3.238  0.00  0.00    -0.228 NA
BRANCH   9  14
ATOM     14  C   UNL     1       3.568  12.502   5.023  0.00  0.00    -0.017 A 
ATOM     15  C   UNL     1       3.745  13.255   3.864  0.00  0.00    +0.008 A 
ATOM     16  C   UNL     1       3.436  14.600   3.863  0.00  0.00    +0.001 A 
ATOM     17  C   UNL     1       2.961  15.203   5.014  0.00  0.00    +0.000 A 
ATOM     18  C   UNL     1       2.788  14.462   6.169  0.00  0.00    +0.001 A 
ATOM     19  C   UNL     1       3.088  13.115   6.180  0.00  0.00    +0.008 A 
ENDBRANCH   9  14
ENDBRANCH   1   3
BRANCH   1  25
ATOM     20  N   UNL     1       2.533   3.146   2.467  0.00  0.00    -0.180 NA
ATOM     21  C   UNL     1       3.160   3.516   1.190  0.00  0.00    +0.091 C 
ATOM     22  C   UNL     1       2.513   4.819   0.695  0.00  0.00    -0.060 C 
ATOM     23  C   UNL     1       1.851   5.437   2.946  0.00  0.00    -0.060 C 
ATOM     24  C   UNL     1       2.466   4.160   3.530  0.00  0.00    +0.091 C 
ATOM     25  N   UNL     1       2.635   5.841   1.758  0.00  0.00    +0.388 N 
ATOM     26  H   UNL     1       3.623   5.926   2.025  0.00  0.00    -0.081 HD
BRANCH  20  27
ATOM     27  S   UNL     1       1.926   1.624   2.706  0.00  0.00    +0.066 S 
ATOM     28  O   UNL     1       1.927   1.401   4.110  0.00  0.00    -0.153 OA
ATOM     29  O   UNL     1       2.606   0.768   1.799  0.00  0.00    -0.153 OA
BRANCH  27  32
ATOM     30  C   UNL     1       0.482   1.005  -0.316  0.00  0.00    +0.071 C 
ATOM     31  C   UNL     1      -0.293   1.382   0.920  0.00  0.00    +0.107 A 
ATOM     32  C   UNL     1       0.237   1.652   2.203  0.00  0.00    +0.170 A 
ATOM     33  C   UNL     1      -0.853   1.938   2.954  0.00  0.00    +0.161 A 
ATOM     34  O   UNL     1      -1.913   1.833   2.140  0.00  0.00    -0.358 OA
ATOM     35  N   UNL     1      -1.583   1.530   1.017  0.00  0.00    -0.081 NA
ATOM     36  C   UNL     1      -0.870   2.301   4.416  0.00  0.00    +0.091 C 
ENDBRANCH  27  32
ENDBRANCH  20  27
ENDBRANCH   1  25
TORSDOF 5
