REMARK  Name = ZINC44290297
REMARK  6 active torsions:
REMARK  status: ('A' for Active; 'I' for Inactive)
REMARK    1  A    between atoms: C_3  and  N_24
REMARK    2  A    between atoms: C_6  and  C_7
REMARK    3  A    between atoms: C_8  and  C_17
REMARK    4  A    between atoms: C_17  and  CA_18
REMARK    5  A    between atoms: CA_18  and  C_20
REMARK    6  A    between atoms: CA_18  and  N_23
REMARK                            x       y       z     vdW  Elec       q    Type
REMARK                         _______ _______ _______ _____ _____    ______ ____
ROOT
ATOM      1  C   UNL     1      -1.216  -0.891   0.161  0.00  0.00    +0.093 A 
ATOM      2  C   UNL     1      -1.527  -1.901  -0.699  0.00  0.00    +0.050 A 
ATOM      3  N   UNL     1      -2.863  -2.152  -0.558  0.00  0.00    -0.302 N 
ATOM      4  C   UNL     1      -3.700  -3.047  -1.161  0.00  0.00    +0.113 A 
ATOM      5  C   UNL     1      -5.009  -3.092  -0.835  0.00  0.00    +0.058 A 
ATOM      6  C   UNL     1      -5.529  -2.215   0.133  0.00  0.00    +0.025 A 
ATOM      7  C   UNL     1      -4.706  -1.319   0.742  0.00  0.00    +0.048 A 
ATOM      8  C   UNL     1      -3.341  -1.284   0.390  0.00  0.00    +0.139 A 
ATOM      9  N   UNL     1      -2.334  -0.536   0.816  0.00  0.00    -0.228 NA
ATOM     10 CL   UNL     1      -6.055  -4.237  -1.614  0.00  0.00    -0.082 Cl
ENDROOT
BRANCH   1  16
ATOM     11  C   UNL     1       0.267   1.094   0.446  0.00  0.00    +0.012 A 
ATOM     12  C   UNL     1       1.519   1.648   0.619  0.00  0.00    +0.033 A 
ATOM     13  C   UNL     1       2.635   0.833   0.693  0.00  0.00    +0.126 A 
ATOM     14  C   UNL     1       2.502  -0.540   0.594  0.00  0.00    +0.033 A 
ATOM     15  C   UNL     1       1.254  -1.105   0.421  0.00  0.00    +0.012 A 
ATOM     16  C   UNL     1       0.127  -0.289   0.346  0.00  0.00    +0.002 A 
BRANCH  13  17
ATOM     17  N   UNL     1       3.975   1.433   0.878  0.00  0.00    +0.056 N 
ATOM     18  O   UNL     1       4.094   2.633   0.964  0.00  0.00    -0.126 OA
ATOM     19  O   UNL     1       4.951   0.723   0.943  0.00  0.00    -0.126 OA
ENDBRANCH  13  17
ENDBRANCH   1  16
BRANCH   2  20
ATOM     20  C   UNL     1      -0.576  -2.608  -1.630  0.00  0.00    +0.051 C 
BRANCH  20  21
ATOM     21  CA  UNL     1      -0.649  -1.967  -3.017  0.00  0.00    +0.046 C 
BRANCH  21  22
ATOM     22  N   UNL     1      -0.163  -0.582  -2.943  0.00  0.00    +0.387 N 
ATOM     23  H1  UNL     1       0.793  -0.579  -2.620  0.00  0.00    -0.089 HD
ATOM     24  H2  UNL     1      -0.211  -0.159  -3.857  0.00  0.00    -0.089 HD
ATOM     25  H3  UNL     1      -0.737  -0.058  -2.299  0.00  0.00    -0.089 HD
ENDBRANCH  21  22
BRANCH  21  26
ATOM     26  C   UNL     1       0.208  -2.749  -3.978  0.00  0.00    +0.342 C 
ATOM     27  O   UNL     1      -0.273  -3.677  -4.606  0.00  0.00    -0.248 OA
ATOM     28  OXT UNL     1       1.381  -2.454  -4.128  0.00  0.00    -0.248 OA
ENDBRANCH  21  26
ENDBRANCH  20  21
ENDBRANCH   2  20
TORSDOF 6
