REMARK  Name = ZINC64136827
REMARK  6 active torsions:
REMARK  status: ('A' for Active; 'I' for Inactive)
REMARK    1  A    between atoms: C_1  and  C_2
REMARK    2  A    between atoms: C_2  and  O_3
REMARK    3  A    between atoms: O_3  and  C_4
REMARK    4  A    between atoms: C_7  and  N_10
REMARK    5  A    between atoms: C_13  and  C_19
REMARK    6  A    between atoms: N_33  and  C_34
REMARK                            x       y       z     vdW  Elec       q    Type
REMARK                         _______ _______ _______ _____ _____    ______ ____
ROOT
ATOM      1  N   UNL     1       0.948  -8.119   0.806  0.00  0.00    -0.229 N 
ATOM      2  C   UNL     1       1.485  -8.680   1.907  0.00  0.00    +0.270 A 
ATOM      3  O   UNL     1       1.710  -9.878   1.938  0.00  0.00    -0.267 OA
ATOM      4  C   UNL     1       1.783  -7.875   3.021  0.00  0.00    +0.101 A 
ATOM      5  C   UNL     1       1.522  -6.538   2.961  0.00  0.00    +0.263 A 
ATOM      6  N   UNL     1       0.975  -6.008   1.820  0.00  0.00    -0.274 N 
ATOM      7  C   UNL     1       0.702  -6.797   0.764  0.00  0.00    +0.337 A 
ATOM      8  O   UNL     1       0.222  -6.308  -0.240  0.00  0.00    -0.246 OA
ATOM      9  O   UNL     1       1.798  -5.743   4.016  0.00  0.00    -0.267 OA
ATOM     10  H   UNL     1       0.787  -5.057   1.772  0.00  0.00    +0.173 HD
ENDROOT
BRANCH   4  11
ATOM     11  C   UNL     1       2.383  -8.481   4.263  0.00  0.00    +0.124 C 
ATOM     12  C   UNL     1       1.506  -8.151   5.473  0.00  0.00    +0.128 C 
ATOM     13  C   UNL     1       1.596  -6.642   5.666  0.00  0.00    -0.035 C 
ATOM     14  C   UNL     1       0.349  -6.191   5.679  0.00  0.00    -0.001 A 
ATOM     15  C   UNL     1      -0.207  -4.848   5.913  0.00  0.00    +0.010 A 
ATOM     16  C   UNL     1      -1.559  -4.737   5.837  0.00  0.00    +0.001 A 
ATOM     17  C   UNL     1      -2.405  -5.815   5.554  0.00  0.00    +0.002 A 
ATOM     18  C   UNL     1      -1.981  -7.084   5.332  0.00  0.00    +0.026 A 
ATOM     19  C   UNL     1      -0.578  -7.328   5.391  0.00  0.00    +0.043 A 
ATOM     20  N   UNL     1       0.094  -8.453   5.244  0.00  0.00    -0.376 N 
ATOM     21  C   UNL     1       2.924  -5.927   5.712  0.00  0.00    +0.049 C 
ATOM     22  C   UNL     1       3.736  -6.449   4.512  0.00  0.00    +0.089 C 
ATOM     23  N   UNL     1       3.722  -7.916   4.494  0.00  0.00    -0.296 NA
ATOM     24  C   UNL     1       4.690  -8.440   3.520  0.00  0.00    +0.105 C 
ATOM     25  H   UNL     1      -0.271  -9.323   5.020  0.00  0.00    +0.160 HD
ENDBRANCH   4  11
BRANCH   1  29
ATOM     26  C   UNL     1       0.059 -10.497  -2.504  0.00  0.00    +0.121 A 
ATOM     27  C   UNL     1       1.310  -9.907  -2.390  0.00  0.00    +0.047 A 
ATOM     28  C   UNL     1       1.605  -9.120  -1.294  0.00  0.00    +0.030 A 
ATOM     29  C   UNL     1       0.649  -8.918  -0.307  0.00  0.00    +0.055 A 
ATOM     30  C   UNL     1      -0.602  -9.508  -0.423  0.00  0.00    +0.030 A 
ATOM     31  C   UNL     1      -0.898 -10.291  -1.521  0.00  0.00    +0.047 A 
BRANCH  26  32
ATOM     32  O   UNL     1      -0.230 -11.272  -3.583  0.00  0.00    -0.492 OA
BRANCH  32  34
ATOM     33  C   UNL     1       0.295 -12.338  -5.687  0.00  0.00    +0.048 C 
ATOM     34  C   UNL     1       0.802 -11.441  -4.556  0.00  0.00    +0.225 C 
ENDBRANCH  32  34
ENDBRANCH  26  32
ENDBRANCH   1  29
TORSDOF 4
