REMARK  Name = ZINC09056297
REMARK  8 active torsions:
REMARK  status: ('A' for Active; 'I' for Inactive)
REMARK    1  A    between atoms: C_1  and  C_2
REMARK    2  A    between atoms: C_2  and  C_4
REMARK    3  A    between atoms: C_2  and  S_16
REMARK    4  A    between atoms: C_4  and  C_6
REMARK    5  A    between atoms: S_16  and  C_17
REMARK    6  A    between atoms: C_20  and  C_25
REMARK    7  A    between atoms: N_21  and  C_22
REMARK    8  A    between atoms: C_22  and  C_23
REMARK                            x       y       z     vdW  Elec       q    Type
REMARK                         _______ _______ _______ _____ _____    ______ ____
ROOT
ATOM      1  C   UNL     1      -5.173   1.776  -0.698  0.00  0.00    +0.193 A 
ATOM      2  N   UNL     1      -5.270   0.534  -0.285  0.00  0.00    -0.122 NA
ATOM      3  N   UNL     1      -6.476   0.116  -0.440  0.00  0.00    -0.129 NA
ATOM      4  C   UNL     1      -7.213   1.058  -0.957  0.00  0.00    +0.179 A 
ATOM      5  N   UNL     1      -6.411   2.151  -1.134  0.00  0.00    -0.299 N 
ENDROOT
BRANCH   4   6
ATOM      6  C   UNL     1      -8.680   0.962  -1.291  0.00  0.00    +0.278 C 
ATOM      7  C   UNL     1      -8.869   0.100  -2.546  0.00  0.00    +0.281 C 
ATOM      8  O   UNL     1     -10.271   0.019  -2.827  0.00  0.00    -0.484 OA
ATOM      9  C   UNL     1     -11.090  -0.253  -1.775  0.00  0.00    +0.162 A 
ATOM     10  C   UNL     1     -12.382  -0.696  -2.015  0.00  0.00    +0.049 A 
ATOM     11  C   UNL     1     -13.227  -0.972  -0.957  0.00  0.00    +0.004 A 
ATOM     12  C   UNL     1     -12.787  -0.808   0.343  0.00  0.00    +0.004 A 
ATOM     13  C   UNL     1     -11.501  -0.369   0.590  0.00  0.00    +0.049 A 
ATOM     14  C   UNL     1     -10.647  -0.090  -0.468  0.00  0.00    +0.163 A 
ATOM     15  O   UNL     1      -9.381   0.339  -0.209  0.00  0.00    -0.474 OA
ENDBRANCH   4   6
BRANCH   1  16
ATOM     16  S   UNL     1      -3.721   2.774  -0.685  0.00  0.00    -0.075 S 
BRANCH  16  18
ATOM     17  C   UNL     1      -2.947   1.272   1.462  0.00  0.00    +0.028 C 
ATOM     18  C   UNL     1      -2.539   1.600   0.024  0.00  0.00    +0.122 C 
BRANCH  18  19
ATOM     19  C   UNL     1      -1.161   2.210   0.020  0.00  0.00    +0.178 C 
ATOM     20  O   UNL     1      -1.032   3.417   0.025  0.00  0.00    -0.291 OA
BRANCH  19  21
ATOM     21  C   UNL     1      -0.017   1.374   0.010  0.00  0.00    +0.043 A 
ATOM     22  C   UNL     1       0.002  -0.004   0.002  0.00  0.00    +0.095 A 
ATOM     23  N   UNL     1       1.276  -0.439  -0.013  0.00  0.00    -0.360 N 
ATOM     24  H   UNL     1       1.540  -1.373  -0.020  0.00  0.00    +0.165 HD
ATOM     25  C   UNL     1       2.155   0.625  -0.015  0.00  0.00    +0.047 A 
ATOM     26  C   UNL     1       1.395   1.805  -0.002  0.00  0.00    +0.010 A 
ATOM     27  C   UNL     1       2.028   3.044  -0.001  0.00  0.00    +0.011 A 
ATOM     28  C   UNL     1       3.405   3.108  -0.014  0.00  0.00    +0.001 A 
ATOM     29  C   UNL     1       4.158   1.943  -0.027  0.00  0.00    +0.002 A 
ATOM     30  C   UNL     1       3.544   0.710  -0.028  0.00  0.00    +0.026 A 
ENDBRANCH  19  21
ENDBRANCH  18  19
ENDBRANCH  16  18
ENDBRANCH   1  16
BRANCH   5  31
ATOM     31  C   UNL     1      -6.800   3.453  -1.682  0.00  0.00    +0.152 C 
BRANCH  31  32
ATOM     32  C   UNL     1      -6.610   3.446  -3.177  0.00  0.00    -0.013 C 
ATOM     33  C   UNL     1      -7.611   3.752  -3.966  0.00  0.00    +0.005 C 
ENDBRANCH  31  32
ENDBRANCH   5  31
TORSDOF 7
