REMARK  Name = ZINC45785079
REMARK  6 active torsions:
REMARK  status: ('A' for Active; 'I' for Inactive)
REMARK    1  A    between atoms: C_1  and  C_2
REMARK    2  A    between atoms: C_5  and  C_23
REMARK    3  A    between atoms: C_10  and  C_12
REMARK    4  A    between atoms: C_12  and  N_13
REMARK    5  A    between atoms: C_15  and  C_22
REMARK    6  A    between atoms: C_19  and  C_21
REMARK                            x       y       z     vdW  Elec       q    Type
REMARK                         _______ _______ _______ _____ _____    ______ ____
ROOT
ATOM      1  C   UNL     1      -0.019   1.526   0.010  0.00  0.00    +0.009 C 
ATOM      2  C   UNL     1       0.002  -0.004   0.002  0.00  0.00    +0.004 C 
ATOM      3  C   UNL     1      -1.433  -0.534   0.015  0.00  0.00    +0.009 C 
ATOM      4  C   UNL     1      -1.414  -2.064  -0.027  0.00  0.00    +0.004 C 
ATOM      5  C   UNL     1      -0.692  -2.596   1.215  0.00  0.00    +0.111 C 
ATOM      6  N   UNL     1       0.639  -1.977   1.288  0.00  0.00    -0.300 N 
ATOM      7  C   UNL     1       0.742  -0.512   1.244  0.00  0.00    +0.111 C 
ATOM      8  C   UNL     1       1.746  -2.740   1.395  0.00  0.00    +0.230 C 
ATOM      9  O   UNL     1       1.648  -3.948   1.431  0.00  0.00    -0.274 OA
ATOM     10  C   UNL     1      -0.680  -2.532  -1.285  0.00  0.00    +0.009 C 
ENDROOT
BRANCH   8  11
ATOM     11  C   UNL     1       3.103  -2.090   1.470  0.00  0.00    +0.181 C 
BRANCH  11  12
ATOM     12  N   UNL     1       4.137  -3.128   1.581  0.00  0.00    -0.287 NA
ATOM     13  C   UNL     1       4.029  -3.845   2.860  0.00  0.00    +0.116 C 
ATOM     14  C   UNL     1       5.083  -4.954   2.908  0.00  0.00    +0.129 C 
ATOM     15  O   UNL     1       6.380  -4.380   2.717  0.00  0.00    -0.374 OA
ATOM     16  C   UNL     1       6.521  -3.675   1.481  0.00  0.00    +0.178 C 
ATOM     17  C   UNL     1       5.481  -2.554   1.418  0.00  0.00    +0.080 C 
ATOM     18  C   UNL     1       5.745  -1.548   2.540  0.00  0.00    +0.026 C 
ATOM     19  C   UNL     1       5.028  -5.652   4.269  0.00  0.00    +0.039 C 
ENDBRANCH  11  12
ENDBRANCH   8  11
TORSDOF 2
