REMARK  Name = ZINC05642627
REMARK  7 active torsions:
REMARK  status: ('A' for Active; 'I' for Inactive)
REMARK    1  A    between atoms: C_1  and  C_2
REMARK    2  A    between atoms: C_2  and  C_3
REMARK    3  A    between atoms: C_3  and  C_4
REMARK    4  A    between atoms: C_3  and  N_6
REMARK    5  A    between atoms: C_4  and  C_5
REMARK    6  A    between atoms: C_13  and  C_20
REMARK    7  A    between atoms: C_17  and  O_19
REMARK                            x       y       z     vdW  Elec       q    Type
REMARK                         _______ _______ _______ _____ _____    ______ ____
ROOT
ATOM      1  N   UNL     1      -0.055  -0.114  -2.441  0.00  0.00    -0.263 N 
ATOM      2  C   UNL     1       0.397   0.693  -3.483  0.00  0.00    +0.161 A 
ATOM      3  C   UNL     1      -0.633   0.806  -4.381  0.00  0.00    +0.079 A 
ATOM      4  C   UNL     1      -1.725   0.056  -3.886  0.00  0.00    +0.271 A 
ATOM      5  O   UNL     1      -2.809  -0.070  -4.431  0.00  0.00    -0.266 OA
ATOM      6  N   UNL     1      -1.366  -0.499  -2.719  0.00  0.00    -0.261 N 
ATOM      7  H   UNL     1      -1.923  -1.067  -2.163  0.00  0.00    +0.190 HD
ATOM      8  C   UNL     1      -0.700   1.560  -5.675  0.00  0.00    +0.116 C 
ATOM      9  S   UNL     1       0.875   1.605  -6.538  0.00  0.00    -0.138 S 
ATOM     10  C   UNL     1       1.972   2.587  -5.505  0.00  0.00    +0.165 C 
ATOM     11  C   UNL     1       2.327   1.911  -4.238  0.00  0.00    +0.199 C 
ATOM     12  N   UNL     1       1.628   1.194  -3.480  0.00  0.00    -0.197 NA
ENDROOT
BRANCH   8  13
ATOM     13  C   UNL     1      -1.722   0.903  -6.567  0.00  0.00    -0.026 A 
ATOM     14  C   UNL     1      -1.563  -0.419  -6.941  0.00  0.00    +0.009 A 
ATOM     15  C   UNL     1      -2.498  -1.026  -7.759  0.00  0.00    +0.050 A 
ATOM     16  C   UNL     1      -3.596  -0.310  -8.207  0.00  0.00    +0.166 A 
ATOM     17  C   UNL     1      -3.756   1.021  -7.831  0.00  0.00    +0.167 A 
ATOM     18  C   UNL     1      -2.818   1.621  -7.006  0.00  0.00    +0.054 A 
ATOM     19  O   UNL     1      -4.902   1.500  -8.396  0.00  0.00    -0.453 OA
ATOM     20  C   UNL     1      -5.228   0.574  -9.449  0.00  0.00    +0.466 C 
ATOM     21  O   UNL     1      -4.643  -0.666  -9.007  0.00  0.00    -0.453 OA
ENDBRANCH   8  13
BRANCH  11  22
ATOM     22  O   UNL     1       3.597   2.093  -3.834  0.00  0.00    -0.495 OA
ATOM     23  H   UNL     1       3.814   1.646  -3.005  0.00  0.00    +0.293 HD
ENDBRANCH  11  22
BRANCH   1  24
ATOM     24  C   UNL     1       0.718  -0.497  -1.257  0.00  0.00    +0.107 C 
BRANCH  24  26
ATOM     25  C   UNL     1      -0.019   1.526   0.010  0.00  0.00    +0.006 C 
ATOM     26  C   UNL     1       0.002  -0.004   0.002  0.00  0.00    +0.023 C 
ENDBRANCH  24  26
BRANCH  24  27
ATOM     27  C   UNL     1       0.849  -2.021  -1.205  0.00  0.00    +0.023 C 
ATOM     28  C   UNL     1       1.673  -2.503  -2.400  0.00  0.00    +0.006 C 
ENDBRANCH  24  27
ENDBRANCH   1  24
TORSDOF 5
