REMARK  Name = ZINC39877741
REMARK  11 active torsions:
REMARK  status: ('A' for Active; 'I' for Inactive)
REMARK    1  A    between atoms: C_1  and  C_2
REMARK    2  A    between atoms: C_2  and  O_3
REMARK    3  A    between atoms: O_3  and  C_4
REMARK    4  A    between atoms: C_7  and  N_10
REMARK    5  A    between atoms: C_11  and  C_28
REMARK    6  A    between atoms: C_18  and  C_27
REMARK    7  A    between atoms: C_19  and  C_26
REMARK    8  A    between atoms: C_31  and  O_37
REMARK    9  A    between atoms: C_32  and  O_34
REMARK   10  A    between atoms: O_34  and  C_35
REMARK   11  A    between atoms: C_35  and  C_36
REMARK                            x       y       z     vdW  Elec       q    Type
REMARK                         _______ _______ _______ _____ _____    ______ ____
ROOT
ATOM      1  N   UNL     1       1.135  -5.955   1.754  0.00  0.00    -0.253 N 
ATOM      2  C   UNL     1       1.792  -6.654   2.870  0.00  0.00    +0.150 C 
ATOM      3  C   UNL     1       1.652  -8.112   2.577  0.00  0.00    +0.072 A 
ATOM      4  C   UNL     1       2.111  -9.294   3.314  0.00  0.00    +0.199 A 
ATOM      5  O   UNL     1       2.568  -9.241   4.442  0.00  0.00    -0.287 OA
ATOM      6  C   UNL     1       1.965 -10.561   2.554  0.00  0.00    +0.065 A 
ATOM      7  C   UNL     1       2.534 -11.741   3.032  0.00  0.00    +0.019 A 
ATOM      8  C   UNL     1       2.396 -12.899   2.318  0.00  0.00    -0.047 A 
ATOM      9  C   UNL     1       1.693 -12.902   1.122  0.00  0.00    -0.044 A 
ATOM     10  C   UNL     1       1.123 -11.746   0.635  0.00  0.00    +0.050 A 
ATOM     11  C   UNL     1       1.247 -10.553   1.347  0.00  0.00    +0.140 A 
ATOM     12  O   UNL     1       0.671  -9.432   0.856  0.00  0.00    -0.450 OA
ATOM     13  C   UNL     1       0.970  -8.236   1.400  0.00  0.00    +0.199 A 
ATOM     14  C   UNL     1       0.654  -6.886   0.904  0.00  0.00    +0.287 C 
ATOM     15  O   UNL     1       0.051  -6.645  -0.123  0.00  0.00    -0.266 OA
ATOM     16  C   UNL     1       1.551 -14.185   0.345  0.00  0.00    +0.044 C 
ATOM     17  C   UNL     1       3.009 -14.176   2.832  0.00  0.00    +0.044 C 
ENDROOT
BRANCH   1  21
ATOM     18  C   UNL     1       0.802  -1.825   1.306  0.00  0.00    +0.121 A 
ATOM     19  C   UNL     1       0.259  -2.672   0.350  0.00  0.00    +0.047 A 
ATOM     20  C   UNL     1       0.369  -4.040   0.498  0.00  0.00    +0.027 A 
ATOM     21  C   UNL     1       1.024  -4.569   1.603  0.00  0.00    +0.038 A 
ATOM     22  C   UNL     1       1.567  -3.720   2.559  0.00  0.00    +0.027 A 
ATOM     23  C   UNL     1       1.461  -2.352   2.407  0.00  0.00    +0.047 A 
BRANCH  18  24
ATOM     24  O   UNL     1       0.693  -0.477   1.160  0.00  0.00    -0.492 OA
BRANCH  24  26
ATOM     25  C   UNL     1      -0.019   1.526   0.010  0.00  0.00    +0.048 C 
ATOM     26  C   UNL     1       0.002  -0.004   0.002  0.00  0.00    +0.225 C 
ENDBRANCH  24  26
ENDBRANCH  18  24
ENDBRANCH   1  21
BRANCH   2  27
ATOM     27  C   UNL     1       3.249  -6.273   2.937  0.00  0.00    -0.018 A 
ATOM     28  C   UNL     1       3.978  -6.129   1.771  0.00  0.00    +0.009 A 
ATOM     29  C   UNL     1       5.315  -5.780   1.827  0.00  0.00    +0.049 A 
ATOM     30  C   UNL     1       5.926  -5.573   3.053  0.00  0.00    +0.158 A 
ATOM     31  C   UNL     1       5.192  -5.717   4.226  0.00  0.00    +0.162 A 
ATOM     32  C   UNL     1       3.852  -6.063   4.163  0.00  0.00    +0.055 A 
BRANCH  30  33
ATOM     33  O   UNL     1       7.241  -5.230   3.109  0.00  0.00    -0.503 OA
ATOM     34  H   UNL     1       7.399  -4.276   3.092  0.00  0.00    +0.292 HD
ENDBRANCH  30  33
BRANCH  31  35
ATOM     35  O   UNL     1       5.788  -5.515   5.432  0.00  0.00    -0.489 OA
BRANCH  35  36
ATOM     36  C   UNL     1       4.973  -5.681   6.594  0.00  0.00    +0.226 C 
ATOM     37  C   UNL     1       5.810  -5.414   7.846  0.00  0.00    +0.048 C 
ENDBRANCH  35  36
ENDBRANCH  31  35
ENDBRANCH   2  27
TORSDOF 7
