REMARK  Name = ZINC35666763
REMARK  8 active torsions:
REMARK  status: ('A' for Active; 'I' for Inactive)
REMARK    1  A    between atoms: C_1  and  C_2
REMARK    2  A    between atoms: C_3  and  N_9
REMARK    3  A    between atoms: C_10  and  C_26
REMARK    4  A    between atoms: C_11  and  C_20
REMARK    5  A    between atoms: C_13  and  S_14
REMARK    6  A    between atoms: S_14  and  C_15
REMARK    7  A    between atoms: C_15  and  C_16
REMARK    8  A    between atoms: N_18  and  N_19
REMARK                            x       y       z     vdW  Elec       q    Type
REMARK                         _______ _______ _______ _____ _____    ______ ____
ROOT
ATOM      1  N   UNL     1      -0.010   0.013  -2.415  0.00  0.00    -0.286 N 
ATOM      2  C   UNL     1       1.094   0.437  -3.134  0.00  0.00    +0.082 A 
ATOM      3  C   UNL     1       0.604   1.085  -4.251  0.00  0.00    +0.098 A 
ATOM      4  N   UNL     1      -0.742   1.044  -4.192  0.00  0.00    -0.221 NA
ATOM      5  C   UNL     1      -1.117   0.404  -3.110  0.00  0.00    +0.175 A 
ENDROOT
BRANCH   1   8
ATOM      6  C   UNL     1      -0.018   1.503   0.010  0.00  0.00    +0.047 C 
ATOM      7  C   UNL     1       0.002  -0.004   0.002  0.00  0.00    -0.008 A 
ATOM      8  C   UNL     1       0.006  -0.693  -1.204  0.00  0.00    +0.053 A 
ATOM      9  C   UNL     1       0.025  -2.081  -1.207  0.00  0.00    +0.026 A 
ATOM     10  C   UNL     1       0.041  -2.774  -0.012  0.00  0.00    +0.003 A 
ATOM     11  C   UNL     1       0.036  -2.087   1.187  0.00  0.00    +0.020 A 
ATOM     12  C   UNL     1       0.023  -0.702   1.195  0.00  0.00    +0.046 A 
ATOM     13 CL   UNL     1       0.025   0.157   2.703  0.00  0.00    -0.083 Cl
ENDBRANCH   1   8
BRANCH   3  14
ATOM     14  C   UNL     1       1.412   1.714  -5.321  0.00  0.00    +0.002 A 
ATOM     15  C   UNL     1       2.621   2.336  -5.011  0.00  0.00    +0.010 A 
ATOM     16  C   UNL     1       3.370   2.919  -6.012  0.00  0.00    +0.001 A 
ATOM     17  C   UNL     1       2.924   2.888  -7.321  0.00  0.00    +0.000 A 
ATOM     18  C   UNL     1       1.725   2.273  -7.635  0.00  0.00    +0.001 A 
ATOM     19  C   UNL     1       0.970   1.681  -6.643  0.00  0.00    +0.010 A 
ENDBRANCH   3  14
BRANCH   2  20
ATOM     20  C   UNL     1       2.511   0.238  -2.777  0.00  0.00    +0.001 A 
ATOM     21  C   UNL     1       2.944   0.462  -1.468  0.00  0.00    +0.010 A 
ATOM     22  C   UNL     1       4.271   0.274  -1.142  0.00  0.00    +0.001 A 
ATOM     23  C   UNL     1       5.173  -0.136  -2.108  0.00  0.00    +0.000 A 
ATOM     24  C   UNL     1       4.751  -0.359  -3.408  0.00  0.00    +0.001 A 
ATOM     25  C   UNL     1       3.426  -0.181  -3.747  0.00  0.00    +0.010 A 
ENDBRANCH   2  20
BRANCH   5  26
ATOM     26  S   UNL     1      -2.785   0.103  -2.628  0.00  0.00    -0.078 S 
BRANCH  26  27
ATOM     27  C   UNL     1      -3.768   0.862  -3.950  0.00  0.00    +0.174 C 
BRANCH  27  28
ATOM     28  C   UNL     1      -5.234   0.674  -3.658  0.00  0.00    +0.237 C 
ATOM     29  O   UNL     1      -5.582   0.086  -2.656  0.00  0.00    -0.274 OA
ATOM     30  N   UNL     1      -6.159   1.159  -4.510  0.00  0.00    -0.253 N 
ATOM     31  H   UNL     1      -5.881   1.630  -5.311  0.00  0.00    +0.169 HD
BRANCH  30  32
ATOM     32  N   UNL     1      -7.488   0.989  -4.245  0.00  0.00    -0.254 NA
ATOM     33  H   UNL     1      -8.057   1.403  -4.968  0.00  0.00    +0.140 HD
ATOM     34  H   UNL     1      -7.710   0.012  -4.125  0.00  0.00    +0.140 HD
ENDBRANCH  30  32
ENDBRANCH  27  28
ENDBRANCH  26  27
ENDBRANCH   5  26
TORSDOF 7
