REMARK  Name = ZINC09091622
REMARK  9 active torsions:
REMARK  status: ('A' for Active; 'I' for Inactive)
REMARK    1  A    between atoms: C_1  and  C_2
REMARK    2  A    between atoms: C_2  and  C_3
REMARK    3  A    between atoms: C_2  and  C_4
REMARK    4  A    between atoms: C_4  and  N_5
REMARK    5  A    between atoms: C_15  and  S_16
REMARK    6  A    between atoms: S_16  and  C_17
REMARK    7  A    between atoms: C_17  and  C_18
REMARK    8  A    between atoms: N_20  and  C_21
REMARK    9  A    between atoms: C_23  and  N_28
REMARK                            x       y       z     vdW  Elec       q    Type
REMARK                         _______ _______ _______ _____ _____    ______ ____
ROOT
ATOM      1  N   UNL     1       4.742   8.875   0.567  0.00  0.00    -0.287 N 
ATOM      2  C   UNL     1       4.548  10.210   0.669  0.00  0.00    +0.262 A 
ATOM      3  O   UNL     1       5.487  10.979   0.763  0.00  0.00    -0.267 OA
ATOM      4  C   UNL     1       3.162  10.698   0.661  0.00  0.00    +0.066 A 
ATOM      5  C   UNL     1       2.859  12.055   0.761  0.00  0.00    +0.035 A 
ATOM      6  C   UNL     1       1.540  12.457   0.749  0.00  0.00    +0.042 A 
ATOM      7  C   UNL     1       0.517  11.521   0.638  0.00  0.00    +0.022 A 
ATOM      8  C   UNL     1       0.793  10.187   0.539  0.00  0.00    +0.030 A 
ATOM      9  C   UNL     1       2.120   9.749   0.549  0.00  0.00    +0.079 A 
ATOM     10  N   UNL     1       2.434   8.436   0.449  0.00  0.00    -0.223 NA
ATOM     11  C   UNL     1       3.678   8.025   0.462  0.00  0.00    +0.173 A 
ATOM     12 CL   UNL     1       1.153  14.144   0.873  0.00  0.00    -0.084 Cl
ENDROOT
BRANCH   1  13
ATOM     13  C   UNL     1       6.105   8.337   0.569  0.00  0.00    +0.130 C 
BRANCH  13  15
ATOM     14  C   UNL     1       8.092   7.822  -0.856  0.00  0.00    +0.009 C 
ATOM     15  C   UNL     1       6.627   8.266  -0.867  0.00  0.00    +0.003 C 
ATOM     16  C   UNL     1       5.796   7.258  -1.663  0.00  0.00    +0.009 C 
ENDBRANCH  13  15
ENDBRANCH   1  13
BRANCH  11  17
ATOM     17  S   UNL     1       3.994   6.297   0.332  0.00  0.00    -0.078 S 
BRANCH  17  18
ATOM     18  C   UNL     1       2.297   5.675   0.225  0.00  0.00    +0.173 C 
BRANCH  18  19
ATOM     19  C   UNL     1       2.320   4.173   0.104  0.00  0.00    +0.228 C 
ATOM     20  O   UNL     1       3.378   3.581   0.091  0.00  0.00    -0.275 OA
ATOM     21  N   UNL     1       1.163   3.487   0.009  0.00  0.00    -0.284 N 
ATOM     22  H   UNL     1       0.321   3.963  -0.061  0.00  0.00    +0.155 HD
BRANCH  21  23
ATOM     23  C   UNL     1       1.177   2.087   0.013  0.00  0.00    +0.054 A 
ATOM     24  C   UNL     1       2.229   1.403   0.608  0.00  0.00    +0.057 A 
ATOM     25  C   UNL     1       2.241   0.022   0.610  0.00  0.00    +0.128 A 
ATOM     26  C   UNL     1       1.206  -0.680   0.020  0.00  0.00    +0.034 A 
ATOM     27  C   UNL     1       0.157  -0.003  -0.574  0.00  0.00    +0.024 A 
ATOM     28  C   UNL     1       0.139   1.379  -0.579  0.00  0.00    +0.062 A 
ATOM     29 CL   UNL     1      -1.175   2.228  -1.331  0.00  0.00    -0.082 Cl
BRANCH  25  30
ATOM     30  N   UNL     1       3.362  -0.707   1.243  0.00  0.00    +0.056 N 
ATOM     31  O   UNL     1       3.373  -1.925   1.245  0.00  0.00    -0.126 OA
ATOM     32  O   UNL     1       4.274  -0.089   1.763  0.00  0.00    -0.126 OA
ENDBRANCH  25  30
ENDBRANCH  21  23
ENDBRANCH  18  19
ENDBRANCH  17  18
ENDBRANCH  11  17
TORSDOF 7
