REMARK  Name = ZINC04139073
REMARK  8 active torsions:
REMARK  status: ('A' for Active; 'I' for Inactive)
REMARK    1  A    between atoms: C_1  and  N_2
REMARK    2  A    between atoms: C_5  and  S_12
REMARK    3  A    between atoms: C_7  and  C_9
REMARK    4  A    between atoms: S_12  and  C_13
REMARK    5  A    between atoms: C_13  and  C_14
REMARK    6  A    between atoms: N_16  and  C_17
REMARK    7  A    between atoms: C_17  and  C_18
REMARK    8  A    between atoms: N_25  and  C_28
REMARK                            x       y       z     vdW  Elec       q    Type
REMARK                         _______ _______ _______ _____ _____    ______ ____
ROOT
ATOM      1  C   UNL     1      -2.327  -0.015   4.124  0.00  0.00    +0.155 C 
ATOM      2  N   UNL     1      -1.825   1.020   3.217  0.00  0.00    -0.281 N 
ATOM      3  C   UNL     1      -2.013   2.350   3.527  0.00  0.00    +0.154 A 
ATOM      4  C   UNL     1      -1.522   3.327   2.640  0.00  0.00    +0.114 A 
ATOM      5  C   UNL     1      -1.714   4.681   2.955  0.00  0.00    +0.115 A 
ATOM      6  N   UNL     1      -2.356   4.976   4.087  0.00  0.00    -0.225 NA
ATOM      7  C   UNL     1      -2.798   4.027   4.886  0.00  0.00    +0.136 A 
ATOM      8  N   UNL     1      -2.639   2.742   4.628  0.00  0.00    -0.214 NA
ATOM      9  C   UNL     1      -0.827   2.887   1.427  0.00  0.00    +0.268 A 
ATOM     10  O   UNL     1      -0.381   3.695   0.633  0.00  0.00    -0.267 OA
ATOM     11  N   UNL     1      -0.698   1.558   1.213  0.00  0.00    -0.263 N 
ATOM     12  C   UNL     1      -1.184   0.664   2.089  0.00  0.00    +0.333 A 
ATOM     13  O   UNL     1      -1.038  -0.519   1.853  0.00  0.00    -0.246 OA
ATOM     14  C   UNL     1      -0.013   1.086   0.008  0.00  0.00    +0.157 C 
ENDROOT
BRANCH   7  15
ATOM     15  C   UNL     1      -3.516   4.424   6.150  0.00  0.00    +0.057 C 
ATOM     16  C   UNL     1      -3.866   5.903   6.329  0.00  0.00    +0.012 C 
ATOM     17  C   UNL     1      -2.747   5.275   7.162  0.00  0.00    +0.012 C 
ENDBRANCH   7  15
BRANCH   5  18
ATOM     18  S   UNL     1      -1.125   5.953   1.888  0.00  0.00    -0.096 S 
BRANCH  18  19
ATOM     19  C   UNL     1      -1.661   7.413   2.813  0.00  0.00    +0.171 C 
BRANCH  19  20
ATOM     20  C   UNL     1      -1.254   8.658   2.068  0.00  0.00    +0.224 C 
ATOM     21  O   UNL     1      -0.658   8.567   1.016  0.00  0.00    -0.275 OA
ATOM     22  N   UNL     1      -1.550   9.872   2.572  0.00  0.00    -0.308 N 
ATOM     23  H   UNL     1      -2.026   9.945   3.414  0.00  0.00    +0.149 HD
BRANCH  22  24
ATOM     24  C   UNL     1      -1.154  11.082   1.848  0.00  0.00    +0.178 C 
BRANCH  24  25
ATOM     25  C   UNL     1      -1.601  12.298   2.618  0.00  0.00    +0.122 A 
ATOM     26  C   UNL     1      -0.884  12.942   3.556  0.00  0.00    +0.046 A 
ATOM     27  C   UNL     1      -1.681  14.017   4.014  0.00  0.00    +0.041 A 
ATOM     28  C   UNL     1      -2.837  13.965   3.328  0.00  0.00    +0.195 A 
ATOM     29  O   UNL     1      -2.780  12.925   2.480  0.00  0.00    -0.466 OA
ENDBRANCH  24  25
ENDBRANCH  22  24
ENDBRANCH  19  20
ENDBRANCH  18  19
ENDBRANCH   5  18
TORSDOF 6
