REMARK  Name = ZINC66536418
REMARK  7 active torsions:
REMARK  status: ('A' for Active; 'I' for Inactive)
REMARK    1  A    between atoms: C_1  and  C_2
REMARK    2  A    between atoms: C_6  and  N_24
REMARK    3  A    between atoms: C_7  and  N_8
REMARK    4  A    between atoms: C_9  and  C_11
REMARK    5  A    between atoms: C_11  and  N_12
REMARK    6  A    between atoms: C_16  and  C_18
REMARK    7  A    between atoms: C_18  and  N_19
REMARK                            x       y       z     vdW  Elec       q    Type
REMARK                         _______ _______ _______ _____ _____    ______ ____
ROOT
ATOM      1  N   UNL     1      -0.335  -0.383   2.442  0.00  0.00    -0.285 N 
ATOM      2  C   UNL     1      -0.399  -0.999   3.639  0.00  0.00    +0.201 C 
ATOM      3  O   UNL     1      -0.442  -2.209   3.696  0.00  0.00    -0.278 OA
ATOM      4  H   UNL     1      -0.350   0.586   2.393  0.00  0.00    +0.155 HD
ENDROOT
BRANCH   1  11
ATOM      5  C   UNL     1       1.777  -2.277   2.221  0.00  0.00    +0.046 C 
ATOM      6  C   UNL     1       0.768  -2.076   1.119  0.00  0.00    -0.027 A 
ATOM      7  C   UNL     1       0.849  -2.826  -0.038  0.00  0.00    +0.005 A 
ATOM      8  C   UNL     1      -0.076  -2.643  -1.049  0.00  0.00    +0.003 A 
ATOM      9  C   UNL     1      -1.085  -1.708  -0.905  0.00  0.00    +0.034 A 
ATOM     10  C   UNL     1      -1.171  -0.954   0.249  0.00  0.00    +0.148 A 
ATOM     11  C   UNL     1      -0.247  -1.140   1.268  0.00  0.00    +0.067 A 
BRANCH  10  12
ATOM     12  N   UNL     1      -2.251   0.047   0.401  0.00  0.00    +0.058 N 
ATOM     13  O   UNL     1      -3.111   0.141  -0.443  0.00  0.00    -0.126 OA
ATOM     14  O   UNL     1      -2.273   0.769   1.370  0.00  0.00    -0.126 OA
ENDBRANCH  10  12
ENDBRANCH   1  11
BRANCH   2  15
ATOM     15  C   UNL     1      -0.417  -0.183   4.906  0.00  0.00    +0.019 C 
BRANCH  15  16
ATOM     16  N   UNL     1      -0.489  -1.082   6.065  0.00  0.00    +0.386 N 
ATOM     17  C   UNL     1       0.752  -1.879   6.155  0.00  0.00    -0.078 C 
ATOM     18  C   UNL     1       1.647  -1.107   7.156  0.00  0.00    -0.020 C 
ATOM     19  C   UNL     1       0.601  -0.595   8.181  0.00  0.00    -0.019 C 
ATOM     20  C   UNL     1      -0.628  -0.288   7.300  0.00  0.00    -0.085 C 
ATOM     21  H   UNL     1      -1.281  -1.700   5.968  0.00  0.00    -0.081 HD
BRANCH  20  22
ATOM     22  C   UNL     1      -1.908  -0.689   8.036  0.00  0.00    -0.094 C 
BRANCH  22  23
ATOM     23  N   UNL     1      -2.099   0.187   9.199  0.00  0.00    +0.379 N 
ATOM     24  C   UNL     1      -2.429   1.566   8.754  0.00  0.00    -0.079 C 
ATOM     25  C   UNL     1      -3.130   2.180   9.992  0.00  0.00    -0.020 C 
ATOM     26  C   UNL     1      -3.950   0.993  10.548  0.00  0.00    -0.020 C 
ATOM     27  C   UNL     1      -3.260  -0.268   9.995  0.00  0.00    -0.079 C 
ATOM     28  H   UNL     1      -1.267   0.195   9.770  0.00  0.00    -0.082 HD
ENDBRANCH  22  23
ENDBRANCH  20  22
ENDBRANCH  15  16
ENDBRANCH   2  15
TORSDOF 6
