REMARK  Name = ZINC12745105
REMARK  8 active torsions:
REMARK  status: ('A' for Active; 'I' for Inactive)
REMARK    1  A    between atoms: C_1  and  C_2
REMARK    2  A    between atoms: C_4  and  C_27
REMARK    3  A    between atoms: C_5  and  C_26
REMARK    4  A    between atoms: C_6  and  S_9
REMARK    5  A    between atoms: C_7  and  C_8
REMARK    6  A    between atoms: S_9  and  N_12
REMARK    7  A    between atoms: N_12  and  N_13
REMARK    8  A    between atoms: C_14  and  C_16
REMARK                            x       y       z     vdW  Elec       q    Type
REMARK                         _______ _______ _______ _____ _____    ______ ____
ROOT
ATOM      1  N   UNL     1       4.540  -2.431   0.530  0.00  0.00    -0.108 NA
ATOM      2  H   UNL     1       4.948  -1.983  -0.228  0.00  0.00    +0.172 HD
ENDROOT
BRANCH   1   3
ATOM      3  N   UNL     1       3.381  -1.903   1.114  0.00  0.00    -0.228 N 
ATOM      4  C   UNL     1       3.367  -0.627   1.550  0.00  0.00    +0.259 C 
ATOM      5  O   UNL     1       4.360   0.065   1.435  0.00  0.00    -0.269 OA
ATOM      6  H   UNL     1       2.589  -2.455   1.206  0.00  0.00    +0.171 HD
BRANCH   4   7
ATOM      7  C   UNL     1       2.147  -0.071   2.166  0.00  0.00    +0.042 A 
ATOM      8  C   UNL     1       1.005  -0.865   2.299  0.00  0.00    +0.017 A 
ATOM      9  C   UNL     1      -0.133  -0.343   2.873  0.00  0.00    +0.050 A 
ATOM     10  C   UNL     1      -0.151   0.972   3.322  0.00  0.00    +0.162 A 
ATOM     11  C   UNL     1       0.985   1.768   3.196  0.00  0.00    +0.163 A 
ATOM     12  C   UNL     1       2.130   1.250   2.619  0.00  0.00    +0.062 A 
ATOM     13  O   UNL     1       0.986   3.055   3.638  0.00  0.00    -0.485 OA
ATOM     14  C   UNL     1      -0.292   3.656   3.872  0.00  0.00    +0.270 C 
ATOM     15  C   UNL     1      -1.155   2.661   4.660  0.00  0.00    +0.270 C 
ATOM     16  O   UNL     1      -1.288   1.468   3.879  0.00  0.00    -0.485 OA
ENDBRANCH   4   7
ENDBRANCH   1   3
BRANCH   1  17
ATOM     17  S   UNL     1       5.213  -3.819   1.131  0.00  0.00    +0.074 S 
ATOM     18  O   UNL     1       6.271  -4.172   0.251  0.00  0.00    -0.152 OA
ATOM     19  O   UNL     1       5.417  -3.602   2.521  0.00  0.00    -0.152 OA
BRANCH  17  25
ATOM     20  C   UNL     1       3.110  -7.908  -1.355  0.00  0.00    +0.044 C 
ATOM     21  C   UNL     1       3.076  -6.956  -0.187  0.00  0.00    -0.045 A 
ATOM     22  C   UNL     1       2.093  -7.080   0.777  0.00  0.00    +0.007 A 
ATOM     23  C   UNL     1       2.062  -6.207   1.849  0.00  0.00    -0.045 A 
ATOM     24  C   UNL     1       3.014  -5.211   1.957  0.00  0.00    -0.021 A 
ATOM     25  C   UNL     1       3.998  -5.088   0.994  0.00  0.00    +0.113 A 
ATOM     26  C   UNL     1       4.026  -5.958  -0.081  0.00  0.00    -0.021 A 
ATOM     27  C   UNL     1       5.095  -5.820  -1.134  0.00  0.00    +0.046 C 
ATOM     28  C   UNL     1       2.981  -4.260   3.125  0.00  0.00    +0.046 C 
ATOM     29  C   UNL     1       0.990  -6.341   2.899  0.00  0.00    +0.044 C 
ENDBRANCH  17  25
ENDBRANCH   1  17
TORSDOF 4
