REMARK  Name = ZINC36607990
REMARK  12 active torsions:
REMARK  status: ('A' for Active; 'I' for Inactive)
REMARK    1  A    between atoms: C_1  and  C_2
REMARK    2  A    between atoms: C_5  and  C_9
REMARK    3  A    between atoms: C_6  and  C_8
REMARK    4  A    between atoms: C_9  and  C_11
REMARK    5  A    between atoms: C_9  and  N_18
REMARK    6  A    between atoms: N_13  and  C_14
REMARK    7  A    between atoms: C_14  and  C_15
REMARK    8  A    between atoms: C_14  and  C_16
REMARK    9  A    between atoms: C_14  and  C_17
REMARK   10  A    between atoms: N_18  and  C_19
REMARK   11  A    between atoms: C_25  and  C_27
REMARK   12  A    between atoms: C_32  and  O_33
REMARK                            x       y       z     vdW  Elec       q    Type
REMARK                         _______ _______ _______ _____ _____    ______ ____
ROOT
ATOM      1  C   UNL     1      -0.318  -4.611  -0.151  0.00  0.00    +0.198 C 
ENDROOT
BRANCH   1   6
ATOM      2  C   UNL     1      -2.258   0.478  -2.083  0.00  0.00    +0.044 C 
ATOM      3  C   UNL     1      -1.752  -0.849  -1.579  0.00  0.00    -0.050 A 
ATOM      4  C   UNL     1      -2.632  -1.899  -1.395  0.00  0.00    +0.004 A 
ATOM      5  C   UNL     1      -2.168  -3.117  -0.933  0.00  0.00    +0.006 A 
ATOM      6  C   UNL     1      -0.824  -3.284  -0.656  0.00  0.00    -0.015 A 
ATOM      7  C   UNL     1       0.056  -2.234  -0.841  0.00  0.00    -0.045 A 
ATOM      8  C   UNL     1      -0.408  -1.018  -1.307  0.00  0.00    +0.007 A 
ATOM      9  C   UNL     1       1.521  -2.416  -0.538  0.00  0.00    +0.044 C 
ENDBRANCH   1   6
BRANCH   1  10
ATOM     10  C   UNL     1      -1.482  -5.450   0.308  0.00  0.00    +0.239 C 
ATOM     11  O   UNL     1      -1.765  -6.470  -0.284  0.00  0.00    -0.273 OA
ATOM     12  N   UNL     1      -2.209  -5.068   1.377  0.00  0.00    -0.309 N 
ATOM     13  H   UNL     1      -2.014  -4.227   1.820  0.00  0.00    +0.149 HD
BRANCH  12  14
ATOM     14  C   UNL     1      -3.293  -5.921   1.869  0.00  0.00    +0.026 C 
ATOM     15  C   UNL     1      -2.725  -7.283   2.276  0.00  0.00    +0.031 C 
ATOM     16  C   UNL     1      -3.952  -5.261   3.081  0.00  0.00    +0.031 C 
ATOM     17  C   UNL     1      -4.333  -6.112   0.763  0.00  0.00    +0.031 C 
ENDBRANCH  12  14
ENDBRANCH   1  10
BRANCH   1  18
ATOM     18  N   UNL     1       0.390  -5.305  -1.229  0.00  0.00    -0.251 N 
ATOM     19  C   UNL     1       1.682  -5.657  -1.070  0.00  0.00    +0.255 C 
ATOM     20  O   UNL     1       2.261  -5.391  -0.035  0.00  0.00    -0.269 OA
BRANCH  18  21
ATOM     21  C   UNL     1      -0.274  -5.604  -2.423  0.00  0.00    +0.038 A 
ATOM     22  C   UNL     1      -0.399  -6.924  -2.838  0.00  0.00    +0.023 A 
ATOM     23  C   UNL     1      -1.056  -7.215  -4.018  0.00  0.00    +0.002 A 
ATOM     24  C   UNL     1      -1.589  -6.196  -4.785  0.00  0.00    +0.000 A 
ATOM     25  C   UNL     1      -1.466  -4.881  -4.374  0.00  0.00    +0.002 A 
ATOM     26  C   UNL     1      -0.815  -4.583  -3.193  0.00  0.00    +0.023 A 
ENDBRANCH  18  21
BRANCH  19  27
ATOM     27  C   UNL     1       2.392  -6.364  -2.152  0.00  0.00    +0.079 A 
ATOM     28  C   UNL     1       2.030  -6.153  -3.485  0.00  0.00    +0.017 A 
ATOM     29  C   UNL     1       2.698  -6.817  -4.491  0.00  0.00    +0.001 A 
ATOM     30  C   UNL     1       3.728  -7.693  -4.188  0.00  0.00    +0.004 A 
ATOM     31  C   UNL     1       4.095  -7.910  -2.875  0.00  0.00    +0.046 A 
ATOM     32  C   UNL     1       3.438  -7.246  -1.850  0.00  0.00    +0.129 A 
BRANCH  32  33
ATOM     33  O   UNL     1       3.802  -7.455  -0.559  0.00  0.00    -0.506 OA
ATOM     34  H   UNL     1       3.330  -8.181  -0.130  0.00  0.00    +0.292 HD
ENDBRANCH  32  33
ENDBRANCH  19  27
ENDBRANCH   1  18
TORSDOF 7
