REMARK  Name = ZINC32637837
REMARK  4 active torsions:
REMARK  status: ('A' for Active; 'I' for Inactive)
REMARK    1  A    between atoms: C_3  and  N_27
REMARK    2  A    between atoms: C_6  and  C_7
REMARK    3  A    between atoms: N_11  and  N_15
REMARK    4  A    between atoms: C_19  and  C_22
REMARK                            x       y       z     vdW  Elec       q    Type
REMARK                         _______ _______ _______ _____ _____    ______ ____
ROOT
ATOM      1  C   UNL     1      -5.007   4.006   0.047  0.00  0.00    +0.028 C 
ATOM      2  C   UNL     1      -5.027   5.358   0.157  0.00  0.00    +0.079 C 
ATOM      3  C   UNL     1      -6.179   6.276   0.287  0.00  0.00    +0.275 C 
ATOM      4  O   UNL     1      -7.324   5.866   0.310  0.00  0.00    -0.267 OA
ATOM      5  N   UNL     1      -5.900   7.566   0.378  0.00  0.00    -0.170 N 
ATOM      6  C   UNL     1      -4.629   8.015   0.353  0.00  0.00    +0.138 C 
ATOM      7  S   UNL     1      -4.071   9.630   0.458  0.00  0.00    -0.026 S 
ATOM      8  S   UNL     1      -3.668   6.519   0.191  0.00  0.00    -0.059 S 
ENDROOT
BRANCH   5   9
ATOM      9  N   UNL     1      -6.949   8.486   0.504  0.00  0.00    -0.239 N 
ATOM     10  C   UNL     1      -7.207   9.082   1.734  0.00  0.00    +0.154 A 
ATOM     11  C   UNL     1      -8.248  10.000   1.850  0.00  0.00    +0.083 A 
ATOM     12  C   UNL     1      -8.496  10.582   3.081  0.00  0.00    +0.037 A 
ATOM     13  C   UNL     1      -7.686  10.233   4.154  0.00  0.00    +0.074 A 
ATOM     14  C   UNL     1      -6.669   9.320   3.965  0.00  0.00    +0.125 A 
ATOM     15  N   UNL     1      -6.458   8.777   2.781  0.00  0.00    -0.237 NA
ATOM     16 CL   UNL     1      -9.224  10.404   0.473  0.00  0.00    -0.080 Cl
ATOM     17  H   UNL     1      -7.569   8.736  -0.370  0.00  0.00    +0.172 HD
BRANCH  13  18
ATOM     18  C   UNL     1      -7.916  10.846   5.512  0.00  0.00    +0.419 C 
ATOM     19  F   UNL     1      -6.979  10.338   6.418  0.00  0.00    -0.166 F 
ATOM     20  F   UNL     1      -7.777  12.235   5.426  0.00  0.00    -0.166 F 
ATOM     21  F   UNL     1      -9.207  10.533   5.952  0.00  0.00    -0.166 F 
ENDBRANCH  13  18
ENDBRANCH   5   9
BRANCH   1  27
ATOM     22  C   UNL     1      -3.680   1.917  -0.198  0.00  0.00    +0.010 A 
ATOM     23  C   UNL     1      -2.496   1.274  -0.488  0.00  0.00    +0.033 A 
ATOM     24  C   UNL     1      -1.376   2.005  -0.843  0.00  0.00    +0.126 A 
ATOM     25  C   UNL     1      -1.433   3.387  -0.903  0.00  0.00    +0.033 A 
ATOM     26  C   UNL     1      -2.611   4.045  -0.620  0.00  0.00    +0.010 A 
ATOM     27  C   UNL     1      -3.748   3.313  -0.261  0.00  0.00    -0.024 A 
BRANCH  24  28
ATOM     28  N   UNL     1      -0.108   1.307  -1.154  0.00  0.00    +0.056 N 
ATOM     29  O   UNL     1      -0.053   0.091  -1.097  0.00  0.00    -0.126 OA
ATOM     30  O   UNL     1       0.878   1.947  -1.471  0.00  0.00    -0.126 OA
ENDBRANCH  24  28
ENDBRANCH   1  27
TORSDOF 4
