REMARK  Name = ZINC41678910
REMARK  4 active torsions:
REMARK  status: ('A' for Active; 'I' for Inactive)
REMARK    1  A    between atoms: C_5  and  N_7
REMARK    2  A    between atoms: N_7  and  C_8
REMARK    3  A    between atoms: C_8  and  C_10
REMARK    4  A    between atoms: C_8  and  C_16
REMARK                            x       y       z     vdW  Elec       q    Type
REMARK                         _______ _______ _______ _____ _____    ______ ____
ROOT
ATOM      1  C   UNL     1      -0.019  -2.831  -0.013  0.00  0.00    +0.194 C 
ENDROOT
BRANCH   1   2
ATOM      2  C   UNL     1       0.217  -4.197   0.577  0.00  0.00    +0.020 A 
ATOM      3  C   UNL     1      -0.570  -4.912   1.417  0.00  0.00    +0.014 A 
ATOM      4  C   UNL     1      -0.146  -6.160   1.835  0.00  0.00    +0.023 A 
ATOM      5  C   UNL     1       1.046  -6.630   1.392  0.00  0.00    +0.055 A 
ATOM      6  S   UNL     1       1.605  -5.296   0.346  0.00  0.00    -0.084 S 
ATOM      7 BR   UNL     1       1.893  -8.277   1.777  0.00  0.00    -0.043 Br
ENDBRANCH   1   2
BRANCH   1   8
ATOM      8  C   UNL     1      -0.528  -2.974  -1.424  0.00  0.00    +0.236 C 
ATOM      9  O   UNL     1       0.097  -2.495  -2.346  0.00  0.00    -0.274 OA
ATOM     10  N   UNL     1      -1.679  -3.635  -1.662  0.00  0.00    -0.327 N 
ATOM     11  H   UNL     1      -2.179  -4.019  -0.924  0.00  0.00    +0.145 HD
ATOM     12  H   UNL     1      -2.006  -3.728  -2.570  0.00  0.00    +0.145 HD
ENDBRANCH   1   8
BRANCH   1  13
ATOM     13  N   UNL     1       1.237  -2.078  -0.021  0.00  0.00    -0.328 N 
ATOM     14  H   UNL     1       2.085  -2.549  -0.033  0.00  0.00    +0.147 HD
BRANCH  13  19
ATOM     15  C   UNL     1      -0.017   1.377   0.010  0.00  0.00    +0.002 A 
ATOM     16  C   UNL     1       1.170   2.086   0.002  0.00  0.00    +0.001 A 
ATOM     17  C   UNL     1       2.380   1.417  -0.013  0.00  0.00    +0.017 A 
ATOM     18  C   UNL     1       2.406   0.035  -0.021  0.00  0.00    +0.039 A 
ATOM     19  C   UNL     1       1.215  -0.681  -0.013  0.00  0.00    +0.042 A 
ATOM     20  C   UNL     1       0.002  -0.004   0.002  0.00  0.00    +0.024 A 
ATOM     21 BR   UNL     1       4.061  -0.880  -0.043  0.00  0.00    -0.048 Br
ENDBRANCH  13  19
ENDBRANCH   1  13
TORSDOF 4
