REMARK  Name = ZINC38904721
REMARK  7 active torsions:
REMARK  status: ('A' for Active; 'I' for Inactive)
REMARK    1  A    between atoms: C_1  and  C_2
REMARK    2  A    between atoms: C_2  and  C_36
REMARK    3  A    between atoms: C_4  and  N_13
REMARK    4  A    between atoms: C_14  and  C_16
REMARK    5  A    between atoms: N_21  and  C_23
REMARK    6  A    between atoms: C_23  and  C_24
REMARK    7  A    between atoms: C_26  and  C_29
REMARK                            x       y       z     vdW  Elec       q    Type
REMARK                         _______ _______ _______ _____ _____    ______ ____
ROOT
ATOM      1  C   UNL     1      -5.722  -0.730   2.352  0.00  0.00    +0.058 C 
ATOM      2  C   UNL     1      -5.472  -1.986   3.192  0.00  0.00    +0.009 C 
ATOM      3  C   UNL     1      -6.812  -2.666   3.487  0.00  0.00    -0.018 C 
ATOM      4  C   UNL     1      -7.738  -1.673   4.191  0.00  0.00    -0.078 C 
ATOM      5  N   UNL     1      -7.959  -0.507   3.327  0.00  0.00    +0.386 N 
ATOM      6  C   UNL     1      -6.689   0.192   3.097  0.00  0.00    -0.065 C 
ATOM      7  H   UNL     1      -8.338  -0.812   2.442  0.00  0.00    -0.081 HD
ENDROOT
BRANCH   1   9
ATOM      8  N   UNL     1      -3.410  -0.634   1.479  0.00  0.00    -0.308 N 
ATOM      9  C   UNL     1      -4.418  -0.011   2.120  0.00  0.00    +0.215 C 
ATOM     10  O   UNL     1      -4.277   1.128   2.512  0.00  0.00    -0.276 OA
ATOM     11  H   UNL     1      -3.523  -1.545   1.166  0.00  0.00    +0.149 HD
BRANCH   8  15
ATOM     12  C   UNL     1      -0.019   1.526   0.010  0.00  0.00    +0.055 C 
ATOM     13  C   UNL     1       0.002  -0.004   0.002  0.00  0.00    +0.107 C 
ATOM     14  C   UNL     1      -1.435  -0.540   0.040  0.00  0.00    +0.074 C 
ATOM     15  C   UNL     1      -2.142   0.066   1.254  0.00  0.00    +0.110 C 
ATOM     16  C   UNL     1      -1.268  -0.077   2.474  0.00  0.00    +0.015 A 
ATOM     17  C   UNL     1      -1.846   0.054   3.727  0.00  0.00    +0.009 A 
ATOM     18  C   UNL     1      -1.075  -0.067   4.866  0.00  0.00    +0.001 A 
ATOM     19  C   UNL     1       0.281  -0.320   4.759  0.00  0.00    +0.004 A 
ATOM     20  C   UNL     1       0.861  -0.454   3.515  0.00  0.00    +0.046 A 
ATOM     21  C   UNL     1       0.087  -0.334   2.365  0.00  0.00    +0.126 A 
ATOM     22  O   UNL     1       0.692  -0.482   1.158  0.00  0.00    -0.486 OA
ATOM     23  C   UNL     1       0.706  -0.503  -1.262  0.00  0.00    +0.055 C 
ENDBRANCH   8  15
ENDBRANCH   1   9
BRANCH   5  24
ATOM     24  C   UNL     1      -8.910   0.407   3.974  0.00  0.00    +0.022 C 
BRANCH  24  25
ATOM     25  C   UNL     1     -10.254  -0.265   4.089  0.00  0.00    +0.211 A 
ATOM     26  N   UNL     1     -10.661  -0.985   5.096  0.00  0.00    -0.193 NA
ATOM     27  C   UNL     1     -11.909  -1.431   4.869  0.00  0.00    +0.202 A 
ATOM     28  N   UNL     1     -12.305  -0.989   3.700  0.00  0.00    -0.056 NA
ATOM     29  O   UNL     1     -11.233  -0.219   3.177  0.00  0.00    -0.340 OA
BRANCH  27  30
ATOM     30  C   UNL     1     -12.706  -2.281   5.788  0.00  0.00    +0.023 A 
ATOM     31  C   UNL     1     -12.170  -2.682   7.010  0.00  0.00    +0.012 A 
ATOM     32  C   UNL     1     -12.914  -3.473   7.862  0.00  0.00    +0.002 A 
ATOM     33  C   UNL     1     -14.190  -3.868   7.504  0.00  0.00    +0.015 A 
ATOM     34  C   UNL     1     -14.728  -3.474   6.291  0.00  0.00    +0.019 A 
ATOM     35  C   UNL     1     -13.993  -2.677   5.434  0.00  0.00    +0.027 A 
ATOM     36 BR   UNL     1     -16.473  -4.021   5.809  0.00  0.00    -0.050 Br
ENDBRANCH  27  30
ENDBRANCH  24  25
ENDBRANCH   5  24
TORSDOF 5
