REMARK  Name = ZINC38581349
REMARK  5 active torsions:
REMARK  status: ('A' for Active; 'I' for Inactive)
REMARK    1  A    between atoms: C_7  and  C_10
REMARK    2  A    between atoms: N_11  and  N_12
REMARK    3  A    between atoms: C_23  and  S_28
REMARK    4  A    between atoms: C_25  and  N_27
REMARK    5  A    between atoms: S_28  and  C_31
REMARK                            x       y       z     vdW  Elec       q    Type
REMARK                         _______ _______ _______ _____ _____    ______ ____
ROOT
ATOM      1  N   UNL     1       0.278  -5.364  -0.105  0.00  0.00    -0.186 N 
ATOM      2  C   UNL     1      -1.103  -5.295  -0.218  0.00  0.00    +0.166 A 
ATOM      3  C   UNL     1      -1.673  -6.573  -0.338  0.00  0.00    +0.111 A 
ATOM      4  N   UNL     1      -2.970  -6.728  -0.456  0.00  0.00    -0.245 NA
ATOM      5  C   UNL     1      -3.773  -5.658  -0.464  0.00  0.00    +0.090 A 
ATOM      6  C   UNL     1      -5.166  -5.796  -0.589  0.00  0.00    +0.030 A 
ATOM      7  C   UNL     1      -5.956  -4.687  -0.593  0.00  0.00    +0.002 A 
ATOM      8  C   UNL     1      -5.404  -3.413  -0.475  0.00  0.00    +0.002 A 
ATOM      9  C   UNL     1      -4.059  -3.241  -0.353  0.00  0.00    +0.030 A 
ATOM     10  C   UNL     1      -3.211  -4.363  -0.344  0.00  0.00    +0.091 A 
ATOM     11  N   UNL     1      -1.888  -4.224  -0.226  0.00  0.00    -0.227 NA
ATOM     12  C   UNL     1      -0.556  -7.594  -0.300  0.00  0.00    +0.225 C 
ATOM     13  C   UNL     1       0.725  -6.757  -0.150  0.00  0.00    +0.195 C 
ENDROOT
BRANCH  13  14
ATOM     14  N   UNL     1       1.416  -7.110   1.097  0.00  0.00    -0.309 NA
ATOM     15  H   UNL     1       2.213  -6.511   1.251  0.00  0.00    +0.120 HD
ATOM     16  H   UNL     1       0.783  -7.080   1.883  0.00  0.00    +0.120 HD
ENDBRANCH  13  14
BRANCH  12  17
ATOM     17  S   UNL     1      -0.513  -8.543  -1.845  0.00  0.00    +0.015 S 
ATOM     18  O   UNL     1      -0.393  -7.664  -2.956  0.00  0.00    -0.168 OA
ATOM     19  O   UNL     1       0.353  -9.661  -1.709  0.00  0.00    -0.168 OA
BRANCH  17  20
ATOM     20  C   UNL     1      -2.125  -9.238  -1.995  0.00  0.00    +0.126 A 
ATOM     21  C   UNL     1      -3.223  -8.726  -2.604  0.00  0.00    +0.035 A 
ATOM     22  C   UNL     1      -4.396  -9.457  -2.597  0.00  0.00    +0.009 A 
ATOM     23  C   UNL     1      -4.414 -10.665  -1.982  0.00  0.00    +0.047 A 
ATOM     24  S   UNL     1      -2.735 -10.803  -1.391  0.00  0.00    -0.078 S 
ENDBRANCH  17  20
ENDBRANCH  12  17
BRANCH   1  26
ATOM     25  C   UNL     1       2.360  -4.508   0.006  0.00  0.00    +0.136 C 
ATOM     26  N   UNL     1       1.058  -4.343   0.018  0.00  0.00    -0.185 NA
BRANCH  25  33
ATOM     27  C   UNL     1       6.877  -4.158   0.172  0.00  0.00    +0.001 A 
ATOM     28  C   UNL     1       7.326  -2.869   0.470  0.00  0.00    +0.002 A 
ATOM     29  C   UNL     1       6.466  -1.844   0.683  0.00  0.00    +0.026 A 
ATOM     30  C   UNL     1       5.067  -2.068   0.606  0.00  0.00    +0.043 A 
ATOM     31  N   UNL     1       4.043  -1.255   0.768  0.00  0.00    -0.380 N 
ATOM     32  C   UNL     1       2.796  -2.001   0.577  0.00  0.00    +0.150 C 
ATOM     33  C   UNL     1       3.204  -3.424   0.266  0.00  0.00    +0.000 C 
ATOM     34  C   UNL     1       4.599  -3.429   0.291  0.00  0.00    +0.004 A 
ATOM     35  C   UNL     1       5.553  -4.447   0.082  0.00  0.00    +0.010 A 
ATOM     36  H   UNL     1       4.105  -0.311   0.982  0.00  0.00    +0.160 HD
ENDBRANCH  25  33
ENDBRANCH   1  26
TORSDOF 5
