REMARK  Name = ZINC23354243
REMARK  7 active torsions:
REMARK  status: ('A' for Active; 'I' for Inactive)
REMARK    1  A    between atoms: C_1  and  C_2
REMARK    2  A    between atoms: C_2  and  C_3
REMARK    3  A    between atoms: C_2  and  N_4
REMARK    4  A    between atoms: N_7  and  C_10
REMARK    5  A    between atoms: C_16  and  C_22
REMARK    6  A    between atoms: N_18  and  C_19
REMARK    7  A    between atoms: C_19  and  C_20
REMARK                            x       y       z     vdW  Elec       q    Type
REMARK                         _______ _______ _______ _____ _____    ______ ____
ROOT
ATOM      1  C   UNL     1       3.901  -2.576  -3.238  0.00  0.00    +0.061 C 
ATOM      2  C   UNL     1       5.358  -2.126  -3.375  0.00  0.00    +0.025 C 
ATOM      3  C   UNL     1       5.818  -2.302  -4.827  0.00  0.00    +0.057 C 
ATOM      4  C   UNL     1       5.466  -3.699  -5.270  0.00  0.00    +0.044 A 
ATOM      5  C   UNL     1       4.579  -4.495  -4.624  0.00  0.00    +0.007 A 
ATOM      6  C   UNL     1       4.542  -5.699  -5.348  0.00  0.00    +0.151 A 
ATOM      7  N   UNL     1       5.383  -5.559  -6.358  0.00  0.00    -0.166 NA
ATOM      8  N   UNL     1       5.929  -4.392  -6.323  0.00  0.00    -0.264 N 
ATOM      9  C   UNL     1       3.820  -4.101  -3.387  0.00  0.00    +0.058 C 
ENDROOT
BRANCH   6  10
ATOM     10  C   UNL     1       3.723  -6.889  -5.040  0.00  0.00    +0.267 C 
ATOM     11  O   UNL     1       2.910  -6.850  -4.137  0.00  0.00    -0.268 OA
ATOM     12  N   UNL     1       3.877  -8.017  -5.761  0.00  0.00    -0.296 N 
ATOM     13  C   UNL     1       4.938  -8.074  -6.742  0.00  0.00    +0.108 C 
ATOM     14  C   UNL     1       4.415  -7.554  -8.103  0.00  0.00    +0.019 C 
ATOM     15  C   UNL     1       3.480  -8.523  -8.696  0.00  0.00    +0.002 C 
ATOM     16  C   UNL     1       2.218  -8.762  -7.873  0.00  0.00    +0.002 C 
ATOM     17  C   UNL     1       2.495  -9.812  -6.825  0.00  0.00    +0.019 C 
ATOM     18  C   UNL     1       2.959  -9.146  -5.512  0.00  0.00    +0.108 C 
ENDBRANCH   6  10
BRANCH   1  22
ATOM     19  N   UNL     1       1.590  -0.843  -0.151  0.00  0.00    +0.383 N 
ATOM     20  C   UNL     1       2.969  -0.369  -0.331  0.00  0.00    -0.063 C 
ATOM     21  C   UNL     1       3.452  -0.728  -1.738  0.00  0.00    +0.066 C 
ATOM     22  N   UNL     1       3.390  -2.186  -1.917  0.00  0.00    -0.303 NA
ATOM     23  C   UNL     1       2.021  -2.678  -1.715  0.00  0.00    +0.066 C 
ATOM     24  C   UNL     1       1.548  -2.303  -0.309  0.00  0.00    -0.063 C 
ATOM     25  H   UNL     1       0.994  -0.413  -0.843  0.00  0.00    -0.081 HD
BRANCH  19  27
ATOM     26  C   UNL     1       1.163   1.038   1.357  0.00  0.00    -0.014 C 
ATOM     27  C   UNL     1       1.120  -0.482   1.192  0.00  0.00    -0.075 C 
ATOM     28  C   UNL     1      -0.317  -0.975   1.379  0.00  0.00    -0.014 C 
ENDBRANCH  19  27
ENDBRANCH   1  22
BRANCH   8  29
ATOM     29  C   UNL     1       6.911  -3.895  -7.290  0.00  0.00    +0.170 C 
BRANCH  29  30
ATOM     30  C   UNL     1       8.300  -4.242  -6.818  0.00  0.00    -0.012 C 
ATOM     31  C   UNL     1       9.109  -4.911  -7.601  0.00  0.00    +0.006 C 
ENDBRANCH  29  30
ENDBRANCH   8  29
TORSDOF 5
