REMARK  Name = ZINC63070288
REMARK  4 active torsions:
REMARK  status: ('A' for Active; 'I' for Inactive)
REMARK    1  A    between atoms: C_5  and  C_7
REMARK    2  A    between atoms: C_7  and  C_8
REMARK    3  A    between atoms: C_8  and  N_9
REMARK    4  A    between atoms: N_12  and  C_13
REMARK                            x       y       z     vdW  Elec       q    Type
REMARK                         _______ _______ _______ _____ _____    ______ ____
ROOT
ATOM      1  N   UNL     1       1.442  -4.201   1.365  0.00  0.00    -0.299 N 
ATOM      2  C   UNL     1       1.547  -4.870   2.531  0.00  0.00    +0.300 C 
ATOM      3  O   UNL     1       1.617  -4.257   3.579  0.00  0.00    -0.253 OA
ATOM      4  N   UNL     1       1.574  -6.217   2.535  0.00  0.00    -0.296 N 
ATOM      5  H   UNL     1       1.386  -4.690   0.529  0.00  0.00    +0.150 HD
ATOM      6  H   UNL     1       1.518  -6.706   1.699  0.00  0.00    +0.151 HD
ENDROOT
BRANCH   4   7
ATOM      7  C   UNL     1       1.688  -6.943   3.802  0.00  0.00    +0.077 C 
ATOM      8  C   UNL     1       0.298  -7.114   4.419  0.00  0.00    +0.041 C 
ATOM      9  C   UNL     1       0.424  -7.843   5.760  0.00  0.00    +0.108 C 
ATOM     10  N   UNL     1       1.149  -9.104   5.547  0.00  0.00    -0.317 N 
ATOM     11  C   UNL     1       2.457  -9.062   4.879  0.00  0.00    +0.108 C 
ATOM     12  C   UNL     1       2.307  -8.319   3.547  0.00  0.00    +0.041 C 
ATOM     13  C   UNL     1       0.607 -10.312   5.969  0.00  0.00    +0.099 A 
ATOM     14  C   UNL     1      -0.571 -10.318   6.709  0.00  0.00    +0.042 A 
ATOM     15  C   UNL     1      -1.099 -11.528   7.123  0.00  0.00    +0.005 A 
ATOM     16  C   UNL     1      -0.429 -12.695   6.781  0.00  0.00    +0.018 A 
ATOM     17  C   UNL     1       0.735 -12.615   6.044  0.00  0.00    +0.084 A 
ATOM     18  N   UNL     1       1.213 -11.447   5.658  0.00  0.00    -0.350 N 
ATOM     19  H   UNL     1       2.031 -11.419   5.138  0.00  0.00    +0.166 HD
ENDBRANCH   4   7
BRANCH   1  20
ATOM     20  C   UNL     1       1.413  -2.736   1.361  0.00  0.00    +0.110 C 
BRANCH  20  21
ATOM     21  C   UNL     1       1.290  -2.233  -0.079  0.00  0.00    +0.055 C 
BRANCH  21  26
ATOM     22  C   UNL     1       0.021   1.322  -0.102  0.00  0.00    +0.000 A 
ATOM     23  C   UNL     1       1.203   2.038  -0.093  0.00  0.00    +0.001 A 
ATOM     24  C   UNL     1       2.414   1.373  -0.080  0.00  0.00    +0.020 A 
ATOM     25  C   UNL     1       2.443  -0.011  -0.075  0.00  0.00    +0.044 A 
ATOM     26  C   UNL     1       1.259  -0.727  -0.084  0.00  0.00    -0.028 A 
ATOM     27  C   UNL     1       0.049  -0.060  -0.098  0.00  0.00    +0.005 A 
ATOM     28 CL   UNL     1       3.964  -0.848  -0.059  0.00  0.00    -0.083 Cl
ENDBRANCH  21  26
ENDBRANCH  20  21
ENDBRANCH   1  20
TORSDOF 4
