REMARK  Name = ZINC06786105
REMARK  10 active torsions:
REMARK  status: ('A' for Active; 'I' for Inactive)
REMARK    1  A    between atoms: C_1  and  O_2
REMARK    2  A    between atoms: O_2  and  C_3
REMARK    3  A    between atoms: C_5  and  C_12
REMARK    4  A    between atoms: C_7  and  O_10
REMARK    5  A    between atoms: C_8  and  O_9
REMARK    6  A    between atoms: O_10  and  C_11
REMARK    7  A    between atoms: N_13  and  N_14
REMARK    8  A    between atoms: N_14  and  C_15
REMARK    9  A    between atoms: C_18  and  S_21
REMARK   10  A    between atoms: S_21  and  N_24
REMARK                            x       y       z     vdW  Elec       q    Type
REMARK                         _______ _______ _______ _____ _____    ______ ____
ROOT
ATOM      1  C   UNL     1       2.355   5.493   0.008  0.00  0.00    +0.138 C 
ATOM      2  N   UNL     1       2.369   4.195   0.002  0.00  0.00    -0.190 NA
ENDROOT
BRANCH   1   5
ATOM      3  C   UNL     1       4.803   8.342   0.000  0.00  0.00    +0.166 A 
ATOM      4  C   UNL     1       3.611   7.641   0.007  0.00  0.00    +0.059 A 
ATOM      5  C   UNL     1       3.624   6.244   0.000  0.00  0.00    +0.002 A 
ATOM      6  C   UNL     1       4.842   5.560  -0.009  0.00  0.00    +0.059 A 
ATOM      7  C   UNL     1       6.031   6.267  -0.021  0.00  0.00    +0.166 A 
ATOM      8  C   UNL     1       6.015   7.658  -0.014  0.00  0.00    +0.201 A 
BRANCH   3  10
ATOM      9  C   UNL     1       3.512  10.340   0.022  0.00  0.00    +0.277 C 
ATOM     10  O   UNL     1       4.791   9.702   0.007  0.00  0.00    -0.491 OA
ENDBRANCH   3  10
BRANCH   8  11
ATOM     11  O   UNL     1       7.186   8.351  -0.020  0.00  0.00    -0.501 OA
ATOM     12  H   UNL     1       7.532   8.547   0.861  0.00  0.00    +0.292 HD
ENDBRANCH   8  11
BRANCH   7  13
ATOM     13  O   UNL     1       7.217   5.602  -0.035  0.00  0.00    -0.491 OA
ATOM     14  C   UNL     1       7.160   4.174  -0.042  0.00  0.00    +0.277 C 
ENDBRANCH   7  13
ENDBRANCH   1   5
BRANCH   2  15
ATOM     15  N   UNL     1       1.164   3.481   0.009  0.00  0.00    -0.238 N 
ATOM     16  H   UNL     1       0.319   3.957   0.019  0.00  0.00    +0.174 HD
BRANCH  15  17
ATOM     17  C   UNL     1       1.179   2.086   0.002  0.00  0.00    +0.048 A 
ATOM     18  C   UNL     1      -0.017   1.377   0.010  0.00  0.00    +0.026 A 
ATOM     19  C   UNL     1       0.002  -0.004   0.002  0.00  0.00    +0.030 A 
ATOM     20  C   UNL     1       1.208  -0.681  -0.013  0.00  0.00    +0.105 A 
ATOM     21  C   UNL     1       2.399   0.022  -0.020  0.00  0.00    +0.030 A 
ATOM     22  C   UNL     1       2.389   1.402  -0.013  0.00  0.00    +0.026 A 
BRANCH  20  23
ATOM     23  S   UNL     1       1.227  -2.443  -0.021  0.00  0.00    +0.056 S 
ATOM     24  O   UNL     1       2.482  -2.838   0.516  0.00  0.00    -0.153 OA
ATOM     25  O   UNL     1      -0.009  -2.865   0.539  0.00  0.00    -0.153 OA
BRANCH  23  26
ATOM     26  N   UNL     1       1.217  -2.925  -1.605  0.00  0.00    -0.204 NA
ATOM     27  H   UNL     1       1.203  -2.263  -2.314  0.00  0.00    +0.144 HD
ATOM     28  H   UNL     1       1.225  -3.870  -1.825  0.00  0.00    +0.144 HD
ENDBRANCH  23  26
ENDBRANCH  20  23
ENDBRANCH  15  17
ENDBRANCH   2  15
TORSDOF 8
