REMARK  Name = ZINC62834289
REMARK  4 active torsions:
REMARK  status: ('A' for Active; 'I' for Inactive)
REMARK    1  A    between atoms: C_6  and  N_7
REMARK    2  A    between atoms: C_9  and  C_12
REMARK    3  A    between atoms: N_14  and  C_15
REMARK    4  A    between atoms: C_15  and  C_16
REMARK                            x       y       z     vdW  Elec       q    Type
REMARK                         _______ _______ _______ _____ _____    ______ ____
ROOT
ATOM      1  C   UNL     1      -0.017   1.391   0.010  0.00  0.00    +0.025 A 
ATOM      2  C   UNL     1       1.158   2.107   0.002  0.00  0.00    +0.028 A 
ATOM      3  C   UNL     1       2.380   1.441  -0.013  0.00  0.00    +0.047 A 
ATOM      4  C   UNL     1       2.406   0.033  -0.021  0.00  0.00    +0.002 A 
ATOM      5  C   UNL     1       1.203  -0.685  -0.013  0.00  0.00    +0.032 A 
ATOM      6  C   UNL     1       0.002  -0.004   0.002  0.00  0.00    +0.025 A 
ATOM      7  C   UNL     1       3.768  -0.355  -0.036  0.00  0.00    +0.041 A 
ATOM      8  C   UNL     1       4.521   0.775  -0.038  0.00  0.00    +0.103 A 
ATOM      9  N   UNL     1       3.687   1.876  -0.024  0.00  0.00    -0.351 N 
ATOM     10  H   UNL     1       3.974   2.803  -0.022  0.00  0.00    +0.166 HD
ENDROOT
BRANCH   8  11
ATOM     11  C   UNL     1       5.991   0.820  -0.052  0.00  0.00    +0.260 C 
ATOM     12  O   UNL     1       6.631  -0.214  -0.063  0.00  0.00    -0.269 OA
ATOM     13  N   UNL     1       6.629   2.008  -0.052  0.00  0.00    -0.310 N 
ATOM     14  H   UNL     1       6.119   2.832  -0.043  0.00  0.00    +0.149 HD
BRANCH  13  15
ATOM     15  C   UNL     1       8.093   2.052  -0.066  0.00  0.00    +0.110 C 
BRANCH  15  16
ATOM     16  C   UNL     1       8.559   3.510  -0.063  0.00  0.00    +0.034 C 
ATOM     17  C   UNL     1      10.109   3.595  -0.021  0.00  0.00    +0.035 C 
ATOM     18  C   UNL     1      10.349   4.951  -0.731  0.00  0.00    +0.160 C 
ATOM     19  O   UNL     1       9.347   5.019  -1.758  0.00  0.00    -0.379 OA
ATOM     20  C   UNL     1       8.225   4.196  -1.405  0.00  0.00    +0.165 C 
ENDBRANCH  15  16
ENDBRANCH  13  15
ENDBRANCH   8  11
BRANCH   6  21
ATOM     21  N   UNL     1      -1.202  -0.717   0.010  0.00  0.00    -0.358 N 
ATOM     22  H   UNL     1      -2.047  -0.241   0.020  0.00  0.00    +0.142 HD
ATOM     23  H   UNL     1      -1.192  -1.687   0.004  0.00  0.00    +0.142 HD
ENDBRANCH   6  21
TORSDOF 4
