REMARK  Name = ZINC45795462
REMARK  10 active torsions:
REMARK  status: ('A' for Active; 'I' for Inactive)
REMARK    1  A    between atoms: C_1  and  C_2
REMARK    2  A    between atoms: C_5  and  C_35
REMARK    3  A    between atoms: C_6  and  N_8
REMARK    4  A    between atoms: C_9  and  C_11
REMARK    5  A    between atoms: C_11  and  C_13
REMARK    6  A    between atoms: C_11  and  O_19
REMARK    7  A    between atoms: O_19  and  C_20
REMARK    8  A    between atoms: C_20  and  C_22
REMARK    9  A    between atoms: C_22  and  O_23
REMARK   10  A    between atoms: O_23  and  C_24
REMARK                            x       y       z     vdW  Elec       q    Type
REMARK                         _______ _______ _______ _____ _____    ______ ____
ROOT
ATOM      1  C   UNL     1       0.280  -2.900   4.854  0.00  0.00    +0.292 C 
ENDROOT
BRANCH   1   2
ATOM      2  C   UNL     1      -0.979  -3.691   5.098  0.00  0.00    +0.002 A 
ATOM      3  C   UNL     1      -2.099  -3.066   5.615  0.00  0.00    +0.008 A 
ATOM      4  C   UNL     1      -3.254  -3.791   5.839  0.00  0.00    +0.000 A 
ATOM      5  C   UNL     1      -3.290  -5.141   5.545  0.00  0.00    +0.000 A 
ATOM      6  C   UNL     1      -2.171  -5.766   5.027  0.00  0.00    +0.000 A 
ATOM      7  C   UNL     1      -1.017  -5.040   4.799  0.00  0.00    +0.008 A 
ENDBRANCH   1   2
BRANCH   1   9
ATOM      8  N   UNL     1       0.052  -2.797   2.393  0.00  0.00    -0.282 N 
ATOM      9  C   UNL     1       0.150  -2.135   3.562  0.00  0.00    +0.263 C 
ATOM     10  O   UNL     1       0.134  -0.922   3.575  0.00  0.00    -0.271 OA
ATOM     11  H   UNL     1      -0.016  -3.765   2.388  0.00  0.00    +0.155 HD
BRANCH   8  17
ATOM     12  C   UNL     1       1.264   1.227  -0.158  0.00  0.00    +0.044 C 
ATOM     13  C   UNL     1       0.628  -0.137  -0.079  0.00  0.00    -0.049 A 
ATOM     14  C   UNL     1       0.038  -0.690  -1.201  0.00  0.00    +0.004 A 
ATOM     15  C   UNL     1      -0.546  -1.941  -1.133  0.00  0.00    +0.005 A 
ATOM     16  C   UNL     1      -0.543  -2.643   0.057  0.00  0.00    -0.029 A 
ATOM     17  C   UNL     1       0.048  -2.090   1.185  0.00  0.00    +0.037 A 
ATOM     18  C   UNL     1       0.639  -0.835   1.112  0.00  0.00    +0.027 A 
ATOM     19  C   UNL     1      -1.181  -4.006   0.131  0.00  0.00    +0.045 C 
ENDBRANCH   8  17
ENDBRANCH   1   9
BRANCH   1  20
ATOM     20  O   UNL     1       0.484  -1.985   5.931  0.00  0.00    -0.445 OA
BRANCH  20  21
ATOM     21  C   UNL     1       1.205  -2.423   6.975  0.00  0.00    +0.346 C 
ATOM     22  O   UNL     1       1.648  -3.547   6.974  0.00  0.00    -0.247 OA
BRANCH  21  23
ATOM     23  C   UNL     1       1.462  -1.514   8.149  0.00  0.00    +0.349 C 
BRANCH  23  24
ATOM     24  O   UNL     1       2.246  -2.204   9.124  0.00  0.00    -0.481 OA
BRANCH  24  25
ATOM     25  C   UNL     1       2.568  -1.520  10.254  0.00  0.00    +0.122 A 
ATOM     26  C   UNL     1       2.133  -0.213  10.421  0.00  0.00    +0.047 A 
ATOM     27  C   UNL     1       2.461   0.483  11.568  0.00  0.00    +0.027 A 
ATOM     28  C   UNL     1       3.225  -0.126  12.554  0.00  0.00    +0.037 A 
ATOM     29  C   UNL     1       3.660  -1.434  12.386  0.00  0.00    -0.022 A 
ATOM     30  C   UNL     1       3.328  -2.131  11.242  0.00  0.00    +0.051 A 
ATOM     31  C   UNL     1       4.488  -2.092  13.459  0.00  0.00    +0.046 C 
ATOM     32  C   UNL     1       5.387  -1.049  14.124  0.00  0.00    +0.101 C 
ATOM     33  C   UNL     1       4.576   0.163  14.497  0.00  0.00    +0.218 C 
ATOM     34  O   UNL     1       4.843   0.774  15.510  0.00  0.00    -0.275 OA
ATOM     35  N   UNL     1       3.559   0.576  13.719  0.00  0.00    -0.285 N 
ATOM     36  H   UNL     1       3.053   1.366  13.967  0.00  0.00    +0.155 HD
ENDBRANCH  24  25
ENDBRANCH  23  24
ENDBRANCH  21  23
ENDBRANCH  20  21
ENDBRANCH   1  20
TORSDOF 8
