REMARK  Name = ZINC23631412
REMARK  7 active torsions:
REMARK  status: ('A' for Active; 'I' for Inactive)
REMARK    1  A    between atoms: C_1  and  C_2
REMARK    2  A    between atoms: C_2  and  C_4
REMARK    3  A    between atoms: C_2  and  S_16
REMARK    4  A    between atoms: S_16  and  C_17
REMARK    5  A    between atoms: C_20  and  C_29
REMARK    6  A    between atoms: N_21  and  C_22
REMARK    7  A    between atoms: C_22  and  C_23
REMARK                            x       y       z     vdW  Elec       q    Type
REMARK                         _______ _______ _______ _____ _____    ______ ____
ROOT
ATOM      1  C   UNL     1      -4.049   6.019   1.011  0.00  0.00    +0.193 A 
ATOM      2  N   UNL     1      -5.052   5.415   0.414  0.00  0.00    -0.122 NA
ATOM      3  N   UNL     1      -6.139   6.075   0.598  0.00  0.00    -0.128 NA
ATOM      4  C   UNL     1      -5.898   7.144   1.325  0.00  0.00    +0.172 A 
ATOM      5  N   UNL     1      -4.552   7.137   1.617  0.00  0.00    -0.299 N 
ENDROOT
BRANCH   4   6
ATOM      6  C   UNL     1      -6.881   8.152   1.751  0.00  0.00    +0.056 A 
ATOM      7  C   UNL     1      -8.251   8.083   1.738  0.00  0.00    +0.019 A 
ATOM      8  C   UNL     1      -8.971   9.164   2.197  0.00  0.00    +0.008 A 
ATOM      9  C   UNL     1      -8.307  10.265   2.634  0.00  0.00    +0.046 A 
ATOM     10  S   UNL     1      -6.602   9.787   2.412  0.00  0.00    -0.094 S 
ENDBRANCH   4   6
BRANCH   1  11
ATOM     11  S   UNL     1      -2.371   5.483   1.033  0.00  0.00    -0.075 S 
BRANCH  11  13
ATOM     12  C   UNL     1      -2.913   4.332  -1.384  0.00  0.00    +0.027 C 
ATOM     13  C   UNL     1      -2.510   3.972   0.048  0.00  0.00    +0.117 C 
BRANCH  13  14
ATOM     14  C   UNL     1      -1.182   3.259   0.031  0.00  0.00    +0.124 A 
ATOM     15  N   UNL     1      -1.180   1.900   0.018  0.00  0.00    -0.309 N 
ATOM     16  H   UNL     1      -2.132   1.349   0.015  0.00  0.00    +0.170 HD
ATOM     17  C   UNL     1      -0.014   1.213   0.009  0.00  0.00    +0.259 A 
ATOM     18  O   UNL     1       0.002  -0.004   0.002  0.00  0.00    -0.267 OA
ATOM     19  C   UNL     1       1.232   1.994   0.001  0.00  0.00    +0.065 A 
ATOM     20  C   UNL     1       2.484   1.383  -0.015  0.00  0.00    +0.015 A 
ATOM     21  C   UNL     1       3.619   2.164  -0.022  0.00  0.00    +0.001 A 
ATOM     22  C   UNL     1       3.524   3.549  -0.014  0.00  0.00    +0.002 A 
ATOM     23  C   UNL     1       2.297   4.172   0.001  0.00  0.00    +0.028 A 
ATOM     24  C   UNL     1       1.131   3.403   0.010  0.00  0.00    +0.078 A 
ATOM     25  N   UNL     1      -0.099   3.975   0.024  0.00  0.00    -0.233 NA
ENDBRANCH  13  14
ENDBRANCH  11  13
ENDBRANCH   1  11
BRANCH   5  26
ATOM     26  C   UNL     1      -3.812   8.123   2.408  0.00  0.00    +0.157 C 
BRANCH  26  27
ATOM     27  C   UNL     1      -3.296   9.232   1.488  0.00  0.00    +0.138 C 
ATOM     28  C   UNL     1      -2.419  10.214   2.293  0.00  0.00    +0.035 C 
ATOM     29  C   UNL     1      -2.825  11.587   1.691  0.00  0.00    +0.031 C 
ATOM     30  C   UNL     1      -4.323  11.342   1.383  0.00  0.00    +0.160 C 
ATOM     31  O   UNL     1      -4.399   9.973   0.954  0.00  0.00    -0.375 OA
ENDBRANCH  26  27
ENDBRANCH   5  26
TORSDOF 6
