REMARK  Name = ZINC62517315
REMARK  9 active torsions:
REMARK  status: ('A' for Active; 'I' for Inactive)
REMARK    1  A    between atoms: C_1  and  C_2
REMARK    2  A    between atoms: C_2  and  C_3
REMARK    3  A    between atoms: C_3  and  C_5
REMARK    4  A    between atoms: C_3  and  N_6
REMARK    5  A    between atoms: N_9  and  C_10
REMARK    6  A    between atoms: C_10  and  C_11
REMARK    7  A    between atoms: C_11  and  C_13
REMARK    8  A    between atoms: C_11  and  S_18
REMARK    9  A    between atoms: S_18  and  C_21
REMARK                            x       y       z     vdW  Elec       q    Type
REMARK                         _______ _______ _______ _____ _____    ______ ____
ROOT
ATOM      1  C   UNL     1      -5.894   0.803   3.978  0.00  0.00    +0.218 C 
ENDROOT
BRANCH   1   2
ATOM      2  C   UNL     1      -7.395   0.924   4.046  0.00  0.00    +0.131 A 
ATOM      3  C   UNL     1      -8.080   2.036   4.367  0.00  0.00    +0.047 A 
ATOM      4  C   UNL     1      -9.453   1.702   4.308  0.00  0.00    +0.041 A 
ATOM      5  C   UNL     1      -9.524   0.407   3.954  0.00  0.00    +0.195 A 
ATOM      6  O   UNL     1      -8.274  -0.058   3.791  0.00  0.00    -0.466 OA
ENDBRANCH   1   2
BRANCH   1   7
ATOM      7  S   UNL     1      -5.336  -0.465   5.149  0.00  0.00    +0.008 S 
ATOM      8  O   UNL     1      -5.968  -1.705   4.865  0.00  0.00    -0.169 OA
ATOM      9  O   UNL     1      -3.926  -0.391   5.315  0.00  0.00    -0.169 OA
BRANCH   7  10
ATOM     10  C   UNL     1      -5.998   0.032   6.704  0.00  0.00    +0.089 A 
ATOM     11  C   UNL     1      -5.270   0.869   7.529  0.00  0.00    +0.028 A 
ATOM     12  C   UNL     1      -5.789   1.259   8.750  0.00  0.00    +0.022 A 
ATOM     13  C   UNL     1      -7.037   0.812   9.145  0.00  0.00    +0.041 A 
ATOM     14  C   UNL     1      -7.765  -0.025   8.319  0.00  0.00    +0.022 A 
ATOM     15  C   UNL     1      -7.248  -0.410   7.096  0.00  0.00    +0.028 A 
ATOM     16 CL   UNL     1      -7.689   1.301  10.678  0.00  0.00    -0.084 Cl
ENDBRANCH   7  10
ENDBRANCH   1   7
BRANCH   1  17
ATOM     17  C   UNL     1      -5.479   0.406   2.560  0.00  0.00    +0.140 C 
BRANCH  17  21
ATOM     18  N   UNL     1      -2.082  -0.162   1.273  0.00  0.00    -0.297 N 
ATOM     19  C   UNL     1      -3.424  -0.053   1.334  0.00  0.00    +0.300 C 
ATOM     20  O   UNL     1      -4.096  -0.264   0.344  0.00  0.00    -0.253 OA
ATOM     21  N   UNL     1      -4.020   0.289   2.493  0.00  0.00    -0.297 N 
ATOM     22  H   UNL     1      -1.545   0.006   2.063  0.00  0.00    +0.151 HD
ATOM     23  H   UNL     1      -3.483   0.457   3.284  0.00  0.00    +0.150 HD
BRANCH  18  24
ATOM     24  C   UNL     1      -1.433  -0.534   0.013  0.00  0.00    +0.071 C 
ATOM     25  C   UNL     1      -1.416  -2.058  -0.121  0.00  0.00    +0.028 C 
BRANCH  24  27
ATOM     26  C   UNL     1      -0.019   1.526   0.010  0.00  0.00    +0.005 C 
ATOM     27  C   UNL     1       0.002  -0.004   0.002  0.00  0.00    +0.019 C 
ENDBRANCH  24  27
ENDBRANCH  18  24
ENDBRANCH  17  21
ENDBRANCH   1  17
TORSDOF 7
