REMARK  Name = ZINC15940764
REMARK  15 active torsions:
REMARK  status: ('A' for Active; 'I' for Inactive)
REMARK    1  A    between atoms: C_1  and  C_2
REMARK    2  A    between atoms: C_2  and  C_3
REMARK    3  A    between atoms: C_3  and  C_4
REMARK    4  A    between atoms: C_4  and  N_5
REMARK    5  A    between atoms: N_5  and  C_6
REMARK    6  A    between atoms: C_7  and  N_18
REMARK    7  A    between atoms: N_8  and  C_15
REMARK    8  A    between atoms: C_15  and  C_16
REMARK    9  A    between atoms: C_16  and  C_17
REMARK   10  A    between atoms: C_19  and  C_21
REMARK   11  A    between atoms: C_24  and  N_27
REMARK   12  A    between atoms: N_27  and  C_28
REMARK   13  A    between atoms: N_27  and  S_29
REMARK   14  A    between atoms: S_29  and  C_32
REMARK   15  A    between atoms: C_35  and  C_38
REMARK                            x       y       z     vdW  Elec       q    Type
REMARK                         _______ _______ _______ _____ _____    ______ ____
ROOT
ATOM      1  N   UNL     1       1.868  -2.324   2.402  0.00  0.00    -0.260 N 
ATOM      2  C   UNL     1       3.063  -2.934   2.277  0.00  0.00    +0.251 C 
ATOM      3  O   UNL     1       3.583  -3.037   1.182  0.00  0.00    -0.270 OA
ENDROOT
BRANCH   1   4
ATOM      4  C   UNL     1       1.295  -2.149   3.679  0.00  0.00    +0.140 A 
ATOM      5  C   UNL     1       1.938  -1.396   4.640  0.00  0.00    +0.127 A 
ATOM      6  N   UNL     1       1.353  -1.244   5.876  0.00  0.00    -0.280 N 
ATOM      7  C   UNL     1       0.169  -1.822   6.145  0.00  0.00    +0.331 A 
ATOM      8  O   UNL     1      -0.331  -1.676   7.244  0.00  0.00    -0.246 OA
ATOM      9  N   UNL     1      -0.473  -2.559   5.221  0.00  0.00    -0.273 N 
ATOM     10  H   UNL     1      -1.326  -2.965   5.439  0.00  0.00    +0.173 HD
ATOM     11  C   UNL     1       0.054  -2.736   3.993  0.00  0.00    +0.277 A 
ATOM     12  O   UNL     1      -0.538  -3.402   3.161  0.00  0.00    -0.266 OA
BRANCH   5  13
ATOM     13  N   UNL     1       3.148  -0.806   4.366  0.00  0.00    -0.343 N 
ATOM     14  H   UNL     1       3.583  -0.964   3.513  0.00  0.00    +0.144 HD
ATOM     15  H   UNL     1       3.568  -0.231   5.025  0.00  0.00    +0.144 HD
ENDBRANCH   5  13
BRANCH   6  16
ATOM     16  C   UNL     1       2.025  -0.448   6.906  0.00  0.00    +0.128 C 
BRANCH  16  17
ATOM     17  C   UNL     1       1.577   1.011   6.796  0.00  0.00    +0.018 C 
ATOM     18  C   UNL     1       2.278   1.843   7.872  0.00  0.00    +0.005 C 
ENDBRANCH  16  17
ENDBRANCH   6  16
ENDBRANCH   1   4
BRANCH   2  19
ATOM     19  C   UNL     1       3.741  -3.479   3.469  0.00  0.00    +0.037 A 
ATOM     20  C   UNL     1       2.997  -3.829   4.600  0.00  0.00    +0.015 A 
ATOM     21  C   UNL     1       3.632  -4.336   5.710  0.00  0.00    +0.025 A 
ATOM     22  C   UNL     1       5.014  -4.501   5.708  0.00  0.00    +0.051 A 
ATOM     23  C   UNL     1       5.758  -4.154   4.584  0.00  0.00    +0.025 A 
ATOM     24  C   UNL     1       5.128  -3.651   3.468  0.00  0.00    +0.015 A 
BRANCH  22  25
ATOM     25  N   UNL     1       5.653  -5.013   6.832  0.00  0.00    -0.206 N 
ATOM     26  C   UNL     1       5.321  -6.356   7.316  0.00  0.00    +0.157 C 
BRANCH  25  27
ATOM     27  S   UNL     1       6.791  -4.106   7.623  0.00  0.00    +0.074 S 
ATOM     28  O   UNL     1       7.723  -5.022   8.182  0.00  0.00    -0.150 OA
ATOM     29  O   UNL     1       7.180  -3.073   6.729  0.00  0.00    -0.150 OA
BRANCH  27  30
ATOM     30  C   UNL     1       5.981  -3.322   8.978  0.00  0.00    +0.109 A 
ATOM     31  C   UNL     1       5.398  -2.080   8.809  0.00  0.00    +0.029 A 
ATOM     32  C   UNL     1       4.763  -1.465   9.871  0.00  0.00    +0.005 A 
ATOM     33  C   UNL     1       4.711  -2.091  11.102  0.00  0.00    -0.050 A 
ATOM     34  C   UNL     1       5.293  -3.333  11.271  0.00  0.00    +0.005 A 
ATOM     35  C   UNL     1       5.925  -3.951  10.207  0.00  0.00    +0.029 A 
ATOM     36  C   UNL     1       4.019  -1.420  12.261  0.00  0.00    +0.044 C 
ENDBRANCH  27  30
ENDBRANCH  25  27
ENDBRANCH  22  25
ENDBRANCH   2  19
BRANCH   1  37
ATOM     37  C   UNL     1       1.164  -1.841   1.211  0.00  0.00    +0.114 C 
BRANCH  37  38
ATOM     38  C   UNL     1       1.514  -0.371   0.972  0.00  0.00    +0.019 C 
BRANCH  38  40
ATOM     39  C   UNL     1       1.129   1.603  -0.510  0.00  0.00    +0.004 C 
ATOM     40  C   UNL     1       0.779   0.133  -0.271  0.00  0.00    -0.002 C 
ENDBRANCH  38  40
ENDBRANCH  37  38
ENDBRANCH   1  37
TORSDOF 11
