REMARK  Name = ZINC06015161
REMARK  11 active torsions:
REMARK  status: ('A' for Active; 'I' for Inactive)
REMARK    1  A    between atoms: C_1  and  C_2
REMARK    2  A    between atoms: C_2  and  C_3
REMARK    3  A    between atoms: C_2  and  O_4
REMARK    4  A    between atoms: O_4  and  C_5
REMARK    5  A    between atoms: C_6  and  O_31
REMARK    6  A    between atoms: C_8  and  C_12
REMARK    7  A    between atoms: C_20  and  C_28
REMARK    8  A    between atoms: C_22  and  C_23
REMARK    9  A    between atoms: C_22  and  C_25
REMARK   10  A    between atoms: C_30  and  N_55
REMARK   11  A    between atoms: O_31  and  C_32
REMARK                            x       y       z     vdW  Elec       q    Type
REMARK                         _______ _______ _______ _____ _____    ______ ____
ROOT
ATOM      1  C   UNL     1      -0.013   1.085   0.008  0.00  0.00    +0.064 C 
ATOM      2  C   UNL     1      -0.599   1.166  -1.402  0.00  0.00    +0.010 C 
ATOM      3  C   UNL     1       0.308   0.547  -2.436  0.00  0.00    -0.070 C 
ATOM      4  C   UNL     1      -1.493  -0.756  -3.369  0.00  0.00    -0.051 C 
ATOM      5  C   UNL     1      -2.414  -0.290  -2.268  0.00  0.00    -0.044 C 
ATOM      6  C   UNL     1      -1.980   0.569  -1.365  0.00  0.00    -0.051 C 
ATOM      7  C   UNL     1      -2.865   0.983  -0.248  0.00  0.00    +0.163 C 
ATOM      8  C   UNL     1      -2.324   1.608   0.829  0.00  0.00    +0.065 C 
ATOM      9  C   UNL     1      -0.867   1.934   0.951  0.00  0.00    +0.188 C 
ATOM     10  N   UNL     1      -3.153   1.958   1.857  0.00  0.00    -0.304 NA
ATOM     11  C   UNL     1       0.809  -1.403  -3.776  0.00  0.00    -0.096 C 
ATOM     12  H   UNL     1      -2.794   2.406   2.639  0.00  0.00    +0.186 HD
ATOM     13  N   UNL     1      -0.131  -0.810  -2.796  0.00  0.00    +0.381 N 
ATOM     14  H   UNL     1      -0.146  -1.394  -1.952  0.00  0.00    -0.082 HD
ENDROOT
BRANCH   1  18
ATOM     15  C   UNL     1       3.999   2.568  -0.019  0.00  0.00    +0.180 A 
ATOM     16  C   UNL     1       2.999   3.254  -0.701  0.00  0.00    +0.163 A 
ATOM     17  C   UNL     1       1.700   2.771  -0.690  0.00  0.00    +0.053 A 
ATOM     18  C   UNL     1       1.400   1.609  -0.003  0.00  0.00    -0.036 A 
ATOM     19  C   UNL     1       2.392   0.931   0.680  0.00  0.00    +0.028 A 
ATOM     20  C   UNL     1       3.692   1.405   0.669  0.00  0.00    +0.086 A 
ATOM     21 CL   UNL     1       4.937   0.546   1.522  0.00  0.00    -0.080 Cl
BRANCH  16  22
ATOM     22  O   UNL     1       3.295   4.396  -1.378  0.00  0.00    -0.491 OA
ATOM     23  C   UNL     1       2.218   5.046  -2.056  0.00  0.00    +0.277 C 
ENDBRANCH  16  22
BRANCH  15  24
ATOM     24  O   UNL     1       5.275   3.039  -0.027  0.00  0.00    -0.484 OA
BRANCH  24  26
ATOM     25  C   UNL     1       7.130   3.796   1.325  0.00  0.00    +0.051 C 
ATOM     26  C   UNL     1       5.639   3.947   1.015  0.00  0.00    +0.168 C 
ATOM     27  C   UNL     1       5.354   5.381   0.564  0.00  0.00    +0.051 C 
ENDBRANCH  24  26
ENDBRANCH  15  24
ENDBRANCH   1  18
BRANCH   9  28
ATOM     28  C   UNL     1      -0.435   1.691   2.337  0.00  0.00    +0.091 C 
ATOM     29  N   UNL     1      -0.103   1.504   3.407  0.00  0.00    -0.195 NA
ENDBRANCH   9  28
BRANCH   9  30
ATOM     30  C   UNL     1      -0.667   3.357   0.629  0.00  0.00    +0.091 C 
ATOM     31  N   UNL     1      -0.513   4.455   0.381  0.00  0.00    -0.195 NA
ENDBRANCH   9  30
BRANCH   7  32
ATOM     32  C   UNL     1      -4.273   0.725  -0.305  0.00  0.00    +0.076 C 
ATOM     33  N   UNL     1      -5.390   0.520  -0.350  0.00  0.00    -0.196 NA
ENDBRANCH   7  32
TORSDOF 7
