REMARK  Name = ZINC58198352
REMARK  10 active torsions:
REMARK  status: ('A' for Active; 'I' for Inactive)
REMARK    1  A    between atoms: C_1  and  C_2
REMARK    2  A    between atoms: C_9  and  C_11
REMARK    3  A    between atoms: C_18  and  C_20
REMARK    4  A    between atoms: C_20  and  C_21
REMARK    5  A    between atoms: C_21  and  C_22
REMARK    6  A    between atoms: C_23  and  C_32
REMARK    7  A    between atoms: N_25  and  C_28
REMARK    8  A    between atoms: C_26  and  C_27
REMARK    9  A    between atoms: C_28  and  C_29
REMARK   10  A    between atoms: C_29  and  C_30
REMARK                            x       y       z     vdW  Elec       q    Type
REMARK                         _______ _______ _______ _____ _____    ______ ____
ROOT
ATOM      1  C   UNL     1       0.090  -5.594   2.249  0.00  0.00    +0.072 C 
ATOM      2  C   UNL     1       1.534  -5.966   2.593  0.00  0.00    +0.014 C 
ATOM      3  C   UNL     1       1.561  -7.335   3.277  0.00  0.00    +0.020 C 
ATOM      4  C   UNL     1       0.757  -7.265   4.580  0.00  0.00    +0.108 C 
ATOM      5  N   UNL     1      -0.592  -6.768   4.277  0.00  0.00    -0.301 N 
ATOM      6  C   UNL     1      -0.731  -5.505   3.540  0.00  0.00    +0.119 C 
ATOM      7  C   UNL     1      -1.682  -7.459   4.667  0.00  0.00    +0.216 C 
ATOM      8  O   UNL     1      -2.790  -7.038   4.411  0.00  0.00    -0.276 OA
ENDROOT
BRANCH   1  17
ATOM      9  C   UNL     1      -0.018   1.503   0.010  0.00  0.00    +0.044 C 
ATOM     10  C   UNL     1       0.002  -0.004   0.002  0.00  0.00    -0.048 A 
ATOM     11  C   UNL     1       0.006  -0.687  -1.206  0.00  0.00    +0.005 A 
ATOM     12  C   UNL     1       0.024  -2.052  -1.235  0.00  0.00    +0.030 A 
ATOM     13  C   UNL     1       0.040  -2.774  -0.039  0.00  0.00    +0.089 A 
ATOM     14  C   UNL     1       0.037  -2.083   1.185  0.00  0.00    +0.066 A 
ATOM     15  C   UNL     1       0.023  -0.695   1.195  0.00  0.00    +0.031 A 
ATOM     16  N   UNL     1       0.055  -3.051   2.169  0.00  0.00    -0.342 N 
ATOM     17  C   UNL     1       0.068  -4.261   1.546  0.00  0.00    +0.113 A 
ATOM     18  N   UNL     1       0.059  -4.099   0.255  0.00  0.00    -0.232 NA
ATOM     19  H   UNL     1       0.058  -2.898   3.127  0.00  0.00    +0.167 HD
ENDBRANCH   1  17
BRANCH   7  20
ATOM     20  C   UNL     1      -1.523  -8.753   5.421  0.00  0.00    +0.101 C 
BRANCH  20  21
ATOM     21  C   UNL     1      -2.904  -9.329   5.742  0.00  0.00    +0.048 C 
BRANCH  21  22
ATOM     22  C   UNL     1      -2.746 -10.624   6.497  0.00  0.00    -0.004 A 
ATOM     23  C   UNL     1      -2.643 -11.899   5.931  0.00  0.00    +0.063 A 
ATOM     24  N   UNL     1      -2.517 -12.768   6.901  0.00  0.00    -0.176 NA
ATOM     25  N   UNL     1      -2.536 -12.072   8.117  0.00  0.00    -0.267 N 
ATOM     26  C   UNL     1      -2.672 -10.758   7.841  0.00  0.00    +0.040 A 
ATOM     27  C   UNL     1      -2.733  -9.640   8.850  0.00  0.00    +0.065 C 
ATOM     28  C   UNL     1      -2.672 -12.217   4.458  0.00  0.00    +0.068 C 
BRANCH  25  29
ATOM     29  C   UNL     1      -2.422 -12.665   9.452  0.00  0.00    +0.158 C 
BRANCH  29  30
ATOM     30  C   UNL     1      -0.949 -12.729   9.858  0.00  0.00    +0.141 C 
BRANCH  30  31
ATOM     31  C   UNL     1      -0.835 -13.326  11.199  0.00  0.00    +0.064 C 
ATOM     32  N   UNL     1      -0.747 -13.786  12.233  0.00  0.00    -0.197 NA
ENDBRANCH  30  31
ENDBRANCH  29  30
ENDBRANCH  25  29
ENDBRANCH  21  22
ENDBRANCH  20  21
ENDBRANCH   7  20
TORSDOF 7
