REMARK  Name = ZINC63871277
REMARK  7 active torsions:
REMARK  status: ('A' for Active; 'I' for Inactive)
REMARK    1  A    between atoms: C_1  and  C_2
REMARK    2  A    between atoms: C_2  and  C_3
REMARK    3  A    between atoms: C_3  and  C_4
REMARK    4  A    between atoms: C_4  and  C_5
REMARK    5  A    between atoms: N_8  and  C_11
REMARK    6  A    between atoms: C_11  and  C_12
REMARK    7  A    between atoms: C_19  and  C_21
REMARK                            x       y       z     vdW  Elec       q    Type
REMARK                         _______ _______ _______ _____ _____    ______ ____
ROOT
ATOM      1  C   UNL     1       2.272  -5.185  -6.105  0.00  0.00    +0.019 C 
ATOM      2  C   UNL     1       0.798  -5.597  -6.073  0.00  0.00    +0.008 C 
ATOM      3  C   UNL     1       0.381  -6.112  -7.452  0.00  0.00    +0.019 C 
ATOM      4  C   UNL     1       1.219  -7.344  -7.809  0.00  0.00    +0.108 C 
ATOM      5  N   UNL     1       2.642  -6.995  -7.700  0.00  0.00    -0.296 N 
ATOM      6  C   UNL     1       3.132  -6.406  -6.447  0.00  0.00    +0.112 C 
ATOM      7  C   UNL     1       3.482  -7.210  -8.732  0.00  0.00    +0.264 C 
ATOM      8  O   UNL     1       4.658  -6.911  -8.632  0.00  0.00    -0.268 OA
ENDROOT
BRANCH   7   9
ATOM      9  C   UNL     1       2.980  -7.805  -9.976  0.00  0.00    +0.121 A 
ATOM     10  N   UNL     1       1.867  -8.611 -10.118  0.00  0.00    -0.341 N 
ATOM     11  C   UNL     1       1.774  -8.929 -11.422  0.00  0.00    +0.197 A 
ATOM     12  N   UNL     1       2.760  -8.367 -12.072  0.00  0.00    -0.243 NA
ATOM     13  C   UNL     1       3.516  -7.667 -11.225  0.00  0.00    +0.143 A 
ATOM     14  H   UNL     1       1.266  -8.894  -9.411  0.00  0.00    +0.167 HD
ENDBRANCH   7   9
BRANCH   1  15
ATOM     15  C   UNL     1       2.680  -4.640  -4.735  0.00  0.00    +0.074 C 
BRANCH  15  18
ATOM     16  C   UNL     1       2.689  -1.485  -3.261  0.00  0.00    +0.053 C 
ATOM     17  C   UNL     1       2.190  -2.935  -3.076  0.00  0.00    +0.086 C 
ATOM     18  N   UNL     1       1.904  -3.428  -4.440  0.00  0.00    -0.334 NA
ATOM     19  N   UNL     1       2.247  -2.347  -5.367  0.00  0.00    +0.400 N 
ATOM     20  N   UNL     1       2.139  -1.102  -4.590  0.00  0.00    -0.345 NA
ATOM     21  H   UNL     1       3.190  -2.464  -5.704  0.00  0.00    -0.033 HD
ATOM     22  H   UNL     1       1.177  -0.808  -4.512  0.00  0.00    +0.104 HD
ATOM     23  H   UNL     1       1.599  -2.333  -6.140  0.00  0.00    -0.033 HD
BRANCH  16  24
ATOM     24  C   UNL     1       2.133  -0.577  -2.163  0.00  0.00    +0.018 C 
BRANCH  24  25
ATOM     25  C   UNL     1       2.696   0.835  -2.335  0.00  0.00    +0.001 C 
BRANCH  25  27
ATOM     26  C   UNL     1       2.703   3.156  -1.409  0.00  0.00    +0.004 C 
ATOM     27  C   UNL     1       2.139   1.744  -1.237  0.00  0.00    -0.003 C 
ENDBRANCH  25  27
ENDBRANCH  24  25
ENDBRANCH  16  24
ENDBRANCH  15  18
ENDBRANCH   1  15
TORSDOF 6
