REMARK  Name = ZINC49478817
REMARK  7 active torsions:
REMARK  status: ('A' for Active; 'I' for Inactive)
REMARK    1  A    between atoms: C_1  and  C_2
REMARK    2  A    between atoms: C_2  and  C_3
REMARK    3  A    between atoms: C_2  and  C_4
REMARK    4  A    between atoms: C_4  and  N_5
REMARK    5  A    between atoms: C_8  and  C_11
REMARK    6  A    between atoms: N_13  and  N_14
REMARK    7  A    between atoms: N_17  and  C_18
REMARK                            x       y       z     vdW  Elec       q    Type
REMARK                         _______ _______ _______ _____ _____    ______ ____
ROOT
ATOM      1  C   UNL     1      -2.063  -6.127   0.888  0.00  0.00    +0.232 C 
ATOM      2  O   UNL     1      -0.981  -6.661   1.013  0.00  0.00    -0.274 OA
ATOM      3  N   UNL     1      -3.160  -6.873   0.652  0.00  0.00    -0.233 N 
ATOM      4  H   UNL     1      -4.025  -6.446   0.552  0.00  0.00    +0.173 HD
ENDROOT
BRANCH   1   8
ATOM      5  N   UNL     1      -1.416  -2.016   0.004  0.00  0.00    +0.380 N 
ATOM      6  C   UNL     1      -0.913  -2.498   1.296  0.00  0.00    -0.078 C 
ATOM      7  C   UNL     1      -0.799  -4.024   1.265  0.00  0.00    -0.006 C 
ATOM      8  C   UNL     1      -2.181  -4.628   0.997  0.00  0.00    +0.073 C 
ATOM      9  C   UNL     1      -2.728  -4.061  -0.316  0.00  0.00    -0.006 C 
ATOM     10  C   UNL     1      -2.770  -2.534  -0.227  0.00  0.00    -0.078 C 
ATOM     11  H   UNL     1      -0.805  -2.334  -0.733  0.00  0.00    -0.082 HD
BRANCH   5  12
ATOM     12  C   UNL     1      -1.450  -0.547   0.011  0.00  0.00    -0.076 C 
BRANCH  12  14
ATOM     13  C   UNL     1       0.749  -0.387  -1.165  0.00  0.00    +0.005 C 
ATOM     14  C   UNL     1      -0.022  -0.005   0.101  0.00  0.00    -0.034 C 
ATOM     15  C   UNL     1      -0.062   1.518   0.233  0.00  0.00    +0.005 C 
ENDBRANCH  12  14
ENDBRANCH   5  12
ENDBRANCH   1   8
BRANCH   3  16
ATOM     16  N   UNL     1      -3.051  -8.266   0.550  0.00  0.00    -0.218 N 
ATOM     17  C   UNL     1      -4.147  -9.013   0.314  0.00  0.00    +0.316 C 
ATOM     18  O   UNL     1      -4.053 -10.222   0.227  0.00  0.00    -0.251 OA
ATOM     19  N   UNL     1      -5.349  -8.419   0.175  0.00  0.00    -0.295 N 
ATOM     20  H   UNL     1      -2.185  -8.693   0.650  0.00  0.00    +0.174 HD
ATOM     21  H   UNL     1      -5.425  -7.455   0.245  0.00  0.00    +0.151 HD
BRANCH  19  22
ATOM     22  C   UNL     1      -6.542  -9.231  -0.081  0.00  0.00    +0.075 C 
ATOM     23  C   UNL     1      -7.522  -8.730  -1.144  0.00  0.00    +0.024 C 
ATOM     24  C   UNL     1      -7.894  -8.652   0.338  0.00  0.00    +0.024 C 
ENDBRANCH  19  22
ENDBRANCH   3  16
TORSDOF 5
