REMARK  Name = ZINC09575545
REMARK  5 active torsions:
REMARK  status: ('A' for Active; 'I' for Inactive)
REMARK    1  A    between atoms: C_1  and  C_2
REMARK    2  A    between atoms: C_2  and  C_16
REMARK    3  A    between atoms: N_5  and  C_9
REMARK    4  A    between atoms: C_9  and  C_10
REMARK    5  A    between atoms: C_19  and  N_22
REMARK                            x       y       z     vdW  Elec       q    Type
REMARK                         _______ _______ _______ _____ _____    ______ ____
ROOT
ATOM      1  C   UNL     1      -0.004   6.420   4.593  0.00  0.00    +0.047 C 
ATOM      2  C   UNL     1       0.748   7.158   3.484  0.00  0.00    +0.135 C 
ATOM      3  C   UNL     1       0.124   6.876   2.132  0.00  0.00    +0.251 C 
ATOM      4  O   UNL     1      -1.005   7.141   1.777  0.00  0.00    -0.272 OA
ATOM      5  N   UNL     1       1.084   6.269   1.407  0.00  0.00    -0.219 N 
ATOM      6  C   UNL     1       2.219   6.136   2.104  0.00  0.00    +0.310 C 
ATOM      7  O   UNL     1       3.228   5.623   1.661  0.00  0.00    -0.252 OA
ATOM      8  N   UNL     1       2.118   6.635   3.350  0.00  0.00    -0.281 N 
ATOM      9  H   UNL     1       2.812   6.646   4.027  0.00  0.00    +0.152 HD
ENDROOT
BRANCH   2  10
ATOM     10  C   UNL     1       0.771   8.641   3.754  0.00  0.00    -0.015 A 
ATOM     11  C   UNL     1      -0.254   9.444   3.290  0.00  0.00    +0.008 A 
ATOM     12  C   UNL     1      -0.235  10.803   3.542  0.00  0.00    +0.033 A 
ATOM     13  C   UNL     1       0.814  11.361   4.249  0.00  0.00    +0.126 A 
ATOM     14  C   UNL     1       1.841  10.558   4.709  0.00  0.00    +0.033 A 
ATOM     15  C   UNL     1       1.820   9.198   4.461  0.00  0.00    +0.008 A 
BRANCH  13  16
ATOM     16  N   UNL     1       0.837  12.817   4.513  0.00  0.00    +0.056 N 
ATOM     17  O   UNL     1       1.761  13.308   5.136  0.00  0.00    -0.126 OA
ATOM     18  O   UNL     1      -0.069  13.524   4.108  0.00  0.00    -0.126 OA
ENDBRANCH  13  16
ENDBRANCH   2  10
BRANCH   5  19
ATOM     19  C   UNL     1       0.910   5.816   0.025  0.00  0.00    +0.160 C 
BRANCH  19  20
ATOM     20  C   UNL     1       0.412   4.394   0.022  0.00  0.00    +0.009 A 
ATOM     21  C   UNL     1      -0.864   3.936   0.032  0.00  0.00    +0.014 A 
ATOM     22  C   UNL     1      -1.087   2.572   0.020  0.00  0.00    +0.028 A 
ATOM     23  C   UNL     1      -0.021   1.732   0.012  0.00  0.00    +0.078 A 
ATOM     24  S   UNL     1       1.350   2.875   0.005  0.00  0.00    -0.080 S 
ATOM     25 CL   UNL     1       0.002  -0.004   0.002  0.00  0.00    -0.076 Cl
ENDBRANCH  19  20
ENDBRANCH   5  19
TORSDOF 4
