REMARK  Name = ZINC16047073
REMARK  4 active torsions:
REMARK  status: ('A' for Active; 'I' for Inactive)
REMARK    1  A    between atoms: C_4  and  C_7
REMARK    2  A    between atoms: C_15  and  C_18
REMARK    3  A    between atoms: C_18  and  N_50
REMARK    4  A    between atoms: C_23  and  C_25
REMARK                            x       y       z     vdW  Elec       q    Type
REMARK                         _______ _______ _______ _____ _____    ______ ____
ROOT
ATOM      1  C   UNL     1       3.392   2.233  -0.729  0.00  0.00    +0.340 C 
ATOM      2  O   UNL     1       4.131   1.673   0.363  0.00  0.00    -0.333 OA
ATOM      3  C   UNL     1       5.470   2.170   0.446  0.00  0.00    +0.203 C 
ATOM      4  C   UNL     1       5.453   3.674   0.344  0.00  0.00    +0.021 A 
ATOM      5  C   UNL     1       6.569   4.398   0.724  0.00  0.00    +0.024 A 
ATOM      6  C   UNL     1       6.565   5.777   0.631  0.00  0.00    +0.019 A 
ATOM      7  C   UNL     1       5.445   6.438   0.159  0.00  0.00    +0.020 A 
ATOM      8  C   UNL     1       4.328   5.719  -0.221  0.00  0.00    -0.021 A 
ATOM      9  C   UNL     1       4.329   4.334  -0.128  0.00  0.00    +0.131 A 
ATOM     10  O   UNL     1       3.224   3.635  -0.500  0.00  0.00    -0.459 OA
ATOM     11 BR   UNL     1       8.093   6.763   1.151  0.00  0.00    -0.050 Br
ENDROOT
BRANCH   1  15
ATOM     12  C   UNL     1      -0.436   0.353  -0.983  0.00  0.00    +0.000 A 
ATOM     13  C   UNL     1      -0.348   1.716  -0.769  0.00  0.00    +0.000 A 
ATOM     14  C   UNL     1       0.891   2.324  -0.686  0.00  0.00    +0.010 A 
ATOM     15  C   UNL     1       2.042   1.570  -0.819  0.00  0.00    +0.020 A 
ATOM     16  C   UNL     1       1.954   0.207  -1.031  0.00  0.00    +0.010 A 
ATOM     17  C   UNL     1       0.715  -0.402  -1.113  0.00  0.00    +0.000 A 
ENDBRANCH   1  15
BRANCH   8  18
ATOM     18  C   UNL     1       3.108   6.439  -0.736  0.00  0.00    -0.038 C 
BRANCH  18  24
ATOM     19  C   UNL     1       2.712   7.109   1.556  0.00  0.00    -0.077 C 
ATOM     20  C   UNL     1       1.689   7.072   2.693  0.00  0.00    -0.019 C 
ATOM     21  C   UNL     1       0.454   7.881   2.289  0.00  0.00    -0.003 C 
ATOM     22  C   UNL     1      -0.122   7.306   0.993  0.00  0.00    -0.006 C 
ATOM     23  C   UNL     1       0.953   7.336  -0.096  0.00  0.00    +0.019 C 
ATOM     24  N   UNL     1       2.104   6.519   0.344  0.00  0.00    +0.390 N 
ATOM     25  H   UNL     1       1.775   5.571   0.565  0.00  0.00    -0.080 HD
BRANCH  23  26
ATOM     26  C   UNL     1       0.397   6.752  -1.368  0.00  0.00    +0.197 C 
ATOM     27  O   UNL     1       0.519   5.567  -1.596  0.00  0.00    -0.278 OA
ATOM     28  N   UNL     1      -0.237   7.547  -2.254  0.00  0.00    -0.331 N 
ATOM     29  H   UNL     1      -0.335   8.495  -2.071  0.00  0.00    +0.145 HD
ATOM     30  H   UNL     1      -0.595   7.171  -3.073  0.00  0.00    +0.145 HD
ENDBRANCH  23  26
ENDBRANCH  18  24
ENDBRANCH   8  18
TORSDOF 4
