REMARK  Name = ZINC12757149
REMARK  8 active torsions:
REMARK  status: ('A' for Active; 'I' for Inactive)
REMARK    1  A    between atoms: C_1  and  C_2
REMARK    2  A    between atoms: C_3  and  N_9
REMARK    3  A    between atoms: C_10  and  C_12
REMARK    4  A    between atoms: C_12  and  C_14
REMARK    5  A    between atoms: C_12  and  S_15
REMARK    6  A    between atoms: S_15  and  C_16
REMARK    7  A    between atoms: C_19  and  C_22
REMARK    8  A    between atoms: C_23  and  C_24
REMARK                            x       y       z     vdW  Elec       q    Type
REMARK                         _______ _______ _______ _____ _____    ______ ____
ROOT
ATOM      1  S   UNL     1       0.899  -0.960  -6.159  0.00  0.00    -0.074 S 
ENDROOT
BRANCH   1   2
ATOM      2  C   UNL     1       1.083   0.105  -7.550  0.00  0.00    +0.190 A 
ATOM      3  N   UNL     1       1.576  -0.242  -8.776  0.00  0.00    -0.317 N 
ATOM      4  H   UNL     1       1.893  -1.115  -9.054  0.00  0.00    +0.169 HD
ATOM      5  C   UNL     1       1.530   0.909  -9.534  0.00  0.00    +0.155 A 
ATOM      6  N   UNL     1       1.033   1.856  -8.766  0.00  0.00    -0.129 NA
ATOM      7  N   UNL     1       0.766   1.381  -7.602  0.00  0.00    -0.122 NA
BRANCH   5   8
ATOM      8  C   UNL     1       1.954   1.051 -10.930  0.00  0.00    +0.048 C 
ATOM      9  C   UNL     1       1.850   2.244 -11.547  0.00  0.00    +0.011 C 
BRANCH   9  10
ATOM     10  C   UNL     1       2.276   2.386 -12.950  0.00  0.00    -0.025 A 
ATOM     11  C   UNL     1       2.783   1.284 -13.645  0.00  0.00    +0.011 A 
ATOM     12  C   UNL     1       3.179   1.424 -14.958  0.00  0.00    +0.039 A 
ATOM     13  C   UNL     1       3.076   2.654 -15.588  0.00  0.00    +0.123 A 
ATOM     14  C   UNL     1       2.575   3.751 -14.905  0.00  0.00    +0.039 A 
ATOM     15  C   UNL     1       2.170   3.623 -13.593  0.00  0.00    +0.011 A 
ATOM     16  F   UNL     1       3.467   2.785 -16.875  0.00  0.00    -0.205 F 
ENDBRANCH   9  10
ENDBRANCH   5   8
ENDBRANCH   1   2
BRANCH   1  17
ATOM     17  C   UNL     1       0.192   0.111  -4.876  0.00  0.00    +0.137 C 
ATOM     18  C   UNL     1      -1.204   0.566  -5.305  0.00  0.00    +0.029 C 
BRANCH  17  20
ATOM     19  N   UNL     1      -0.010   0.011  -2.413  0.00  0.00    -0.284 N 
ATOM     20  C   UNL     1       0.095  -0.653  -3.581  0.00  0.00    +0.230 C 
ATOM     21  O   UNL     1       0.112  -1.866  -3.590  0.00  0.00    -0.274 OA
ATOM     22  H   UNL     1      -0.104   0.977  -2.411  0.00  0.00    +0.155 HD
BRANCH  19  25
ATOM     23  C   UNL     1      -1.263   1.190  -0.146  0.00  0.00    +0.047 C 
ATOM     24  C   UNL     1      -0.583  -0.153  -0.073  0.00  0.00    -0.011 A 
ATOM     25  C   UNL     1       0.017  -0.692  -1.204  0.00  0.00    +0.038 A 
ATOM     26  C   UNL     1       0.642  -1.929  -1.132  0.00  0.00    +0.023 A 
ATOM     27  C   UNL     1       0.667  -2.621   0.064  0.00  0.00    +0.003 A 
ATOM     28  C   UNL     1       0.069  -2.084   1.188  0.00  0.00    +0.020 A 
ATOM     29  C   UNL     1      -0.550  -0.848   1.122  0.00  0.00    +0.046 A 
ATOM     30 CL   UNL     1      -1.293  -0.173   2.538  0.00  0.00    -0.083 Cl
ENDBRANCH  19  25
ENDBRANCH  17  20
ENDBRANCH   1  17
TORSDOF 6
