REMARK  Name = ZINC65595513
REMARK  11 active torsions:
REMARK  status: ('A' for Active; 'I' for Inactive)
REMARK    1  A    between atoms: C_1  and  C_2
REMARK    2  A    between atoms: C_3  and  C_11
REMARK    3  A    between atoms: C_4  and  N_8
REMARK    4  A    between atoms: N_5  and  C_7
REMARK    5  A    between atoms: N_8  and  C_9
REMARK    6  A    between atoms: N_8  and  C_10
REMARK    7  A    between atoms: C_11  and  N_12
REMARK    8  A    between atoms: N_12  and  C_13
REMARK    9  A    between atoms: C_13  and  C_15
REMARK   10  A    between atoms: C_13  and  C_21
REMARK   11  A    between atoms: N_25  and  C_26
REMARK                            x       y       z     vdW  Elec       q    Type
REMARK                         _______ _______ _______ _____ _____    ______ ____
ROOT
ATOM      1  N   UNL     1       1.432  -0.064  -2.991  0.00  0.00    -0.299 NA
ATOM      2  H   UNL     1       1.858   0.610  -2.373  0.00  0.00    +0.123 HD
ENDROOT
BRANCH   1   3
ATOM      3  C   UNL     1       0.050  -0.351  -2.586  0.00  0.00    +0.122 C 
BRANCH   3   6
ATOM      4  C   UNL     1      -0.001   1.514  -0.025  0.00  0.00    +0.065 C 
ATOM      5  C   UNL     1       0.010   0.006  -0.021  0.00  0.00    +0.037 A 
ATOM      6  C   UNL     1       0.033  -0.815  -1.152  0.00  0.00    +0.026 A 
ATOM      7  C   UNL     1       0.036  -2.108  -0.728  0.00  0.00    +0.121 A 
ATOM      8  N   UNL     1       0.017  -2.094   0.625  0.00  0.00    -0.276 N 
ATOM      9  N   UNL     1       0.006  -0.757   1.041  0.00  0.00    -0.300 N 
ATOM     10  C   UNL     1       0.012  -3.269   1.499  0.00  0.00    +0.172 C 
ATOM     11  H   UNL     1      -0.004  -0.449   1.961  0.00  0.00    +0.187 HD
BRANCH   7  12
ATOM     12  N   UNL     1       0.056  -3.240  -1.538  0.00  0.00    -0.321 N 
ATOM     13  C   UNL     1       1.331  -3.882  -1.870  0.00  0.00    +0.130 C 
ATOM     14  C   UNL     1      -1.198  -3.789  -2.060  0.00  0.00    +0.130 C 
ENDBRANCH   7  12
ENDBRANCH   3   6
ENDBRANCH   1   3
BRANCH   1  15
ATOM     15  C   UNL     1       1.488   0.392  -4.387  0.00  0.00    +0.149 C 
BRANCH  15  16
ATOM     16  C   UNL     1       1.535  -0.803  -5.304  0.00  0.00    +0.109 A 
ATOM     17  N   UNL     1       2.136  -1.933  -5.051  0.00  0.00    -0.348 N 
ATOM     18  C   UNL     1       1.970  -2.765  -6.090  0.00  0.00    +0.102 A 
ATOM     19  C   UNL     1       1.238  -2.127  -7.022  0.00  0.00    +0.104 A 
ATOM     20  N   UNL     1       0.957  -0.883  -6.522  0.00  0.00    -0.337 N 
ATOM     21  C   UNL     1       0.178   0.165  -7.185  0.00  0.00    +0.150 C 
ATOM     22  H   UNL     1       2.626  -2.139  -4.239  0.00  0.00    +0.166 HD
ENDBRANCH  15  16
BRANCH  15  23
ATOM     23  C   UNL     1       2.723   1.231  -4.592  0.00  0.00    -0.023 A 
ATOM     24  C   UNL     1       3.916   0.861  -4.001  0.00  0.00    +0.005 A 
ATOM     25  C   UNL     1       5.049   1.631  -4.189  0.00  0.00    +0.000 A 
ATOM     26  C   UNL     1       4.987   2.771  -4.969  0.00  0.00    +0.000 A 
ATOM     27  C   UNL     1       3.794   3.141  -5.561  0.00  0.00    +0.000 A 
ATOM     28  C   UNL     1       2.663   2.369  -5.376  0.00  0.00    +0.005 A 
ENDBRANCH  15  23
ENDBRANCH   1  15
TORSDOF 6
