REMARK  Name = ZINC67252665
REMARK  11 active torsions:
REMARK  status: ('A' for Active; 'I' for Inactive)
REMARK    1  A    between atoms: C_1  and  C_2
REMARK    2  A    between atoms: C_2  and  C_3
REMARK    3  A    between atoms: C_7  and  C_27
REMARK    4  A    between atoms: C_8  and  N_9
REMARK    5  A    between atoms: N_12  and  C_13
REMARK    6  A    between atoms: C_13  and  C_15
REMARK    7  A    between atoms: C_13  and  C_16
REMARK    8  A    between atoms: C_20  and  S_22
REMARK    9  A    between atoms: S_22  and  N_25
REMARK   10  A    between atoms: N_25  and  C_26
REMARK   11  A    between atoms: C_27  and  C_28
REMARK                            x       y       z     vdW  Elec       q    Type
REMARK                         _______ _______ _______ _____ _____    ______ ____
ROOT
ATOM      1  N   UNL     1       1.989   1.980  -3.023  0.00  0.00    -0.269 N 
ATOM      2  C   UNL     1       3.130   2.623  -2.704  0.00  0.00    +0.304 C 
ATOM      3  O   UNL     1       3.966   2.072  -2.014  0.00  0.00    -0.252 OA
ATOM      4  N   UNL     1       3.344   3.877  -3.150  0.00  0.00    -0.293 N 
ATOM      5  H   UNL     1       1.361   2.385  -3.643  0.00  0.00    +0.156 HD
ATOM      6  H   UNL     1       2.677   4.316  -3.701  0.00  0.00    +0.151 HD
ENDROOT
BRANCH   1  12
ATOM      7  C   UNL     1       0.765   0.618  -1.447  0.00  0.00    -0.026 A 
ATOM      8  C   UNL     1       0.488  -0.618  -0.898  0.00  0.00    +0.005 A 
ATOM      9  C   UNL     1       1.152  -1.743  -1.351  0.00  0.00    +0.001 A 
ATOM     10  C   UNL     1       2.097  -1.634  -2.355  0.00  0.00    +0.005 A 
ATOM     11  C   UNL     1       2.380  -0.400  -2.908  0.00  0.00    -0.026 A 
ATOM     12  C   UNL     1       1.709   0.730  -2.460  0.00  0.00    +0.041 A 
BRANCH   7  14
ATOM     13  C   UNL     1      -1.169   2.117  -1.849  0.00  0.00    +0.009 C 
ATOM     14  C   UNL     1       0.041   1.844  -0.953  0.00  0.00    +0.033 C 
ENDBRANCH   7  14
BRANCH  11  15
ATOM     15  C   UNL     1       3.410  -0.282  -4.002  0.00  0.00    +0.033 C 
ATOM     16  C   UNL     1       4.053  -1.649  -4.245  0.00  0.00    +0.009 C 
ENDBRANCH  11  15
ENDBRANCH   1  12
BRANCH   4  17
ATOM     17  C   UNL     1       4.584   4.575  -2.804  0.00  0.00    +0.102 C 
ATOM     18  C   UNL     1       4.428   5.245  -1.438  0.00  0.00    +0.033 C 
BRANCH  17  19
ATOM     19  C   UNL     1       4.879   5.623  -3.846  0.00  0.00    -0.026 A 
ATOM     20  C   UNL     1       3.851   6.385  -4.370  0.00  0.00    +0.005 A 
ATOM     21  C   UNL     1       4.121   7.346  -5.327  0.00  0.00    +0.002 A 
ATOM     22  C   UNL     1       5.419   7.545  -5.759  0.00  0.00    +0.028 A 
ATOM     23  C   UNL     1       6.447   6.784  -5.234  0.00  0.00    +0.106 A 
ATOM     24  C   UNL     1       6.177   5.826  -4.275  0.00  0.00    +0.034 A 
BRANCH  23  25
ATOM     25  S   UNL     1       8.101   7.038  -5.785  0.00  0.00    +0.058 S 
ATOM     26  O   UNL     1       8.802   5.827  -5.539  0.00  0.00    -0.153 OA
ATOM     27  O   UNL     1       8.013   7.618  -7.080  0.00  0.00    -0.153 OA
BRANCH  25  28
ATOM     28  N   UNL     1       8.775   8.185  -4.798  0.00  0.00    -0.193 NA
ATOM     29  C   UNL     1       8.978   7.899  -3.376  0.00  0.00    +0.127 C 
ATOM     30  H   UNL     1       9.036   9.045  -5.162  0.00  0.00    +0.148 HD
ENDBRANCH  25  28
ENDBRANCH  23  25
ENDBRANCH  17  19
ENDBRANCH   4  17
TORSDOF 7
