REMARK  Name = ZINC23567051
REMARK  11 active torsions:
REMARK  status: ('A' for Active; 'I' for Inactive)
REMARK    1  A    between atoms: C_1  and  C_2
REMARK    2  A    between atoms: C_2  and  C_4
REMARK    3  A    between atoms: C_2  and  O_25
REMARK    4  A    between atoms: N_6  and  N_7
REMARK    5  A    between atoms: C_8  and  C_10
REMARK    6  A    between atoms: C_10  and  C_12
REMARK    7  A    between atoms: C_10  and  N_15
REMARK    8  A    between atoms: C_12  and  C_13
REMARK    9  A    between atoms: C_12  and  C_14
REMARK   10  A    between atoms: C_16  and  C_18
REMARK   11  A    between atoms: O_25  and  C_26
REMARK                            x       y       z     vdW  Elec       q    Type
REMARK                         _______ _______ _______ _____ _____    ______ ____
ROOT
ATOM      1  N   UNL     1       3.279  -1.352   1.861  0.00  0.00    -0.233 N 
ATOM      2  C   UNL     1       4.311  -0.791   2.521  0.00  0.00    +0.250 C 
ATOM      3  O   UNL     1       4.783   0.256   2.130  0.00  0.00    -0.272 OA
ATOM      4  H   UNL     1       2.854  -2.149   2.214  0.00  0.00    +0.173 HD
ENDROOT
BRANCH   1   7
ATOM      5  C   UNL     1       1.787  -1.345   0.006  0.00  0.00    +0.270 C 
ATOM      6  O   UNL     1       1.255  -2.342   0.448  0.00  0.00    -0.270 OA
ATOM      7  N   UNL     1       2.819  -0.784   0.666  0.00  0.00    -0.231 N 
ATOM      8  H   UNL     1       3.245   0.013   0.313  0.00  0.00    +0.173 HD
BRANCH   5  10
ATOM      9  C   UNL     1       0.713   0.653  -0.996  0.00  0.00    +0.062 C 
ATOM     10  C   UNL     1       1.292  -0.735  -1.280  0.00  0.00    +0.257 C 
BRANCH  10  11
ATOM     11  O   UNL     1       0.278  -1.568  -1.844  0.00  0.00    -0.477 OA
BRANCH  11  12
ATOM     12  C   UNL     1       0.077  -1.474  -3.185  0.00  0.00    +0.157 A 
ATOM     13  C   UNL     1       0.869  -0.629  -3.948  0.00  0.00    +0.048 A 
ATOM     14  C   UNL     1       0.664  -0.536  -5.312  0.00  0.00    +0.004 A 
ATOM     15  C   UNL     1      -0.330  -1.283  -5.916  0.00  0.00    +0.003 A 
ATOM     16  C   UNL     1      -1.122  -2.126  -5.159  0.00  0.00    +0.042 A 
ATOM     17  C   UNL     1      -0.917  -2.229  -3.795  0.00  0.00    +0.165 A 
ATOM     18  F   UNL     1      -1.686  -3.057  -3.055  0.00  0.00    -0.202 F 
ENDBRANCH  11  12
ENDBRANCH  10  11
ENDBRANCH   5  10
ENDBRANCH   1   7
BRANCH   2  19
ATOM     19  C   UNL     1       4.880  -1.464   3.743  0.00  0.00    +0.163 C 
BRANCH  19  20
ATOM     20  N   UNL     1       6.295  -1.111   3.882  0.00  0.00    -0.300 N 
ATOM     21  C   UNL     1       7.133  -1.931   4.547  0.00  0.00    +0.245 C 
ATOM     22  O   UNL     1       6.714  -2.964   5.032  0.00  0.00    -0.270 OA
ATOM     23  H   UNL     1       6.629  -0.286   3.495  0.00  0.00    +0.150 HD
BRANCH  21  24
ATOM     24  C   UNL     1       8.560  -1.574   4.687  0.00  0.00    +0.037 A 
ATOM     25  C   UNL     1       9.043  -0.386   4.136  0.00  0.00    +0.014 A 
ATOM     26  C   UNL     1      10.375  -0.058   4.270  0.00  0.00    +0.021 A 
ATOM     27  C   UNL     1      11.235  -0.906   4.949  0.00  0.00    +0.041 A 
ATOM     28  C   UNL     1      10.762  -2.086   5.498  0.00  0.00    +0.021 A 
ATOM     29  C   UNL     1       9.430  -2.422   5.375  0.00  0.00    +0.014 A 
ATOM     30 CL   UNL     1      12.912  -0.487   5.113  0.00  0.00    -0.084 Cl
ENDBRANCH  21  24
ENDBRANCH  19  20
BRANCH  19  31
ATOM     31  C   UNL     1       4.115  -1.000   4.984  0.00  0.00    +0.012 C 
ATOM     32  C   UNL     1       2.623  -1.285   4.799  0.00  0.00    +0.009 C 
ATOM     33  C   UNL     1       4.629  -1.753   6.212  0.00  0.00    +0.009 C 
ENDBRANCH  19  31
ENDBRANCH   2  19
TORSDOF 8
