REMARK  Name = ZINC31809672
REMARK  7 active torsions:
REMARK  status: ('A' for Active; 'I' for Inactive)
REMARK    1  A    between atoms: C_1  and  O_2
REMARK    2  A    between atoms: O_2  and  C_3
REMARK    3  A    between atoms: C_3  and  C_5
REMARK    4  A    between atoms: C_5  and  C_7
REMARK    5  A    between atoms: C_5  and  N_14
REMARK    6  A    between atoms: C_7  and  C_8
REMARK    7  A    between atoms: C_26  and  C_28
REMARK                            x       y       z     vdW  Elec       q    Type
REMARK                         _______ _______ _______ _____ _____    ______ ____
ROOT
ATOM      1  N   UNL     1      -0.952  -2.218  -3.771  0.00  0.00    -0.286 N 
ATOM      2  C   UNL     1       0.341  -2.518  -3.536  0.00  0.00    +0.304 C 
ATOM      3  O   UNL     1       0.820  -2.320  -2.436  0.00  0.00    -0.253 OA
ATOM      4  N   UNL     1       1.102  -3.037  -4.520  0.00  0.00    -0.273 N 
ATOM      5  C   UNL     1       2.478  -3.481  -4.252  0.00  0.00    +0.116 C 
ATOM      6  C   UNL     1       3.452  -2.607  -5.052  0.00  0.00    +0.074 C 
ATOM      7  C   UNL     1       2.927  -2.455  -6.456  0.00  0.00    +0.040 A 
ATOM      8  C   UNL     1       1.654  -2.698  -6.834  0.00  0.00    +0.062 A 
ATOM      9  N   UNL     1       1.556  -2.453  -8.142  0.00  0.00    -0.348 N 
ATOM     10  C   UNL     1       2.721  -2.068  -8.595  0.00  0.00    +0.171 A 
ATOM     11  N   UNL     1       3.604  -2.058  -7.570  0.00  0.00    -0.349 N 
ATOM     12  H   UNL     1       4.541  -1.815  -7.619  0.00  0.00    +0.166 HD
ATOM     13  C   UNL     1       0.573  -3.177  -5.888  0.00  0.00    +0.156 C 
ATOM     14  H   UNL     1      -1.316  -2.308  -4.666  0.00  0.00    +0.151 HD
ATOM     15  H   UNL     1       0.749  -2.545  -8.673  0.00  0.00    +0.167 HD
ENDROOT
BRANCH  13  16
ATOM     16  C   UNL     1       0.247  -4.622  -6.166  0.00  0.00    -0.021 A 
ATOM     17  C   UNL     1       1.254  -5.569  -6.171  0.00  0.00    +0.007 A 
ATOM     18  C   UNL     1       0.955  -6.895  -6.425  0.00  0.00    +0.015 A 
ATOM     19  C   UNL     1      -0.352  -7.273  -6.674  0.00  0.00    +0.018 A 
ATOM     20  C   UNL     1      -1.360  -6.325  -6.669  0.00  0.00    +0.015 A 
ATOM     21  C   UNL     1      -1.060  -5.001  -6.409  0.00  0.00    +0.007 A 
ATOM     22 BR   UNL     1      -0.762  -9.086  -7.022  0.00  0.00    -0.050 Br
ENDBRANCH  13  16
BRANCH   1  23
ATOM     23  C   UNL     1      -1.808  -1.757  -2.675  0.00  0.00    +0.187 C 
BRANCH  23  24
ATOM     24  C   UNL     1      -2.368  -2.948  -1.940  0.00  0.00    +0.328 C 
ATOM     25  O   UNL     1      -2.081  -4.066  -2.295  0.00  0.00    -0.249 OA
BRANCH  24  27
ATOM     26  C   UNL     1      -3.679  -3.939  -0.241  0.00  0.00    +0.280 C 
ATOM     27  O   UNL     1      -3.185  -2.765  -0.891  0.00  0.00    -0.467 OA
ENDBRANCH  24  27
ENDBRANCH  23  24
BRANCH  23  28
ATOM     28  C   UNL     1      -2.958  -0.922  -3.242  0.00  0.00    +0.069 C 
BRANCH  28  29
ATOM     29  C   UNL     1      -2.405   0.332  -3.871  0.00  0.00    -0.045 A 
ATOM     30  C   UNL     1      -2.249   1.475  -3.110  0.00  0.00    +0.004 A 
ATOM     31  C   UNL     1      -1.742   2.625  -3.687  0.00  0.00    +0.000 A 
ATOM     32  C   UNL     1      -1.391   2.631  -5.024  0.00  0.00    +0.000 A 
ATOM     33  C   UNL     1      -1.546   1.487  -5.784  0.00  0.00    +0.000 A 
ATOM     34  C   UNL     1      -2.049   0.336  -5.207  0.00  0.00    +0.004 A 
ENDBRANCH  28  29
ENDBRANCH  23  28
ENDBRANCH   1  23
TORSDOF 6
