REMARK  Name = ZINC02814078
REMARK  9 active torsions:
REMARK  status: ('A' for Active; 'I' for Inactive)
REMARK    1  A    between atoms: C_1  and  C_2
REMARK    2  A    between atoms: C_2  and  C_3
REMARK    3  A    between atoms: C_2  and  C_4
REMARK    4  A    between atoms: C_2  and  C_5
REMARK    5  A    between atoms: C_8  and  C_11
REMARK    6  A    between atoms: N_13  and  C_14
REMARK    7  A    between atoms: C_14  and  N_16
REMARK    8  A    between atoms: C_19  and  C_22
REMARK    9  A    between atoms: C_26  and  N_28
REMARK                            x       y       z     vdW  Elec       q    Type
REMARK                         _______ _______ _______ _____ _____    ______ ____
ROOT
ATOM      1  C   UNL     1       4.613  -1.959  -6.059  0.00  0.00    +0.163 C 
ATOM      2  S   UNL     1       3.781  -2.941  -7.187  0.00  0.00    -0.016 S 
ENDROOT
BRANCH   1   3
ATOM      3  N   UNL     1       5.893  -1.617  -6.282  0.00  0.00    -0.169 NA
ATOM      4  C   UNL     1       6.540  -2.121  -7.313  0.00  0.00    +0.162 A 
ATOM      5  N   UNL     1       7.864  -1.974  -7.642  0.00  0.00    -0.335 N 
ATOM      6  C   UNL     1       8.305  -2.579  -8.739  0.00  0.00    +0.055 A 
ATOM      7  C   UNL     1       7.318  -3.359  -9.507  0.00  0.00    +0.074 A 
ATOM      8  S   UNL     1       5.907  -3.164  -8.612  0.00  0.00    -0.060 S 
ATOM      9  H   UNL     1       8.460  -1.445  -7.090  0.00  0.00    +0.168 HD
BRANCH   6  10
ATOM     10  C   UNL     1       9.699  -2.477  -9.163  0.00  0.00    +0.001 A 
ATOM     11  C   UNL     1      10.619  -1.727  -8.404  0.00  0.00    +0.010 A 
ATOM     12  C   UNL     1      11.919  -1.638  -8.810  0.00  0.00    +0.003 A 
ATOM     13  C   UNL     1      12.336  -2.282  -9.967  0.00  0.00    +0.033 A 
ATOM     14  C   UNL     1      11.439  -3.023 -10.723  0.00  0.00    +0.127 A 
ATOM     15  C   UNL     1      10.134  -3.131 -10.332  0.00  0.00    +0.042 A 
BRANCH  14  16
ATOM     16  N   UNL     1      11.899  -3.703 -11.954  0.00  0.00    +0.056 N 
ATOM     17  O   UNL     1      13.157  -3.605 -12.331  0.00  0.00    -0.126 OA
ATOM     18  O   UNL     1      11.049  -4.407 -12.674  0.00  0.00    -0.126 OA
ENDBRANCH  14  16
ENDBRANCH   6  10
ENDBRANCH   1   3
BRANCH   1  21
ATOM     19  C   UNL     1       2.701  -1.873  -4.723  0.00  0.00    +0.250 C 
ATOM     20  O   UNL     1       2.110  -2.570  -5.524  0.00  0.00    -0.270 OA
ATOM     21  N   UNL     1       3.985  -1.529  -4.947  0.00  0.00    -0.262 N 
ATOM     22  H   UNL     1       4.456  -0.973  -4.308  0.00  0.00    +0.157 HD
BRANCH  19  26
ATOM     23  C   UNL     1       0.720  -0.519  -1.218  0.00  0.00    -0.042 A 
ATOM     24  C   UNL     1       0.044  -1.312  -2.128  0.00  0.00    +0.005 A 
ATOM     25  C   UNL     1       0.682  -1.756  -3.269  0.00  0.00    +0.013 A 
ATOM     26  C   UNL     1       2.012  -1.402  -3.504  0.00  0.00    +0.037 A 
ATOM     27  C   UNL     1       2.688  -0.601  -2.581  0.00  0.00    +0.013 A 
ATOM     28  C   UNL     1       2.037  -0.160  -1.448  0.00  0.00    +0.005 A 
BRANCH  23  30
ATOM     29  C   UNL     1      -0.007   1.491   0.039  0.00  0.00    +0.015 C 
ATOM     30  C   UNL     1       0.018  -0.039   0.025  0.00  0.00    -0.013 C 
ATOM     31  C   UNL     1       0.762  -0.548   1.261  0.00  0.00    +0.015 C 
ATOM     32  C   UNL     1      -1.417  -0.572   0.039  0.00  0.00    +0.015 C 
ENDBRANCH  23  30
ENDBRANCH  19  26
ENDBRANCH   1  21
TORSDOF 6
