REMARK  Name = ZINC16856469
REMARK  8 active torsions:
REMARK  status: ('A' for Active; 'I' for Inactive)
REMARK    1  A    between atoms: C_1  and  N_2
REMARK    2  A    between atoms: N_2  and  C_3
REMARK    3  A    between atoms: N_2  and  C_4
REMARK    4  A    between atoms: C_7  and  C_10
REMARK    5  A    between atoms: C_11  and  C_12
REMARK    6  A    between atoms: C_13  and  C_19
REMARK    7  A    between atoms: C_14  and  O_18
REMARK    8  A    between atoms: C_19  and  C_20
REMARK                            x       y       z     vdW  Elec       q    Type
REMARK                         _______ _______ _______ _____ _____    ______ ____
ROOT
ATOM      1  C   UNL     1      -1.297   1.795   0.010  0.00  0.00    +0.074 A 
ATOM      2  C   UNL     1      -2.506   1.091  -0.008  0.00  0.00    +0.044 A 
ATOM      3  C   UNL     1      -3.689   1.819   0.009  0.00  0.00    +0.219 A 
ATOM      4  N   UNL     1      -3.632   3.148   0.031  0.00  0.00    -0.201 NA
ATOM      5  C   UNL     1      -2.474   3.778   0.043  0.00  0.00    +0.225 A 
ATOM      6  N   UNL     1      -1.328   3.131   0.033  0.00  0.00    -0.235 NA
ENDROOT
BRANCH   1   8
ATOM      7  C   UNL     1       1.143   1.764   0.006  0.00  0.00    +0.010 C 
ATOM      8  C   UNL     1      -0.013   1.076  -0.001  0.00  0.00    +0.029 C 
BRANCH   7  12
ATOM      9  C   UNL     1       4.846  -0.308  -0.045  0.00  0.00    +0.029 A 
ATOM     10  C   UNL     1       4.830   1.083  -0.021  0.00  0.00    +0.023 A 
ATOM     11  C   UNL     1       3.630   1.759  -0.005  0.00  0.00    +0.010 A 
ATOM     12  C   UNL     1       2.427   1.045  -0.012  0.00  0.00    -0.025 A 
ATOM     13  C   UNL     1       2.448  -0.353  -0.029  0.00  0.00    +0.010 A 
ATOM     14  C   UNL     1       3.652  -1.021  -0.052  0.00  0.00    +0.023 A 
BRANCH   9  16
ATOM     15  C   UNL     1       7.317  -0.242  -0.181  0.00  0.00    +0.129 C 
ATOM     16  N   UNL     1       6.062  -0.988  -0.062  0.00  0.00    -0.336 N 
ATOM     17  C   UNL     1       6.086  -2.450   0.040  0.00  0.00    +0.129 C 
ENDBRANCH   9  16
ENDBRANCH   7  12
ENDBRANCH   1   8
BRANCH   3  18
ATOM     18  O   UNL     1      -4.887   1.184  -0.003  0.00  0.00    -0.492 OA
ATOM     19  H   UNL     1      -5.233   1.014  -0.889  0.00  0.00    +0.294 HD
ENDBRANCH   3  18
BRANCH   2  20
ATOM     20  C   UNL     1      -2.524  -0.415  -0.040  0.00  0.00    +0.077 C 
BRANCH  20  21
ATOM     21  C   UNL     1      -2.534  -0.947   1.370  0.00  0.00    -0.043 A 
ATOM     22  C   UNL     1      -1.341  -1.211   2.017  0.00  0.00    +0.005 A 
ATOM     23  C   UNL     1      -1.350  -1.694   3.312  0.00  0.00    +0.020 A 
ATOM     24  C   UNL     1      -2.552  -1.924   3.957  0.00  0.00    +0.041 A 
ATOM     25  C   UNL     1      -3.745  -1.665   3.306  0.00  0.00    +0.020 A 
ATOM     26  C   UNL     1      -3.736  -1.177   2.013  0.00  0.00    +0.005 A 
ATOM     27 CL   UNL     1      -2.563  -2.537   5.581  0.00  0.00    -0.084 Cl
ENDBRANCH  20  21
ENDBRANCH   2  20
TORSDOF 6
