REMARK  Name = ZINC36206453
REMARK  14 active torsions:
REMARK  status: ('A' for Active; 'I' for Inactive)
REMARK    1  A    between atoms: C_1  and  C_2
REMARK    2  A    between atoms: C_5  and  C_9
REMARK    3  A    between atoms: C_6  and  C_8
REMARK    4  A    between atoms: C_18  and  C_20
REMARK    5  A    between atoms: C_20  and  N_21
REMARK    6  A    between atoms: N_21  and  C_22
REMARK    7  A    between atoms: N_21  and  C_29
REMARK    8  A    between atoms: C_22  and  C_23
REMARK    9  A    between atoms: C_23  and  C_25
REMARK   10  A    between atoms: C_23  and  O_28
REMARK   11  A    between atoms: C_25  and  C_26
REMARK   12  A    between atoms: C_25  and  C_27
REMARK   13  A    between atoms: C_29  and  C_30
REMARK   14  A    between atoms: C_29  and  C_31
REMARK                            x       y       z     vdW  Elec       q    Type
REMARK                         _______ _______ _______ _____ _____    ______ ____
ROOT
ATOM      1  C   UNL     1       1.113  -5.141   3.883  0.00  0.00    +0.004 A 
ATOM      2  C   UNL     1       2.179  -5.976   3.892  0.00  0.00    +0.056 A 
ATOM      3  S   UNL     1       1.479  -7.544   3.415  0.00  0.00    -0.076 S 
ATOM      4  C   UNL     1      -0.212  -7.047   3.216  0.00  0.00    +0.116 A 
ATOM      5  C   UNL     1      -0.196  -5.678   3.530  0.00  0.00    +0.080 A 
ATOM      6  C   UNL     1      -1.459  -5.010   3.454  0.00  0.00    +0.260 A 
ATOM      7  O   UNL     1      -1.546  -3.820   3.703  0.00  0.00    -0.267 OA
ATOM      8  N   UNL     1      -2.550  -5.715   3.102  0.00  0.00    -0.312 N 
ATOM      9  H   UNL     1      -3.409  -5.267   3.049  0.00  0.00    +0.170 HD
ATOM     10  C   UNL     1      -2.473  -7.041   2.820  0.00  0.00    +0.094 A 
ATOM     11  N   UNL     1      -1.332  -7.676   2.871  0.00  0.00    -0.229 NA
ENDROOT
BRANCH   1  16
ATOM     12  C   UNL     1       1.730   0.423   5.232  0.00  0.00    +0.044 C 
ATOM     13  C   UNL     1       1.569  -1.033   4.879  0.00  0.00    -0.050 A 
ATOM     14  C   UNL     1       2.178  -1.539   3.744  0.00  0.00    +0.004 A 
ATOM     15  C   UNL     1       2.033  -2.871   3.416  0.00  0.00    +0.009 A 
ATOM     16  C   UNL     1       1.272  -3.708   4.230  0.00  0.00    -0.014 A 
ATOM     17  C   UNL     1       0.661  -3.193   5.372  0.00  0.00    -0.042 A 
ATOM     18  C   UNL     1       0.817  -1.860   5.694  0.00  0.00    +0.007 A 
ATOM     19  C   UNL     1      -0.164  -4.092   6.258  0.00  0.00    +0.044 C 
ENDBRANCH   1  16
BRANCH  10  20
ATOM     20  C   UNL     1      -3.721  -7.790   2.430  0.00  0.00    -0.003 C 
BRANCH  20  21
ATOM     21  N   UNL     1      -3.362  -9.147   1.997  0.00  0.00    +0.388 N 
ATOM     22  H   UNL     1      -2.570  -9.472   2.531  0.00  0.00    -0.081 HD
BRANCH  21  23
ATOM     23  C   UNL     1      -3.018  -9.130   0.569  0.00  0.00    -0.074 C 
ATOM     24  C   UNL     1      -4.210  -8.611  -0.237  0.00  0.00    -0.014 C 
ATOM     25  C   UNL     1      -1.813  -8.213   0.346  0.00  0.00    -0.014 C 
ENDBRANCH  21  23
BRANCH  21  26
ATOM     26  C   UNL     1      -4.503 -10.047   2.215  0.00  0.00    -0.046 C 
BRANCH  26  27
ATOM     27  C   UNL     1      -4.080 -11.487   1.915  0.00  0.00    +0.101 C 
BRANCH  27  28
ATOM     28  C   UNL     1      -5.187 -12.446   2.357  0.00  0.00    +0.010 C 
ATOM     29  C   UNL     1      -6.438 -12.207   1.510  0.00  0.00    +0.010 C 
ATOM     30  C   UNL     1      -4.714 -13.890   2.173  0.00  0.00    +0.010 C 
ENDBRANCH  27  28
BRANCH  27  31
ATOM     31  O   UNL     1      -3.854 -11.635   0.512  0.00  0.00    -0.393 OA
ATOM     32  H   UNL     1      -4.609 -11.380  -0.037  0.00  0.00    +0.210 HD
ENDBRANCH  27  31
ENDBRANCH  26  27
ENDBRANCH  21  26
ENDBRANCH  20  21
ENDBRANCH  10  20
TORSDOF 8
