REMARK  Name = ZINC09777889
REMARK  10 active torsions:
REMARK  status: ('A' for Active; 'I' for Inactive)
REMARK    1  A    between atoms: C_1  and  N_59
REMARK    2  A    between atoms: C_2  and  C_3
REMARK    3  A    between atoms: C_2  and  N_59
REMARK    4  A    between atoms: C_8  and  O_9
REMARK    5  A    between atoms: O_9  and  C_10
REMARK    6  A    between atoms: C_12  and  N_13
REMARK    7  A    between atoms: C_12  and  N_59
REMARK    8  A    between atoms: C_16  and  C_20
REMARK    9  A    between atoms: C_16  and  C_27
REMARK   10  A    between atoms: C_20  and  C_21
REMARK                            x       y       z     vdW  Elec       q    Type
REMARK                         _______ _______ _______ _____ _____    ______ ____
ROOT
ATOM      1  N   UNL     1       4.214  -2.384   1.429  0.00  0.00    -0.241 N 
ATOM      2  C   UNL     1       4.157  -1.035   1.373  0.00  0.00    +0.250 C 
ATOM      3  O   UNL     1       4.407  -0.251   2.263  0.00  0.00    -0.272 OA
ATOM      4  C   UNL     1       3.711  -0.707  -0.038  0.00  0.00    +0.142 C 
ATOM      5  N   UNL     1       3.558  -2.028  -0.673  0.00  0.00    -0.281 N 
ATOM      6  C   UNL     1       3.874  -2.942   0.262  0.00  0.00    +0.308 C 
ATOM      7  O   UNL     1       3.852  -4.142   0.068  0.00  0.00    -0.252 OA
ATOM      8  H   UNL     1       3.284  -2.204  -1.586  0.00  0.00    +0.152 HD
ENDROOT
BRANCH   4   9
ATOM      9  C   UNL     1       2.396   0.029  -0.022  0.00  0.00    -0.015 A 
ATOM     10  C   UNL     1       1.208  -0.679  -0.013  0.00  0.00    +0.006 A 
ATOM     11  C   UNL     1       0.002  -0.004   0.002  0.00  0.00    +0.000 A 
ATOM     12  C   UNL     1      -0.017   1.378   0.010  0.00  0.00    +0.000 A 
ATOM     13  C   UNL     1       1.171   2.086   0.002  0.00  0.00    +0.000 A 
ATOM     14  C   UNL     1       2.377   1.411  -0.015  0.00  0.00    +0.006 A 
ENDBRANCH   4   9
BRANCH   1  15
ATOM     15  C   UNL     1       4.605  -3.141   2.621  0.00  0.00    +0.043 C 
BRANCH  15  17
ATOM     16  C   UNL     1       6.766  -2.163   3.105  0.00  0.00    -0.093 C 
ATOM     17  N   UNL     1       6.066  -3.357   2.586  0.00  0.00    +0.391 N 
ATOM     18  H   UNL     1       6.357  -3.517   1.614  0.00  0.00    -0.079 HD
BRANCH  17  19
ATOM     19  C   UNL     1       6.422  -4.542   3.394  0.00  0.00    -0.037 C 
BRANCH  19  20
ATOM     20  C   UNL     1       7.875  -4.869   3.164  0.00  0.00    -0.021 A 
ATOM     21  C   UNL     1       8.227  -5.872   2.283  0.00  0.00    +0.025 A 
ATOM     22  C   UNL     1       9.562  -6.169   2.068  0.00  0.00    +0.041 A 
ATOM     23  C   UNL     1      10.546  -5.469   2.744  0.00  0.00    +0.023 A 
ATOM     24  C   UNL     1      10.197  -4.468   3.630  0.00  0.00    +0.047 A 
ATOM     25  C   UNL     1       8.860  -4.165   3.842  0.00  0.00    +0.122 A 
ATOM     26 CL   UNL     1      10.002  -7.426   0.955  0.00  0.00    -0.084 Cl
BRANCH  25  27
ATOM     27  O   UNL     1       8.515  -3.181   4.714  0.00  0.00    -0.495 OA
ATOM     28  C   UNL     1       9.582  -2.499   5.377  0.00  0.00    +0.277 C 
ENDBRANCH  25  27
ENDBRANCH  19  20
ENDBRANCH  17  19
ENDBRANCH  15  17
ENDBRANCH   1  15
BRANCH   4  29
ATOM     29  C   UNL     1       4.778   0.117  -0.761  0.00  0.00    +0.075 C 
BRANCH  29  30
ATOM     30  C   UNL     1       6.046  -0.689  -0.872  0.00  0.00    -0.045 A 
ATOM     31  C   UNL     1       7.002  -0.615   0.124  0.00  0.00    +0.004 A 
ATOM     32  C   UNL     1       8.164  -1.358   0.025  0.00  0.00    +0.000 A 
ATOM     33  C   UNL     1       8.373  -2.168  -1.075  0.00  0.00    +0.000 A 
ATOM     34  C   UNL     1       7.420  -2.239  -2.074  0.00  0.00    +0.000 A 
ATOM     35  C   UNL     1       6.257  -1.499  -1.972  0.00  0.00    +0.004 A 
ENDBRANCH  29  30
ENDBRANCH   4  29
TORSDOF 8
