REMARK  Name = ZINC41632471
REMARK  4 active torsions:
REMARK  status: ('A' for Active; 'I' for Inactive)
REMARK    1  A    between atoms: C_1  and  C_2
REMARK    2  A    between atoms: C_5  and  S_8
REMARK    3  A    between atoms: S_8  and  C_9
REMARK    4  A    between atoms: C_14  and  N_15
REMARK                            x       y       z     vdW  Elec       q    Type
REMARK                         _______ _______ _______ _____ _____    ______ ____
ROOT
ATOM      1  C   UNL     1      -5.104   2.511  -1.732  0.00  0.00    +0.037 A 
ATOM      2  C   UNL     1      -4.647   2.154  -0.472  0.00  0.00    +0.022 A 
ATOM      3  C   UNL     1      -5.540   2.011   0.573  0.00  0.00    -0.025 A 
ATOM      4  C   UNL     1      -6.897   2.225   0.365  0.00  0.00    +0.038 A 
ATOM      5  C   UNL     1      -7.359   2.584  -0.894  0.00  0.00    +0.047 A 
ATOM      6  C   UNL     1      -6.465   2.733  -1.942  0.00  0.00    +0.040 A 
ATOM      7  N   UNL     1      -7.797   2.079   1.428  0.00  0.00    -0.285 N 
ATOM      8  C   UNL     1      -7.360   2.103   2.700  0.00  0.00    +0.218 C 
ATOM      9  O   UNL     1      -8.151   1.960   3.609  0.00  0.00    -0.275 OA
ATOM     10  C   UNL     1      -5.901   2.303   3.009  0.00  0.00    +0.101 C 
ATOM     11  C   UNL     1      -5.044   1.622   1.942  0.00  0.00    +0.046 C 
ATOM     12  H   UNL     1      -8.742   1.959   1.245  0.00  0.00    +0.155 HD
ENDROOT
BRANCH   6  13
ATOM     13  N   UNL     1      -6.927   3.099  -3.211  0.00  0.00    -0.357 N 
ATOM     14  H   UNL     1      -6.301   3.200  -3.945  0.00  0.00    +0.142 HD
ATOM     15  H   UNL     1      -7.874   3.253  -3.356  0.00  0.00    +0.142 HD
ENDBRANCH   6  13
BRANCH   1  16
ATOM     16  S   UNL     1      -3.964   2.693  -3.064  0.00  0.00    -0.049 S 
BRANCH  16  21
ATOM     17  C   UNL     1      -5.657  -2.013  -4.683  0.00  0.00    +0.090 C 
ATOM     18  C   UNL     1      -4.908  -0.705  -4.676  0.00  0.00    +0.149 A 
ATOM     19  N   UNL     1      -4.976   0.219  -3.718  0.00  0.00    -0.206 NA
ATOM     20  H   UNL     1      -2.988   1.526  -5.696  0.00  0.00    +0.191 HD
ATOM     21  C   UNL     1      -4.199   1.236  -4.027  0.00  0.00    +0.189 A 
ATOM     22  N   UNL     1      -3.613   0.963  -5.213  0.00  0.00    -0.253 N 
ATOM     23  N   UNL     1      -4.086  -0.299  -5.606  0.00  0.00    -0.157 NA
ENDBRANCH  16  21
ENDBRANCH   1  16
TORSDOF 3
