REMARK  Name = ZINC09240514
REMARK  16 active torsions:
REMARK  status: ('A' for Active; 'I' for Inactive)
REMARK    1  A    between atoms: C_1  and  C_2
REMARK    2  A    between atoms: C_2  and  N_75
REMARK    3  A    between atoms: C_3  and  C_4
REMARK    4  A    between atoms: C_3  and  N_75
REMARK    5  A    between atoms: C_5  and  C_6
REMARK    6  A    between atoms: C_5  and  N_75
REMARK    7  A    between atoms: C_6  and  C_7
REMARK    8  A    between atoms: C_7  and  N_8
REMARK    9  A    between atoms: C_9  and  C_28
REMARK   10  A    between atoms: C_12  and  C_13
REMARK   11  A    between atoms: C_12  and  O_23
REMARK   12  A    between atoms: C_14  and  C_22
REMARK   13  A    between atoms: C_31  and  C_34
REMARK   14  A    between atoms: C_34  and  C_35
REMARK   15  A    between atoms: C_34  and  C_36
REMARK   16  A    between atoms: C_34  and  C_37
REMARK                            x       y       z     vdW  Elec       q    Type
REMARK                         _______ _______ _______ _____ _____    ______ ____
ROOT
ATOM      1  N   UNL     1       2.804  -2.370  -6.519  0.00  0.00    -0.284 N 
ATOM      2  C   UNL     1       3.840  -2.381  -5.482  0.00  0.00    +0.145 C 
ATOM      3  C   UNL     1       4.526  -3.725  -5.575  0.00  0.00    +0.073 C 
ATOM      4  C   UNL     1       5.576  -4.183  -4.783  0.00  0.00    +0.151 C 
ATOM      5  C   UNL     1       3.897  -4.414  -6.611  0.00  0.00    +0.249 C 
ATOM      6  O   UNL     1       4.173  -5.540  -6.990  0.00  0.00    -0.282 OA
ATOM      7  C   UNL     1       2.834  -3.543  -7.174  0.00  0.00    +0.288 C 
ATOM      8  O   UNL     1       2.099  -3.847  -8.091  0.00  0.00    -0.266 OA
ENDROOT
BRANCH   4   9
ATOM      9  C   UNL     1       6.109  -5.470  -4.996  0.00  0.00    +0.111 A 
ATOM     10  C   UNL     1       5.491  -6.686  -4.718  0.00  0.00    +0.068 A 
ATOM     11  N   UNL     1       6.318  -7.656  -5.064  0.00  0.00    -0.232 NA
ATOM     12  C   UNL     1       7.449  -7.139  -5.545  0.00  0.00    +0.138 A 
ATOM     13  N   UNL     1       7.354  -5.776  -5.518  0.00  0.00    -0.297 N 
ATOM     14  C   UNL     1       8.380  -5.000  -5.957  0.00  0.00    +0.093 A 
ATOM     15  C   UNL     1       9.517  -5.562  -6.430  0.00  0.00    +0.018 A 
ATOM     16  C   UNL     1       9.646  -6.957  -6.472  0.00  0.00    +0.005 A 
ATOM     17  C   UNL     1       8.621  -7.742  -6.033  0.00  0.00    +0.047 A 
ATOM     18  C   UNL     1       4.116  -6.865  -4.129  0.00  0.00    +0.068 C 
ENDBRANCH   4   9
BRANCH   2  19
ATOM     19  C   UNL     1       3.212  -2.214  -4.123  0.00  0.00    -0.022 A 
ATOM     20  C   UNL     1       3.838  -1.443  -3.162  0.00  0.00    +0.006 A 
ATOM     21  C   UNL     1       3.262  -1.290  -1.915  0.00  0.00    +0.004 A 
ATOM     22  C   UNL     1       2.060  -1.908  -1.628  0.00  0.00    -0.042 A 
ATOM     23  C   UNL     1       1.436  -2.684  -2.587  0.00  0.00    +0.004 A 
ATOM     24  C   UNL     1       2.009  -2.832  -3.837  0.00  0.00    +0.006 A 
BRANCH  22  25
ATOM     25  C   UNL     1       1.432  -1.742  -0.269  0.00  0.00    -0.013 C 
ATOM     26  C   UNL     1       1.155  -0.259  -0.013  0.00  0.00    +0.015 C 
ATOM     27  C   UNL     1       2.385  -2.275   0.802  0.00  0.00    +0.015 C 
ATOM     28  C   UNL     1       0.117  -2.522  -0.215  0.00  0.00    +0.015 C 
ENDBRANCH  22  25
ENDBRANCH   2  19
BRANCH   4  29
ATOM     29  O   UNL     1       6.083  -3.393  -3.810  0.00  0.00    -0.504 OA
ATOM     30  H   UNL     1       6.825  -3.874  -3.343  0.00  0.00    +0.292 HD
ENDBRANCH   4  29
BRANCH   1  31
ATOM     31  C   UNL     1       1.887  -1.262  -6.797  0.00  0.00    +0.107 C 
BRANCH  31  32
ATOM     32  C   UNL     1       2.514  -0.327  -7.833  0.00  0.00    +0.000 C 
BRANCH  32  33
ATOM     33  C   UNL     1       1.556   0.830  -8.123  0.00  0.00    -0.077 C 
BRANCH  33  34
ATOM     34  N   UNL     1       2.167   1.711  -9.140  0.00  0.00    +0.379 N 
ATOM     35  H   UNL     1       2.460   1.141  -9.943  0.00  0.00    -0.082 HD
BRANCH  34  37
ATOM     36  C   UNL     1       0.213   2.041 -10.571  0.00  0.00    -0.017 C 
ATOM     37  C   UNL     1       1.182   2.714  -9.597  0.00  0.00    -0.082 C 
ENDBRANCH  34  37
BRANCH  34  38
ATOM     38  C   UNL     1       3.353   2.389  -8.575  0.00  0.00    -0.082 C 
ATOM     39  C   UNL     1       4.170   2.988  -9.722  0.00  0.00    -0.017 C 
ENDBRANCH  34  38
ENDBRANCH  33  34
ENDBRANCH  32  33
ENDBRANCH  31  32
ENDBRANCH   1  31
TORSDOF 10
