REMARK  Name = ZINC21082580
REMARK  11 active torsions:
REMARK  status: ('A' for Active; 'I' for Inactive)
REMARK    1  A    between atoms: C_1  and  C_2
REMARK    2  A    between atoms: C_2  and  C_3
REMARK    3  A    between atoms: C_2  and  C_4
REMARK    4  A    between atoms: C_4  and  N_5
REMARK    5  A    between atoms: C_6  and  N_32
REMARK    6  A    between atoms: C_7  and  N_14
REMARK    7  A    between atoms: N_14  and  C_15
REMARK    8  A    between atoms: C_15  and  C_16
REMARK    9  A    between atoms: C_16  and  C_17
REMARK   10  A    between atoms: C_16  and  C_18
REMARK   11  A    between atoms: C_19  and  C_21
REMARK                            x       y       z     vdW  Elec       q    Type
REMARK                         _______ _______ _______ _____ _____    ______ ____
ROOT
ATOM      1  N   UNL     1       1.171   3.768   0.247  0.00  0.00    -0.260 N 
ATOM      2  C   UNL     1       0.067   4.509   0.470  0.00  0.00    +0.259 C 
ATOM      3  O   UNL     1       0.163   5.713   0.621  0.00  0.00    -0.269 OA
ENDROOT
BRANCH   2   4
ATOM      4  C   UNL     1      -1.250   3.865   0.529  0.00  0.00    +0.094 A 
ATOM      5  C   UNL     1      -2.464   4.436   0.760  0.00  0.00    +0.068 A 
ATOM      6  C   UNL     1      -3.623   3.638   0.774  0.00  0.00    +0.008 A 
ATOM      7  C   UNL     1      -4.965   4.043   0.991  0.00  0.00    +0.013 A 
ATOM      8  C   UNL     1      -5.976   3.138   0.978  0.00  0.00    +0.039 A 
ATOM      9  C   UNL     1      -5.739   1.784   0.753  0.00  0.00    +0.124 A 
ATOM     10  C   UNL     1      -4.446   1.347   0.538  0.00  0.00    +0.054 A 
ATOM     11  C   UNL     1      -3.411   2.257   0.548  0.00  0.00    +0.024 A 
ATOM     12  S   UNL     1      -1.654   2.139   0.326  0.00  0.00    -0.082 S 
ATOM     13  F   UNL     1      -6.766   0.905   0.747  0.00  0.00    -0.205 F 
ATOM     14 CL   UNL     1      -2.583   6.147   1.030  0.00  0.00    -0.082 Cl
ENDBRANCH   2   4
BRANCH   1  17
ATOM     15  N   UNL     1       0.636   0.344  -0.973  0.00  0.00    -0.280 N 
ATOM     16  C   UNL     1       0.717   1.717  -0.962  0.00  0.00    +0.127 A 
ATOM     17  C   UNL     1       1.078   2.361   0.204  0.00  0.00    +0.140 A 
ATOM     18  C   UNL     1       1.353   1.590   1.349  0.00  0.00    +0.277 A 
ATOM     19  O   UNL     1       1.674   2.134   2.393  0.00  0.00    -0.266 OA
ATOM     20  N   UNL     1       1.258   0.248   1.285  0.00  0.00    -0.273 N 
ATOM     21  H   UNL     1       1.470  -0.362   2.176  0.00  0.00    +0.173 HD
ATOM     22  C   UNL     1       0.905  -0.363   0.140  0.00  0.00    +0.331 A 
ATOM     23  O   UNL     1       0.828  -1.576   0.110  0.00  0.00    -0.246 OA
BRANCH  16  24
ATOM     24  N   UNL     1       0.448   2.439  -2.100  0.00  0.00    -0.343 N 
ATOM     25  H   UNL     1       0.514   3.537  -2.084  0.00  0.00    +0.144 HD
ATOM     26  H   UNL     1       0.165   1.918  -3.027  0.00  0.00    +0.144 HD
ENDBRANCH  16  24
BRANCH  15  27
ATOM     27  C   UNL     1       0.255  -0.353  -2.204  0.00  0.00    +0.131 C 
BRANCH  27  29
ATOM     28  C   UNL     1       1.125  -1.511  -4.240  0.00  0.00    +0.009 C 
ATOM     29  C   UNL     1       1.510  -0.675  -3.017  0.00  0.00    +0.003 C 
ATOM     30  C   UNL     1       2.167   0.628  -3.477  0.00  0.00    +0.009 C 
ENDBRANCH  27  29
ENDBRANCH  15  27
ENDBRANCH   1  17
BRANCH   1  31
ATOM     31  C   UNL     1       2.466   4.423   0.050  0.00  0.00    +0.117 C 
BRANCH  31  32
ATOM     32  C   UNL     1       2.728   4.594  -1.448  0.00  0.00    +0.001 C 
ATOM     33  C   UNL     1       1.701   5.562  -2.039  0.00  0.00    +0.009 C 
ATOM     34  C   UNL     1       4.136   5.155  -1.658  0.00  0.00    +0.009 C 
ENDBRANCH  31  32
ENDBRANCH   1  31
TORSDOF 7
