REMARK  Name = ZINC12750879
REMARK  8 active torsions:
REMARK  status: ('A' for Active; 'I' for Inactive)
REMARK    1  A    between atoms: C_1  and  C_2
REMARK    2  A    between atoms: C_2  and  N_3
REMARK    3  A    between atoms: C_7  and  C_9
REMARK    4  A    between atoms: C_9  and  C_11
REMARK    5  A    between atoms: C_9  and  S_17
REMARK    6  A    between atoms: S_17  and  C_18
REMARK    7  A    between atoms: N_28  and  C_29
REMARK    8  A    between atoms: C_29  and  C_30
REMARK                            x       y       z     vdW  Elec       q    Type
REMARK                         _______ _______ _______ _____ _____    ______ ____
ROOT
ATOM      1  C   UNL     1       3.781   1.994  -2.752  0.00  0.00    +0.173 A 
ATOM      2  N   UNL     1       3.757   0.735  -2.389  0.00  0.00    -0.223 NA
ATOM      3  C   UNL     1       3.787  -0.263  -3.295  0.00  0.00    +0.079 A 
ATOM      4  C   UNL     1       3.762  -1.606  -2.908  0.00  0.00    +0.028 A 
ATOM      5  C   UNL     1       3.793  -2.585  -3.860  0.00  0.00    +0.002 A 
ATOM      6  C   UNL     1       3.850  -2.267  -5.211  0.00  0.00    +0.001 A 
ATOM      7  C   UNL     1       3.876  -0.962  -5.621  0.00  0.00    +0.015 A 
ATOM      8  C   UNL     1       3.844   0.057  -4.671  0.00  0.00    +0.065 A 
ATOM      9  C   UNL     1       3.870   1.476  -5.053  0.00  0.00    +0.263 A 
ATOM     10  O   UNL     1       3.920   1.814  -6.221  0.00  0.00    -0.267 OA
ATOM     11  N   UNL     1       3.831   2.392  -4.058  0.00  0.00    -0.283 N 
ENDROOT
BRANCH   1  12
ATOM     12  S   UNL     1       3.739   3.231  -1.498  0.00  0.00    -0.070 S 
BRANCH  12  13
ATOM     13  C   UNL     1       3.672   2.182  -0.024  0.00  0.00    +0.170 C 
BRANCH  13  18
ATOM     14  N   UNL     1       4.756   2.780   4.621  0.00  0.00    -0.299 N 
ATOM     15  C   UNL     1       4.290   3.297   3.467  0.00  0.00    +0.306 C 
ATOM     16  O   UNL     1       3.935   4.458   3.421  0.00  0.00    -0.252 OA
ATOM     17  N   UNL     1       4.218   2.526   2.364  0.00  0.00    -0.239 N 
ATOM     18  C   UNL     1       3.752   3.043   1.210  0.00  0.00    +0.238 C 
ATOM     19  O   UNL     1       3.398   4.202   1.164  0.00  0.00    -0.274 OA
ATOM     20  H   UNL     1       5.040   1.853   4.657  0.00  0.00    +0.150 HD
ATOM     21  H   UNL     1       4.502   1.599   2.400  0.00  0.00    +0.159 HD
BRANCH  14  23
ATOM     22  C   UNL     1       5.394   2.793   6.982  0.00  0.00    +0.024 C 
ATOM     23  C   UNL     1       4.835   3.617   5.820  0.00  0.00    +0.102 C 
ENDBRANCH  14  23
ENDBRANCH  13  18
BRANCH  13  24
ATOM     24  C   UNL     1       2.377   1.411  -0.015  0.00  0.00    -0.025 A 
ATOM     25  C   UNL     1       1.171   2.086   0.002  0.00  0.00    +0.005 A 
ATOM     26  C   UNL     1      -0.017   1.378   0.010  0.00  0.00    +0.000 A 
ATOM     27  C   UNL     1       0.002  -0.004   0.002  0.00  0.00    +0.000 A 
ATOM     28  C   UNL     1       1.208  -0.679  -0.013  0.00  0.00    +0.000 A 
ATOM     29  C   UNL     1       2.396   0.029  -0.022  0.00  0.00    +0.005 A 
ENDBRANCH  13  24
ENDBRANCH  12  13
ENDBRANCH   1  12
BRANCH  11  30
ATOM     30  C   UNL     1       3.848   3.820  -4.382  0.00  0.00    +0.162 C 
BRANCH  30  31
ATOM     31  C   UNL     1       5.274   4.304  -4.441  0.00  0.00    -0.027 A 
ATOM     32  C   UNL     1       5.884   4.798  -3.303  0.00  0.00    +0.007 A 
ATOM     33  C   UNL     1       7.193   5.237  -3.354  0.00  0.00    +0.020 A 
ATOM     34  C   UNL     1       7.891   5.193  -4.549  0.00  0.00    +0.041 A 
ATOM     35  C   UNL     1       7.278   4.705  -5.689  0.00  0.00    +0.020 A 
ATOM     36  C   UNL     1       5.970   4.261  -5.635  0.00  0.00    +0.007 A 
ATOM     37 CL   UNL     1       9.533   5.750  -4.616  0.00  0.00    -0.084 Cl
ENDBRANCH  30  31
ENDBRANCH  11  30
TORSDOF 7
