REMARK  Name = ZINC05043247
REMARK  4 active torsions:
REMARK  status: ('A' for Active; 'I' for Inactive)
REMARK    1  A    between atoms: C_5  and  C_7
REMARK    2  A    between atoms: C_9  and  C_12
REMARK    3  A    between atoms: C_13  and  N_24
REMARK    4  A    between atoms: N_14  and  C_17
REMARK                            x       y       z     vdW  Elec       q    Type
REMARK                         _______ _______ _______ _____ _____    ______ ____
ROOT
ATOM      1  C   UNL     1       1.857  -4.166  -0.302  0.00  0.00    +0.191 A 
ATOM      2  C   UNL     1       2.342  -2.877  -0.131  0.00  0.00    +0.153 A 
ATOM      3  N   UNL     1       1.266  -2.103   0.188  0.00  0.00    -0.196 N 
ATOM      4  N   UNL     1       0.151  -2.951   0.206  0.00  0.00    -0.058 NA
ATOM      5  N   UNL     1       0.529  -4.145  -0.088  0.00  0.00    -0.122 NA
ENDROOT
BRANCH   3   6
ATOM      6  C   UNL     1       1.276  -0.725   0.452  0.00  0.00    +0.104 A 
ATOM      7  C   UNL     1       2.220  -0.189   1.316  0.00  0.00    +0.031 A 
ATOM      8  C   UNL     1       2.226   1.168   1.575  0.00  0.00    +0.002 A 
ATOM      9  C   UNL     1       1.293   1.993   0.974  0.00  0.00    +0.003 A 
ATOM     10  C   UNL     1       0.351   1.464   0.112  0.00  0.00    +0.040 A 
ATOM     11  C   UNL     1       0.339   0.106  -0.152  0.00  0.00    +0.149 A 
ATOM     12  F   UNL     1      -0.582  -0.412  -0.994  0.00  0.00    -0.203 F 
ENDBRANCH   3   6
BRANCH   1  15
ATOM     13  C   UNL     1       3.292  -7.322  -1.134  0.00  0.00    +0.205 A 
ATOM     14  N   UNL     1       2.207  -6.583  -0.821  0.00  0.00    -0.185 NA
ATOM     15  C   UNL     1       2.656  -5.350  -0.655  0.00  0.00    +0.282 A 
ATOM     16  O   UNL     1       3.980  -5.385  -0.876  0.00  0.00    -0.331 OA
ATOM     17  N   UNL     1       4.324  -6.517  -1.142  0.00  0.00    -0.056 NA
BRANCH  13  22
ATOM     18  C   UNL     1       2.154 -10.870  -1.633  0.00  0.00    +0.001 A 
ATOM     19  C   UNL     1       3.348 -11.498  -1.942  0.00  0.00    +0.003 A 
ATOM     20  C   UNL     1       4.524 -10.774  -1.990  0.00  0.00    +0.039 A 
ATOM     21  C   UNL     1       4.513  -9.415  -1.728  0.00  0.00    +0.134 A 
ATOM     22  C   UNL     1       3.312  -8.778  -1.416  0.00  0.00    +0.058 A 
ATOM     23  C   UNL     1       2.131  -9.517  -1.366  0.00  0.00    +0.014 A 
ATOM     24  F   UNL     1       5.663  -8.708  -1.774  0.00  0.00    -0.205 F 
ENDBRANCH  13  22
ENDBRANCH   1  15
BRANCH   2  25
ATOM     25  N   UNL     1       3.655  -2.462  -0.257  0.00  0.00    -0.341 N 
ATOM     26  H   UNL     1       3.872  -1.518  -0.201  0.00  0.00    +0.144 HD
ATOM     27  H   UNL     1       4.358  -3.114  -0.401  0.00  0.00    +0.144 HD
ENDBRANCH   2  25
TORSDOF 4
