REMARK  Name = ZINC64136875
REMARK  9 active torsions:
REMARK  status: ('A' for Active; 'I' for Inactive)
REMARK    1  A    between atoms: C_1  and  C_2
REMARK    2  A    between atoms: C_2  and  C_28
REMARK    3  A    between atoms: N_3  and  N_4
REMARK    4  A    between atoms: C_5  and  C_7
REMARK    5  A    between atoms: C_10  and  C_13
REMARK    6  A    between atoms: C_16  and  O_19
REMARK    7  A    between atoms: O_19  and  C_20
REMARK    8  A    between atoms: C_20  and  C_21
REMARK    9  A    between atoms: C_31  and  N_34
REMARK                            x       y       z     vdW  Elec       q    Type
REMARK                         _______ _______ _______ _____ _____    ______ ____
ROOT
ATOM      1  C   UNL     1       0.046   0.101   4.812  0.00  0.00    +0.240 C 
ATOM      2  C   UNL     1       1.452   0.551   5.171  0.00  0.00    +0.041 C 
ATOM      3  C   UNL     1       1.706  -0.082   6.332  0.00  0.00    +0.092 C 
ATOM      4  N   UNL     1       0.641  -0.840   6.703  0.00  0.00    -0.153 NA
ATOM      5  N   UNL     1      -0.317  -0.795   5.922  0.00  0.00    -0.170 NA
ENDROOT
BRANCH   3   6
ATOM      6  C   UNL     1       2.971   0.033   7.099  0.00  0.00    +0.002 A 
ATOM      7  C   UNL     1       4.001   0.847   6.630  0.00  0.00    +0.013 A 
ATOM      8  C   UNL     1       5.175   0.952   7.345  0.00  0.00    +0.046 A 
ATOM      9  C   UNL     1       5.332   0.249   8.532  0.00  0.00    +0.121 A 
ATOM     10  C   UNL     1       4.308  -0.562   9.002  0.00  0.00    +0.046 A 
ATOM     11  C   UNL     1       3.129  -0.667   8.294  0.00  0.00    +0.013 A 
BRANCH   9  12
ATOM     12  O   UNL     1       6.490   0.354   9.234  0.00  0.00    -0.487 OA
BRANCH  12  13
ATOM     13  C   UNL     1       6.585  -0.397  10.446  0.00  0.00    +0.266 C 
BRANCH  13  14
ATOM     14  C   UNL     1       7.929  -0.158  11.083  0.00  0.00    +0.008 A 
ATOM     15  C   UNL     1       8.838   0.692  10.479  0.00  0.00    +0.008 A 
ATOM     16  C   UNL     1      10.072   0.912  11.063  0.00  0.00    +0.000 A 
ATOM     17  C   UNL     1      10.398   0.283  12.250  0.00  0.00    +0.001 A 
ATOM     18  C   UNL     1       9.490  -0.566  12.854  0.00  0.00    +0.020 A 
ATOM     19  C   UNL     1       8.253  -0.782  12.274  0.00  0.00    +0.047 A 
ATOM     20 CL   UNL     1       7.109  -1.844  13.035  0.00  0.00    -0.083 Cl
ENDBRANCH  13  14
ENDBRANCH  12  13
ENDBRANCH   9  12
ENDBRANCH   3   6
BRANCH   1  22
ATOM     21  N   UNL     1       0.024   0.035   2.340  0.00  0.00    -0.205 N 
ATOM     22  C   UNL     1       0.044  -0.645   3.503  0.00  0.00    +0.263 C 
ATOM     23  O   UNL     1       0.060  -1.858   3.496  0.00  0.00    -0.271 OA
ATOM     24  H   UNL     1       0.011   1.005   2.345  0.00  0.00    +0.177 HD
BRANCH  21  27
ATOM     25  C   UNL     1      -0.018   1.503   0.010  0.00  0.00    +0.068 C 
ATOM     26  C   UNL     1       0.002  -0.004   0.002  0.00  0.00    +0.063 C 
ATOM     27  N   UNL     1       0.022  -0.659   1.123  0.00  0.00    -0.184 NA
BRANCH  26  28
ATOM     28  C   UNL     1      -0.000  -0.734  -1.278  0.00  0.00    -0.002 A 
ATOM     29  C   UNL     1      -0.015  -0.030  -2.486  0.00  0.00    +0.011 A 
ATOM     30  C   UNL     1      -0.017  -0.716  -3.681  0.00  0.00    +0.023 A 
ATOM     31  C   UNL     1      -0.003  -2.107  -3.686  0.00  0.00    +0.025 A 
ATOM     32  C   UNL     1       0.012  -2.811  -2.487  0.00  0.00    +0.023 A 
ATOM     33  C   UNL     1       0.019  -2.132  -1.288  0.00  0.00    +0.011 A 
BRANCH  31  34
ATOM     34  N   UNL     1      -0.005  -2.798  -4.898  0.00  0.00    -0.358 N 
ATOM     35  H   UNL     1      -0.016  -2.308  -5.735  0.00  0.00    +0.142 HD
ATOM     36  H   UNL     1       0.004  -3.768  -4.903  0.00  0.00    +0.142 HD
ENDBRANCH  31  34
ENDBRANCH  26  28
ENDBRANCH  21  27
ENDBRANCH   1  22
TORSDOF 8
