REMARK  Name = ZINC00862044
REMARK  7 active torsions:
REMARK  status: ('A' for Active; 'I' for Inactive)
REMARK    1  A    between atoms: C_4  and  C_7
REMARK    2  A    between atoms: C_8  and  C_21
REMARK    3  A    between atoms: C_11  and  C_13
REMARK    4  A    between atoms: C_16  and  O_20
REMARK    5  A    between atoms: C_17  and  O_19
REMARK    6  A    between atoms: C_24  and  C_27
REMARK    7  A    between atoms: C_27  and  C_29
REMARK                            x       y       z     vdW  Elec       q    Type
REMARK                         _______ _______ _______ _____ _____    ______ ____
ROOT
ATOM      1  C   UNL     1       3.281  -0.225  -0.200  0.00  0.00    +0.072 A 
ATOM      2  C   UNL     1       3.574  -1.502  -0.657  0.00  0.00    +0.072 A 
ATOM      3  N   UNL     1       4.763  -1.863  -0.063  0.00  0.00    -0.339 N 
ATOM      4  H   UNL     1       5.234  -2.703  -0.181  0.00  0.00    +0.167 HD
ATOM      5  C   UNL     1       5.154  -0.819   0.723  0.00  0.00    +0.117 A 
ATOM      6  N   UNL     1       4.269   0.148   0.628  0.00  0.00    -0.339 N 
ATOM      7  H   UNL     1       4.320   1.001   1.088  0.00  0.00    +0.167 HD
ENDROOT
BRANCH   1  11
ATOM      8  C   UNL     1      -0.121   2.095  -1.252  0.00  0.00    +0.000 A 
ATOM      9  C   UNL     1       1.140   2.661  -1.298  0.00  0.00    +0.001 A 
ATOM     10  C   UNL     1       2.248   1.913  -0.958  0.00  0.00    +0.010 A 
ATOM     11  C   UNL     1       2.095   0.584  -0.566  0.00  0.00    +0.000 A 
ATOM     12  C   UNL     1       0.821   0.018  -0.521  0.00  0.00    +0.010 A 
ATOM     13  C   UNL     1      -0.280   0.776  -0.864  0.00  0.00    +0.001 A 
ENDBRANCH   1  11
BRANCH   5  14
ATOM     14  C   UNL     1       6.380  -0.779   1.546  0.00  0.00    +0.019 A 
ATOM     15  C   UNL     1       7.252  -1.869   1.556  0.00  0.00    +0.015 A 
ATOM     16  C   UNL     1       8.396  -1.831   2.325  0.00  0.00    +0.050 A 
ATOM     17  C   UNL     1       8.684  -0.709   3.090  0.00  0.00    +0.158 A 
ATOM     18  C   UNL     1       7.818   0.383   3.084  0.00  0.00    +0.159 A 
ATOM     19  C   UNL     1       6.673   0.352   2.311  0.00  0.00    +0.060 A 
BRANCH  18  20
ATOM     20  O   UNL     1       8.103   1.480   3.835  0.00  0.00    -0.503 OA
ATOM     21  H   UNL     1       8.630   2.147   3.373  0.00  0.00    +0.292 HD
ENDBRANCH  18  20
BRANCH  17  22
ATOM     22  O   UNL     1       9.813  -0.675   3.846  0.00  0.00    -0.503 OA
ATOM     23  H   UNL     1      10.584  -0.317   3.385  0.00  0.00    +0.292 HD
ENDBRANCH  17  22
ENDBRANCH   5  14
BRANCH   2  24
ATOM     24  C   UNL     1       2.773  -2.310  -1.591  0.00  0.00    +0.000 A 
ATOM     25  C   UNL     1       2.281  -1.736  -2.770  0.00  0.00    +0.011 A 
ATOM     26  C   UNL     1       1.539  -2.485  -3.636  0.00  0.00    +0.012 A 
ATOM     27  C   UNL     1       1.268  -3.827  -3.345  0.00  0.00    +0.022 A 
ATOM     28  C   UNL     1       1.759  -4.402  -2.167  0.00  0.00    +0.012 A 
ATOM     29  C   UNL     1       2.506  -3.654  -1.304  0.00  0.00    +0.011 A 
BRANCH  27  30
ATOM     30  C   UNL     1       0.466  -4.636  -4.280  0.00  0.00    +0.193 C 
ATOM     31  O   UNL     1       0.438  -4.350  -5.462  0.00  0.00    -0.287 OA
BRANCH  30  32
ATOM     32  C   UNL     1      -0.303  -5.795  -3.782  0.00  0.00    +0.022 A 
ATOM     33  C   UNL     1      -0.605  -5.905  -2.423  0.00  0.00    +0.012 A 
ATOM     34  C   UNL     1      -1.324  -6.989  -1.965  0.00  0.00    +0.001 A 
ATOM     35  C   UNL     1      -1.746  -7.967  -2.849  0.00  0.00    +0.000 A 
ATOM     36  C   UNL     1      -1.450  -7.865  -4.197  0.00  0.00    +0.001 A 
ATOM     37  C   UNL     1      -0.738  -6.782  -4.669  0.00  0.00    +0.012 A 
ENDBRANCH  30  32
ENDBRANCH  27  30
ENDBRANCH   2  24
TORSDOF 7
