REMARK  Name = ZINC04860146
REMARK  9 active torsions:
REMARK  status: ('A' for Active; 'I' for Inactive)
REMARK    1  A    between atoms: C_1  and  C_2
REMARK    2  A    between atoms: C_2  and  C_3
REMARK    3  A    between atoms: C_2  and  C_4
REMARK    4  A    between atoms: C_4  and  C_6
REMARK    5  A    between atoms: C_4  and  N_58
REMARK    6  A    between atoms: N_10  and  C_11
REMARK    7  A    between atoms: C_11  and  C_12
REMARK    8  A    between atoms: C_12  and  C_13
REMARK    9  A    between atoms: C_21  and  C_24
REMARK                            x       y       z     vdW  Elec       q    Type
REMARK                         _______ _______ _______ _____ _____    ______ ____
ROOT
ATOM      1  C   UNL     1      -1.611   2.031   0.156  0.00  0.00    +0.006 C 
ENDROOT
BRANCH   1   7
ATOM      2  C   UNL     1      -1.892   2.002  -2.252  0.00  0.00    -0.073 C 
ATOM      3  C   UNL     1      -2.721   1.343  -3.357  0.00  0.00    +0.017 C 
ATOM      4  C   UNL     1      -4.176   1.668  -3.162  0.00  0.00    -0.048 C 
ATOM      5  C   UNL     1      -4.654   2.131  -2.028  0.00  0.00    -0.041 C 
ATOM      6  C   UNL     1      -3.797   2.387  -0.822  0.00  0.00    -0.050 C 
ATOM      7  N   UNL     1      -2.518   1.666  -0.956  0.00  0.00    +0.389 N 
ATOM      8  H   UNL     1      -2.697   0.656  -0.923  0.00  0.00    -0.080 HD
BRANCH   4   9
ATOM      9  C   UNL     1      -5.106   1.458  -4.291  0.00  0.00    -0.022 A 
ATOM     10  C   UNL     1      -5.338   0.171  -4.777  0.00  0.00    +0.011 A 
ATOM     11  C   UNL     1      -6.213  -0.020  -5.827  0.00  0.00    +0.039 A 
ATOM     12  C   UNL     1      -6.851   1.065  -6.406  0.00  0.00    +0.123 A 
ATOM     13  C   UNL     1      -6.619   2.346  -5.931  0.00  0.00    +0.039 A 
ATOM     14  C   UNL     1      -5.752   2.547  -4.878  0.00  0.00    +0.011 A 
ATOM     15  F   UNL     1      -7.702   0.873  -7.438  0.00  0.00    -0.205 F 
ENDBRANCH   4   9
ENDBRANCH   1   7
BRANCH   1  16
ATOM     16  C   UNL     1      -0.344   1.225   0.040  0.00  0.00    +0.138 A 
ATOM     17  N   UNL     1      -0.253  -0.076  -0.095  0.00  0.00    -0.115 NA
ATOM     18  N   UNL     1       0.996  -0.383  -0.164  0.00  0.00    -0.023 NA
ATOM     19  N   UNL     1       1.705   0.689  -0.078  0.00  0.00    -0.044 NA
ATOM     20  N   UNL     1       0.915   1.701   0.050  0.00  0.00    -0.231 N 
BRANCH  20  21
ATOM     21  C   UNL     1       1.314   3.104   0.179  0.00  0.00    +0.152 C 
BRANCH  21  22
ATOM     22  C   UNL     1       1.642   3.408   1.643  0.00  0.00    +0.058 C 
BRANCH  22  23
ATOM     23  C   UNL     1       1.943   4.877   1.795  0.00  0.00    -0.046 A 
ATOM     24  C   UNL     1       3.239   5.335   1.656  0.00  0.00    +0.004 A 
ATOM     25  C   UNL     1       3.514   6.683   1.791  0.00  0.00    +0.000 A 
ATOM     26  C   UNL     1       2.494   7.572   2.076  0.00  0.00    +0.000 A 
ATOM     27  C   UNL     1       1.198   7.112   2.221  0.00  0.00    +0.000 A 
ATOM     28  C   UNL     1       0.922   5.765   2.081  0.00  0.00    +0.004 A 
ENDBRANCH  22  23
ENDBRANCH  21  22
ENDBRANCH  20  21
ENDBRANCH   1  16
BRANCH   1  30
ATOM     29  C   UNL     1      -2.654   0.227   1.535  0.00  0.00    +0.006 C 
ATOM     30  C   UNL     1      -2.298   1.714   1.486  0.00  0.00    -0.024 C 
ATOM     31  C   UNL     1      -1.352   2.050   2.641  0.00  0.00    +0.006 C 
ENDBRANCH   1  30
TORSDOF 7
