REMARK  Name = ZINC57316368
REMARK  7 active torsions:
REMARK  status: ('A' for Active; 'I' for Inactive)
REMARK    1  A    between atoms: C_1  and  O_2
REMARK    2  A    between atoms: O_2  and  C_3
REMARK    3  A    between atoms: C_6  and  C_10
REMARK    4  A    between atoms: N_12  and  C_13
REMARK    5  A    between atoms: C_13  and  N_15
REMARK    6  A    between atoms: N_15  and  C_16
REMARK    7  A    between atoms: C_17  and  C_24
REMARK                            x       y       z     vdW  Elec       q    Type
REMARK                         _______ _______ _______ _____ _____    ______ ____
ROOT
ATOM      1  C   UNL     1      -6.755  -3.556  -1.120  0.00  0.00    +0.141 C 
ATOM      2  S   UNL     1      -7.501  -3.957   0.368  0.00  0.00    -0.018 S 
ENDROOT
BRANCH   1   5
ATOM      3  C   UNL     1      -4.957  -2.616   0.035  0.00  0.00    +0.250 C 
ATOM      4  O   UNL     1      -5.487  -2.900   1.092  0.00  0.00    -0.270 OA
ATOM      5  N   UNL     1      -5.562  -2.928  -1.128  0.00  0.00    -0.264 N 
ATOM      6  H   UNL     1      -5.139  -2.701  -1.971  0.00  0.00    +0.157 HD
BRANCH   3  10
ATOM      7  C   UNL     1      -1.199  -0.637   0.010  0.00  0.00    +0.157 A 
ATOM      8  C   UNL     1      -1.804  -0.961   1.220  0.00  0.00    +0.085 A 
ATOM      9  C   UNL     1      -3.023  -1.603   1.232  0.00  0.00    +0.036 A 
ATOM     10  C   UNL     1      -3.652  -1.928   0.027  0.00  0.00    +0.040 A 
ATOM     11  C   UNL     1      -3.041  -1.600  -1.187  0.00  0.00    +0.036 A 
ATOM     12  C   UNL     1      -1.824  -0.954  -1.191  0.00  0.00    +0.085 A 
ATOM     13 CL   UNL     1      -1.067  -0.539  -2.698  0.00  0.00    -0.080 Cl
ATOM     14 CL   UNL     1      -1.021  -0.558   2.716  0.00  0.00    -0.080 Cl
BRANCH   7  16
ATOM     15  C   UNL     1      -0.017   1.425   0.010  0.00  0.00    +0.277 C 
ATOM     16  O   UNL     1       0.002  -0.004   0.002  0.00  0.00    -0.492 OA
ENDBRANCH   7  16
ENDBRANCH   3  10
ENDBRANCH   1   5
BRANCH   1  17
ATOM     17  N   UNL     1      -7.359  -3.869  -2.283  0.00  0.00    -0.291 N 
ATOM     18  H   UNL     1      -6.937  -3.641  -3.126  0.00  0.00    +0.154 HD
BRANCH  17  19
ATOM     19  C   UNL     1      -8.585  -4.514  -2.275  0.00  0.00    +0.084 A 
ATOM     20  C   UNL     1      -9.343  -4.914  -3.360  0.00  0.00    +0.068 A 
ATOM     21  C   UNL     1     -10.613  -5.583  -3.080  0.00  0.00    -0.023 A 
ATOM     22  C   UNL     1     -10.882  -5.723  -1.770  0.00  0.00    -0.004 A 
ATOM     23  S   UNL     1      -9.488  -4.997  -0.946  0.00  0.00    -0.077 S 
ATOM     24  C   UNL     1     -12.199  -6.413  -1.538  0.00  0.00    +0.043 C 
ATOM     25  C   UNL     1     -12.937  -6.311  -2.892  0.00  0.00    +0.010 C 
ATOM     26  C   UNL     1     -11.760  -6.193  -3.883  0.00  0.00    +0.037 C 
BRANCH  20  27
ATOM     27  C   UNL     1      -8.893  -4.676  -4.734  0.00  0.00    +0.244 C 
ATOM     28  O   UNL     1      -8.214  -5.510  -5.305  0.00  0.00    -0.270 OA
ATOM     29  N   UNL     1      -9.230  -3.534  -5.366  0.00  0.00    -0.325 N 
ATOM     30  H   UNL     1      -9.771  -2.870  -4.911  0.00  0.00    +0.145 HD
ATOM     31  H   UNL     1      -8.932  -3.377  -6.276  0.00  0.00    +0.145 HD
ENDBRANCH  20  27
ENDBRANCH  17  19
ENDBRANCH   1  17
TORSDOF 6
