REMARK  Name = ZINC59384564
REMARK  6 active torsions:
REMARK  status: ('A' for Active; 'I' for Inactive)
REMARK    1  A    between atoms: C_1  and  C_2
REMARK    2  A    between atoms: C_3  and  C_19
REMARK    3  A    between atoms: C_4  and  C_10
REMARK    4  A    between atoms: C_13  and  C_16
REMARK    5  A    between atoms: N_21  and  N_22
REMARK    6  A    between atoms: C_23  and  C_24
REMARK                            x       y       z     vdW  Elec       q    Type
REMARK                         _______ _______ _______ _____ _____    ______ ____
ROOT
ATOM      1  C   UNL     1       0.658   1.367   0.083  0.00  0.00    +0.061 C 
ATOM      2  C   UNL     1       0.360  -0.110   0.046  0.00  0.00    +0.017 C 
ATOM      3  C   UNL     1      -0.922  -0.527  -0.023  0.00  0.00    +0.057 C 
ATOM      4  C   UNL     1      -1.177  -2.020  -0.058  0.00  0.00    +0.139 C 
ATOM      5  N   UNL     1       0.003  -2.900  -0.013  0.00  0.00    -0.315 N 
ATOM      6  C   UNL     1       1.224  -2.332   0.056  0.00  0.00    +0.135 C 
ATOM      7  S   UNL     1       2.605  -3.343   0.108  0.00  0.00    -0.019 S 
ATOM      8  N   UNL     1       1.392  -1.004   0.078  0.00  0.00    -0.300 N 
ATOM      9  H   UNL     1      -0.096  -3.864  -0.032  0.00  0.00    +0.149 HD
ATOM     10  H   UNL     1       2.297  -0.658   0.124  0.00  0.00    +0.154 HD
ENDROOT
BRANCH   4  11
ATOM     11  C   UNL     1      -1.940  -2.332  -1.320  0.00  0.00    -0.023 A 
ATOM     12  C   UNL     1      -1.288  -2.314  -2.540  0.00  0.00    +0.006 A 
ATOM     13  C   UNL     1      -1.980  -2.598  -3.699  0.00  0.00    +0.015 A 
ATOM     14  C   UNL     1      -3.342  -2.904  -3.639  0.00  0.00    +0.063 A 
ATOM     15  C   UNL     1      -3.993  -2.920  -2.402  0.00  0.00    +0.015 A 
ATOM     16  C   UNL     1      -3.287  -2.639  -1.251  0.00  0.00    +0.006 A 
BRANCH  14  17
ATOM     17  C   UNL     1      -4.089  -3.208  -4.874  0.00  0.00    +0.387 C 
ATOM     18  O   UNL     1      -3.517  -3.193  -5.954  0.00  0.00    -0.241 OA
ATOM     19  O   UNL     1      -5.281  -3.476  -4.817  0.00  0.00    -0.241 OA
ENDBRANCH  14  17
ENDBRANCH   4  11
BRANCH   3  20
ATOM     20  C   UNL     1      -1.992   0.400  -0.062  0.00  0.00    +0.263 C 
ATOM     21  O   UNL     1      -2.657   0.604   0.938  0.00  0.00    -0.269 OA
ATOM     22  N   UNL     1      -2.275   1.056  -1.205  0.00  0.00    -0.203 N 
ATOM     23  H   UNL     1      -1.794   0.840  -2.019  0.00  0.00    +0.178 HD
BRANCH  22  24
ATOM     24  N   UNL     1      -3.263   2.049  -1.216  0.00  0.00    -0.187 NA
ATOM     25  C   UNL     1      -3.535   2.681  -2.317  0.00  0.00    +0.141 C 
BRANCH  25  26
ATOM     26  C   UNL     1      -4.574   3.726  -2.329  0.00  0.00    +0.030 A 
ATOM     27  C   UNL     1      -4.874   4.404  -3.513  0.00  0.00    +0.012 A 
ATOM     28  C   UNL     1      -5.848   5.381  -3.518  0.00  0.00    +0.001 A 
ATOM     29  C   UNL     1      -6.528   5.692  -2.353  0.00  0.00    +0.003 A 
ATOM     30  C   UNL     1      -6.238   5.026  -1.176  0.00  0.00    +0.039 A 
ATOM     31  C   UNL     1      -5.269   4.040  -1.157  0.00  0.00    +0.132 A 
ATOM     32  F   UNL     1      -4.991   3.386  -0.008  0.00  0.00    -0.205 F 
ENDBRANCH  25  26
ENDBRANCH  22  24
ENDBRANCH   3  20
TORSDOF 5
