REMARK  Name = ZINC15547728
REMARK  12 active torsions:
REMARK  status: ('A' for Active; 'I' for Inactive)
REMARK    1  A    between atoms: C_1  and  C_2
REMARK    2  A    between atoms: C_11  and  C_12
REMARK    3  A    between atoms: C_11  and  N_66
REMARK    4  A    between atoms: N_14  and  C_15
REMARK    5  A    between atoms: N_14  and  C_20
REMARK    6  A    between atoms: C_15  and  C_16
REMARK    7  A    between atoms: C_16  and  C_17
REMARK    8  A    between atoms: C_17  and  O_18
REMARK    9  A    between atoms: O_18  and  C_19
REMARK   10  A    between atoms: C_21  and  N_36
REMARK   11  A    between atoms: N_22  and  C_29
REMARK   12  A    between atoms: C_29  and  C_30
REMARK                            x       y       z     vdW  Elec       q    Type
REMARK                         _______ _______ _______ _____ _____    ______ ____
ROOT
ATOM      1  C   UNL     1      -2.438   5.071  -0.059  0.00  0.00    +0.203 C 
ATOM      2  O   UNL     1      -1.391   5.683  -0.066  0.00  0.00    -0.277 OA
ATOM      3  N   UNL     1      -2.433   3.725   0.042  0.00  0.00    -0.266 N 
ENDROOT
BRANCH   3   4
ATOM      4  C   UNL     1      -1.209   3.022   0.032  0.00  0.00    +0.140 A 
ATOM      5  C   UNL     1      -0.892   2.181  -1.015  0.00  0.00    +0.128 A 
ATOM      6  N   UNL     1       0.309   1.510  -0.996  0.00  0.00    -0.276 N 
ATOM      7  C   UNL     1       1.163   1.670   0.031  0.00  0.00    +0.331 A 
ATOM      8  O   UNL     1       2.219   1.068   0.029  0.00  0.00    -0.246 OA
ATOM      9  N   UNL     1       0.870   2.486   1.060  0.00  0.00    -0.273 N 
ATOM     10  H   UNL     1       1.524   2.591   1.809  0.00  0.00    +0.173 HD
ATOM     11  C   UNL     1      -0.294   3.163   1.092  0.00  0.00    +0.277 A 
ATOM     12  O   UNL     1      -0.552   3.896   2.032  0.00  0.00    -0.266 OA
BRANCH   5  13
ATOM     13  N   UNL     1      -1.764   2.017  -2.064  0.00  0.00    -0.343 N 
ATOM     14  H   UNL     1      -1.505   1.482  -2.831  0.00  0.00    +0.144 HD
ATOM     15  H   UNL     1      -2.639   2.435  -2.038  0.00  0.00    +0.144 HD
ENDBRANCH   5  13
BRANCH   6  16
ATOM     16  C   UNL     1       0.659   0.613  -2.100  0.00  0.00    +0.163 C 
BRANCH  16  17
ATOM     17  C   UNL     1       0.162  -0.777  -1.796  0.00  0.00    -0.028 A 
ATOM     18  C   UNL     1       0.976  -1.671  -1.126  0.00  0.00    +0.005 A 
ATOM     19  C   UNL     1       0.518  -2.944  -0.843  0.00  0.00    +0.000 A 
ATOM     20  C   UNL     1      -0.750  -3.327  -1.239  0.00  0.00    +0.000 A 
ATOM     21  C   UNL     1      -1.561  -2.435  -1.915  0.00  0.00    +0.000 A 
ATOM     22  C   UNL     1      -1.106  -1.160  -2.193  0.00  0.00    +0.005 A 
ENDBRANCH  16  17
ENDBRANCH   6  16
ENDBRANCH   3   4
BRANCH   1  23
ATOM     23  C   UNL     1      -3.746   5.813  -0.163  0.00  0.00    +0.020 C 
BRANCH  23  33
ATOM     24  C   UNL     1      -5.312   7.756   1.292  0.00  0.00    -0.008 C 
ATOM     25  C   UNL     1      -4.721   8.027  -0.093  0.00  0.00    -0.039 C 
ATOM     26  C   UNL     1      -4.392   9.511  -0.228  0.00  0.00    -0.051 A 
ATOM     27  C   UNL     1      -5.218  10.535   0.230  0.00  0.00    +0.010 A 
ATOM     28  C   UNL     1      -4.846  11.827   0.073  0.00  0.00    +0.045 A 
ATOM     29  S   UNL     1      -3.270  11.658  -0.754  0.00  0.00    -0.101 S 
ATOM     30  C   UNL     1      -3.228   9.890  -0.826  0.00  0.00    -0.010 A 
ATOM     31  C   UNL     1      -2.184   8.987  -1.398  0.00  0.00    +0.024 C 
ATOM     32  C   UNL     1      -2.796   7.581  -1.518  0.00  0.00    -0.072 C 
ATOM     33  N   UNL     1      -3.462   7.260  -0.233  0.00  0.00    +0.390 N 
ATOM     34  H   UNL     1      -2.832   7.513   0.538  0.00  0.00    -0.080 HD
ENDBRANCH  23  33
ENDBRANCH   1  23
BRANCH   3  35
ATOM     35  C   UNL     1      -3.696   2.994   0.161  0.00  0.00    +0.116 C 
BRANCH  35  36
ATOM     36  C   UNL     1      -4.123   2.950   1.630  0.00  0.00    +0.047 C 
BRANCH  36  37
ATOM     37  C   UNL     1      -5.444   2.187   1.755  0.00  0.00    +0.161 C 
BRANCH  37  38
ATOM     38  O   UNL     1      -5.842   2.146   3.126  0.00  0.00    -0.383 OA
ATOM     39  C   UNL     1      -7.070   1.452   3.354  0.00  0.00    +0.193 C 
ENDBRANCH  37  38
ENDBRANCH  36  37
ENDBRANCH  35  36
ENDBRANCH   3  35
TORSDOF 10
