REMARK  Name = ZINC06677452
REMARK  8 active torsions:
REMARK  status: ('A' for Active; 'I' for Inactive)
REMARK    1  A    between atoms: C_1  and  C_2
REMARK    2  A    between atoms: C_2  and  C_3
REMARK    3  A    between atoms: C_3  and  O_5
REMARK    4  A    between atoms: O_5  and  C_6
REMARK    5  A    between atoms: C_11  and  C_12
REMARK    6  A    between atoms: C_13  and  N_22
REMARK    7  A    between atoms: C_17  and  C_21
REMARK    8  A    between atoms: N_22  and  C_23
REMARK                            x       y       z     vdW  Elec       q    Type
REMARK                         _______ _______ _______ _____ _____    ______ ____
ROOT
ATOM      1  C   UNL     1      -1.830   0.926  -1.124  0.00  0.00    +0.115 A 
ATOM      2  C   UNL     1      -0.490   1.038  -0.818  0.00  0.00    +0.131 A 
ATOM      3  N   UNL     1       0.092   1.737  -1.839  0.00  0.00    -0.288 N 
ATOM      4  C   UNL     1       1.383   2.131  -2.067  0.00  0.00    +0.095 A 
ATOM      5  C   UNL     1       1.703   2.820  -3.181  0.00  0.00    +0.021 A 
ATOM      6  C   UNL     1       0.714   3.140  -4.128  0.00  0.00    -0.046 A 
ATOM      7  C   UNL     1      -0.572   2.751  -3.919  0.00  0.00    +0.050 A 
ATOM      8  C   UNL     1      -0.897   2.030  -2.750  0.00  0.00    +0.140 A 
ATOM      9  N   UNL     1      -2.041   1.540  -2.303  0.00  0.00    -0.226 NA
ATOM     10  C   UNL     1       1.078   3.910  -5.371  0.00  0.00    +0.044 C 
ENDROOT
BRANCH   1  16
ATOM     11  C   UNL     1      -4.190   0.213  -0.726  0.00  0.00    +0.141 A 
ATOM     12  C   UNL     1      -5.143  -0.426   0.049  0.00  0.00    +0.047 A 
ATOM     13  C   UNL     1      -4.781  -1.017   1.245  0.00  0.00    +0.004 A 
ATOM     14  C   UNL     1      -3.466  -0.978   1.673  0.00  0.00    +0.001 A 
ATOM     15  C   UNL     1      -2.504  -0.349   0.909  0.00  0.00    +0.014 A 
ATOM     16  C   UNL     1      -2.858   0.249  -0.299  0.00  0.00    +0.046 A 
BRANCH  11  17
ATOM     17  O   UNL     1      -4.546   0.799  -1.900  0.00  0.00    -0.425 OA
BRANCH  17  18
ATOM     18  C   UNL     1      -4.421   0.059  -3.013  0.00  0.00    +0.312 C 
ATOM     19  O   UNL     1      -3.922  -1.040  -2.955  0.00  0.00    -0.250 OA
BRANCH  18  21
ATOM     20  C   UNL     1      -4.644  -0.435  -5.433  0.00  0.00    +0.015 C 
ATOM     21  C   UNL     1      -4.902   0.599  -4.335  0.00  0.00    +0.118 C 
ENDBRANCH  18  21
ENDBRANCH  17  18
ENDBRANCH  11  17
ENDBRANCH   1  16
BRANCH   2  22
ATOM     22  N   UNL     1       0.148   0.539   0.319  0.00  0.00    -0.326 N 
ATOM     23  H   UNL     1       0.108  -0.469   0.343  0.00  0.00    +0.148 HD
BRANCH  22  24
ATOM     24  C   UNL     1       1.536   1.014   0.394  0.00  0.00    +0.072 C 
ATOM     25  C   UNL     1       2.435   0.092  -0.432  0.00  0.00    +0.022 C 
ATOM     26  C   UNL     1       3.881   0.586  -0.354  0.00  0.00    +0.002 C 
ATOM     27  C   UNL     1       4.345   0.578   1.104  0.00  0.00    +0.000 C 
ATOM     28  C   UNL     1       3.445   1.499   1.931  0.00  0.00    +0.002 C 
ATOM     29  C   UNL     1       2.000   1.005   1.852  0.00  0.00    +0.022 C 
ENDBRANCH  22  24
ENDBRANCH   2  22
TORSDOF 6
