REMARK  Name = ZINC40726047
REMARK  5 active torsions:
REMARK  status: ('A' for Active; 'I' for Inactive)
REMARK    1  A    between atoms: C_4  and  C_7
REMARK    2  A    between atoms: C_7  and  C_8
REMARK    3  A    between atoms: C_8  and  N_9
REMARK    4  A    between atoms: C_11  and  N_28
REMARK    5  A    between atoms: C_12  and  N_16
REMARK                            x       y       z     vdW  Elec       q    Type
REMARK                         _______ _______ _______ _____ _____    ______ ____
ROOT
ATOM      1  N   UNL     1       5.391  -1.732   1.385  0.00  0.00    -0.327 N 
ATOM      2  C   UNL     1       6.029  -2.060   2.575  0.00  0.00    +0.145 A 
ATOM      3  C   UNL     1       7.249  -2.738   2.562  0.00  0.00    +0.105 A 
ATOM      4  C   UNL     1       7.848  -3.043   3.785  0.00  0.00    +0.147 A 
ATOM      5  N   UNL     1       7.237  -2.678   4.910  0.00  0.00    -0.219 NA
ATOM      6  C   UNL     1       6.085  -2.038   4.879  0.00  0.00    +0.225 A 
ATOM      7  N   UNL     1       5.490  -1.727   3.745  0.00  0.00    -0.219 NA
ATOM      8  H   UNL     1       5.791  -1.978   0.536  0.00  0.00    +0.148 HD
ENDROOT
BRANCH   4   9
ATOM      9  N   UNL     1       9.062  -3.717   3.828  0.00  0.00    -0.311 N 
ATOM     10  C   UNL     1      10.326  -2.976   3.941  0.00  0.00    +0.125 C 
ATOM     11  C   UNL     1      11.094  -3.498   5.161  0.00  0.00    +0.125 C 
ATOM     12  N   UNL     1      11.137  -4.966   5.096  0.00  0.00    -0.314 N 
ATOM     13  C   UNL     1       9.873  -5.707   4.983  0.00  0.00    +0.125 C 
ATOM     14  C   UNL     1       9.105  -5.185   3.768  0.00  0.00    +0.125 C 
ATOM     15  C   UNL     1      12.352  -5.640   5.139  0.00  0.00    +0.099 A 
ATOM     16  C   UNL     1      13.525  -4.933   5.383  0.00  0.00    +0.042 A 
ATOM     17  C   UNL     1      14.726  -5.617   5.423  0.00  0.00    +0.005 A 
ATOM     18  C   UNL     1      14.715  -6.990   5.218  0.00  0.00    +0.018 A 
ATOM     19  C   UNL     1      13.514  -7.628   4.981  0.00  0.00    +0.084 A 
ATOM     20  N   UNL     1      12.382  -6.951   4.953  0.00  0.00    -0.350 N 
ATOM     21  H   UNL     1      11.551  -7.424   4.788  0.00  0.00    +0.166 HD
ENDBRANCH   4   9
BRANCH   3  22
ATOM     22  N   UNL     1       7.858  -3.105   1.350  0.00  0.00    -0.353 N 
ATOM     23  H   UNL     1       7.397  -2.953   0.510  0.00  0.00    +0.143 HD
ATOM     24  H   UNL     1       8.739  -3.510   1.353  0.00  0.00    +0.143 HD
ENDBRANCH   3  22
BRANCH   1  25
ATOM     25  C   UNL     1       4.114  -1.014   1.412  0.00  0.00    +0.107 C 
BRANCH  25  26
ATOM     26  C   UNL     1       3.631  -0.779  -0.020  0.00  0.00    +0.054 C 
BRANCH  26  30
ATOM     27  C   UNL     1      -0.093   1.312   0.057  0.00  0.00    +0.000 A 
ATOM     28  C   UNL     1       1.095   2.018   0.019  0.00  0.00    +0.000 A 
ATOM     29  C   UNL     1       2.300   1.341  -0.006  0.00  0.00    +0.004 A 
ATOM     30  C   UNL     1       2.317  -0.041   0.008  0.00  0.00    -0.046 A 
ATOM     31  C   UNL     1       1.129  -0.747   0.047  0.00  0.00    +0.004 A 
ATOM     32  C   UNL     1      -0.076  -0.070   0.070  0.00  0.00    +0.000 A 
ENDBRANCH  26  30
ENDBRANCH  25  26
ENDBRANCH   1  25
TORSDOF 5
