REMARK  Name = ZINC39928525
REMARK  15 active torsions:
REMARK  status: ('A' for Active; 'I' for Inactive)
REMARK    1  A    between atoms: C_1  and  C_2
REMARK    2  A    between atoms: C_2  and  O_3
REMARK    3  A    between atoms: O_3  and  C_4
REMARK    4  A    between atoms: C_6  and  C_16
REMARK    5  A    between atoms: C_8  and  O_13
REMARK    6  A    between atoms: C_9  and  O_10
REMARK    7  A    between atoms: O_10  and  C_11
REMARK    8  A    between atoms: C_11  and  C_12
REMARK    9  A    between atoms: O_13  and  C_14
REMARK   10  A    between atoms: C_14  and  C_15
REMARK   11  A    between atoms: N_18  and  C_19
REMARK   12  A    between atoms: N_18  and  C_20
REMARK   13  A    between atoms: C_20  and  C_21
REMARK   14  A    between atoms: C_27  and  O_33
REMARK   15  A    between atoms: O_33  and  C_34
REMARK                            x       y       z     vdW  Elec       q    Type
REMARK                         _______ _______ _______ _____ _____    ______ ____
ROOT
ATOM      1  C   UNL     1      -0.370  -4.989  -0.427  0.00  0.00    +0.247 C 
ATOM      2  O   UNL     1      -1.030  -4.548  -1.349  0.00  0.00    -0.270 OA
ATOM      3  N   UNL     1      -0.008  -6.287  -0.418  0.00  0.00    -0.300 N 
ATOM      4  C   UNL     1       0.683  -6.846   0.746  0.00  0.00    +0.132 C 
ENDROOT
BRANCH   1   7
ATOM      5  C   UNL     1       0.809  -1.961   1.459  0.00  0.00    +0.166 A 
ATOM      6  C   UNL     1       0.432  -2.789   0.418  0.00  0.00    +0.062 A 
ATOM      7  C   UNL     1       0.033  -4.102   0.682  0.00  0.00    +0.044 A 
ATOM      8  C   UNL     1       0.017  -4.574   1.996  0.00  0.00    +0.062 A 
ATOM      9  C   UNL     1       0.395  -3.741   3.033  0.00  0.00    +0.166 A 
ATOM     10  C   UNL     1       0.797  -2.435   2.768  0.00  0.00    +0.204 A 
BRANCH   5  11
ATOM     11  O   UNL     1       1.197  -0.683   1.203  0.00  0.00    -0.488 OA
BRANCH  11  13
ATOM     12  C   UNL     1       1.649   1.193  -0.252  0.00  0.00    +0.048 C 
ATOM     13  C   UNL     1       1.185  -0.262  -0.163  0.00  0.00    +0.226 C 
ENDBRANCH  11  13
ENDBRANCH   5  11
BRANCH  10  14
ATOM     14  O   UNL     1       1.173  -1.620   3.788  0.00  0.00    -0.485 OA
BRANCH  14  15
ATOM     15  C   UNL     1       0.148  -0.840   4.406  0.00  0.00    +0.226 C 
ATOM     16  C   UNL     1       0.757   0.008   5.524  0.00  0.00    +0.048 C 
ENDBRANCH  14  15
ENDBRANCH  10  14
BRANCH   9  17
ATOM     17  O   UNL     1       0.379  -4.200   4.313  0.00  0.00    -0.488 OA
BRANCH  17  18
ATOM     18  C   UNL     1      -0.039  -5.552   4.513  0.00  0.00    +0.226 C 
ATOM     19  C   UNL     1       0.007  -5.886   6.005  0.00  0.00    +0.048 C 
ENDBRANCH  17  18
ENDBRANCH   9  17
ENDBRANCH   1   7
BRANCH   3  20
ATOM     20  C   UNL     1      -0.305  -7.138  -1.573  0.00  0.00    +0.124 C 
BRANCH  20  21
ATOM     21  C   UNL     1       0.863  -7.084  -2.560  0.00  0.00    +0.116 C 
ATOM     22  C   UNL     1       0.622  -8.136  -3.624  0.00  0.00    -0.003 C 
ATOM     23  C   UNL     1       0.559  -7.716  -4.917  0.00  0.00    -0.007 A 
ATOM     24  C   UNL     1       0.328  -8.671  -6.003  0.00  0.00    +0.013 A 
ATOM     25  C   UNL     1       0.272  -8.217  -7.278  0.00  0.00    +0.046 A 
ATOM     26  C   UNL     1       0.429  -6.854  -7.573  0.00  0.00    +0.122 A 
ATOM     27  C   UNL     1       0.648  -5.910  -6.594  0.00  0.00    +0.069 A 
ATOM     28  C   UNL     1       0.722  -6.289  -5.247  0.00  0.00    +0.044 A 
ATOM     29  N   UNL     1       0.936  -5.365  -4.307  0.00  0.00    -0.284 N 
ATOM     30  C   UNL     1       1.014  -5.652  -3.021  0.00  0.00    +0.226 C 
ATOM     31  O   UNL     1       1.209  -4.766  -2.209  0.00  0.00    -0.275 OA
ATOM     32  H   UNL     1       1.036  -4.440  -4.582  0.00  0.00    +0.155 HD
BRANCH  26  33
ATOM     33  O   UNL     1       0.364  -6.454  -8.865  0.00  0.00    -0.495 OA
ATOM     34  C   UNL     1       0.135  -7.466  -9.848  0.00  0.00    +0.277 C 
ENDBRANCH  26  33
ENDBRANCH  20  21
ENDBRANCH   3  20
TORSDOF 10
