REMARK  Name = ZINC64411039
REMARK  6 active torsions:
REMARK  status: ('A' for Active; 'I' for Inactive)
REMARK    1  A    between atoms: C_1  and  C_2
REMARK    2  A    between atoms: C_2  and  C_4
REMARK    3  A    between atoms: C_2  and  N_17
REMARK    4  A    between atoms: N_6  and  C_7
REMARK    5  A    between atoms: C_7  and  C_8
REMARK    6  A    between atoms: C_22  and  C_24
REMARK                            x       y       z     vdW  Elec       q    Type
REMARK                         _______ _______ _______ _____ _____    ______ ____
ROOT
ATOM      1  C   UNL     1      -0.019   1.526   0.010  0.00  0.00    +0.043 C 
ATOM      2  C   UNL     1       0.002  -0.004   0.002  0.00  0.00    +0.193 C 
ENDROOT
BRANCH   2   3
ATOM      3  N   UNL     1       0.711  -0.489   1.189  0.00  0.00    -0.217 N 
ATOM      4  C   UNL     1       1.815  -1.242   1.030  0.00  0.00    +0.268 A 
ATOM      5  O   UNL     1       2.218  -1.514  -0.090  0.00  0.00    -0.266 OA
ATOM      6  C   UNL     1       2.506  -1.714   2.168  0.00  0.00    +0.074 A 
ATOM      7  C   UNL     1       2.014  -1.381   3.396  0.00  0.00    +0.035 A 
ATOM      8  C   UNL     1       0.846  -0.586   3.457  0.00  0.00    +0.092 A 
ATOM      9  N   UNL     1       0.264  -0.181   2.352  0.00  0.00    -0.168 NA
BRANCH   8  10
ATOM     10  C   UNL     1       0.281  -0.203   4.773  0.00  0.00    +0.002 A 
ATOM     11  C   UNL     1      -0.873   0.576   4.838  0.00  0.00    +0.013 A 
ATOM     12  C   UNL     1      -1.396   0.930   6.065  0.00  0.00    +0.039 A 
ATOM     13  C   UNL     1      -0.775   0.513   7.231  0.00  0.00    +0.123 A 
ATOM     14  C   UNL     1       0.372  -0.261   7.171  0.00  0.00    +0.039 A 
ATOM     15  C   UNL     1       0.898  -0.625   5.949  0.00  0.00    +0.013 A 
ATOM     16  F   UNL     1      -1.290   0.862   8.431  0.00  0.00    -0.205 F 
ENDBRANCH   8  10
ENDBRANCH   2   3
BRANCH   2  17
ATOM     17  C   UNL     1      -1.412  -0.526   0.013  0.00  0.00    +0.238 C 
ATOM     18  O   UNL     1      -1.790  -1.233   0.922  0.00  0.00    -0.273 OA
ATOM     19  N   UNL     1      -2.256  -0.206  -0.988  0.00  0.00    -0.310 N 
ATOM     20  H   UNL     1      -1.953   0.360  -1.716  0.00  0.00    +0.149 HD
BRANCH  19  21
ATOM     21  C   UNL     1      -3.630  -0.713  -0.978  0.00  0.00    +0.151 C 
BRANCH  21  22
ATOM     22  C   UNL     1      -4.370  -0.206  -2.217  0.00  0.00    +0.191 C 
ATOM     23  N   UNL     1      -3.653  -0.611  -3.433  0.00  0.00    -0.362 N 
ATOM     24  C   UNL     1      -3.308   0.474  -4.063  0.00  0.00    +0.060 A 
ATOM     25  C   UNL     1      -2.582   0.714  -5.318  0.00  0.00    +0.027 A 
ATOM     26  C   UNL     1      -2.368   1.978  -5.732  0.00  0.00    +0.002 A 
ATOM     27  C   UNL     1      -2.813   3.099  -5.008  0.00  0.00    +0.002 A 
ATOM     28  C   UNL     1      -3.487   2.992  -3.845  0.00  0.00    +0.027 A 
ATOM     29  C   UNL     1      -3.780   1.660  -3.297  0.00  0.00    +0.060 A 
ATOM     30  N   UNL     1      -4.398   1.262  -2.223  0.00  0.00    -0.362 N 
ATOM     31  H   UNL     1      -3.469  -1.521  -3.715  0.00  0.00    +0.162 HD
ATOM     32  H   UNL     1      -4.803   1.831  -1.549  0.00  0.00    +0.162 HD
ENDBRANCH  21  22
ENDBRANCH  19  21
ENDBRANCH   2  17
TORSDOF 5
