REMARK  Name = ZINC18997066
REMARK  8 active torsions:
REMARK  status: ('A' for Active; 'I' for Inactive)
REMARK    1  A    between atoms: C_1  and  C_2
REMARK    2  A    between atoms: C_9  and  C_14
REMARK    3  A    between atoms: C_14  and  O_15
REMARK    4  A    between atoms: O_15  and  C_16
REMARK    5  A    between atoms: C_16  and  C_18
REMARK    6  A    between atoms: C_22  and  S_24
REMARK    7  A    between atoms: S_24  and  N_27
REMARK    8  A    between atoms: N_27  and  C_28
REMARK                            x       y       z     vdW  Elec       q    Type
REMARK                         _______ _______ _______ _____ _____    ______ ____
ROOT
ATOM      1  C   UNL     1      -2.503   1.008   0.019  0.00  0.00    +0.340 C 
ATOM      2  O   UNL     1      -3.560   1.605   0.027  0.00  0.00    -0.245 OA
ENDROOT
BRANCH   1   3
ATOM      3  C   UNL     1      -1.230   1.759   0.017  0.00  0.00    +0.061 A 
ATOM      4  C   UNL     1      -0.013   1.076   0.008  0.00  0.00    +0.015 A 
ATOM      5  C   UNL     1       1.171   1.783   0.001  0.00  0.00    +0.003 A 
ATOM      6  C   UNL     1       1.154   3.167   0.008  0.00  0.00    +0.028 A 
ATOM      7  C   UNL     1      -0.048   3.850   0.023  0.00  0.00    +0.106 A 
ATOM      8  C   UNL     1      -1.240   3.155   0.031  0.00  0.00    +0.043 A 
BRANCH   7   9
ATOM      9  S   UNL     1      -0.058   5.612   0.031  0.00  0.00    +0.059 S 
ATOM     10  O   UNL     1      -1.300   6.009   0.596  0.00  0.00    -0.153 OA
ATOM     11  O   UNL     1       1.190   6.023   0.572  0.00  0.00    -0.153 OA
BRANCH   9  12
ATOM     12  N   UNL     1      -0.077   6.109  -1.548  0.00  0.00    -0.187 NA
ATOM     13  H   UNL     1       0.678   6.598  -1.912  0.00  0.00    +0.148 HD
BRANCH  12  14
ATOM     14  C   UNL     1      -1.234   5.811  -2.397  0.00  0.00    +0.077 C 
ATOM     15  C   UNL     1      -0.972   5.544  -3.880  0.00  0.00    +0.022 C 
ATOM     16  C   UNL     1      -1.630   6.854  -3.443  0.00  0.00    +0.022 C 
ENDBRANCH  12  14
ENDBRANCH   9  12
ENDBRANCH   7   9
ENDBRANCH   1   3
BRANCH   1  17
ATOM     17  O   UNL     1      -2.490  -0.339   0.011  0.00  0.00    -0.456 OA
BRANCH  17  18
ATOM     18  C   UNL     1      -3.777  -1.010   0.013  0.00  0.00    +0.269 C 
BRANCH  18  27
ATOM     19  C   UNL     1      -7.983  -6.171   0.025  0.00  0.00    +0.045 C 
ATOM     20  C   UNL     1      -6.825  -5.207   0.020  0.00  0.00    -0.029 A 
ATOM     21  C   UNL     1      -5.534  -5.692  -0.007  0.00  0.00    +0.051 A 
ATOM     22  C   UNL     1      -4.461  -4.810  -0.006  0.00  0.00    +0.140 A 
ATOM     23  C   UNL     1      -4.705  -3.425   0.009  0.00  0.00    +0.025 A 
ATOM     24  C   UNL     1      -6.018  -2.947   0.024  0.00  0.00    +0.032 A 
ATOM     25  C   UNL     1      -7.067  -3.840   0.029  0.00  0.00    +0.045 A 
ATOM     26 CL   UNL     1      -8.701  -3.253   0.048  0.00  0.00    -0.083 Cl
ATOM     27  C   UNL     1      -3.565  -2.502   0.003  0.00  0.00    +0.007 A 
ATOM     28  C   UNL     1      -2.314  -3.029  -0.005  0.00  0.00    +0.099 A 
ATOM     29  C   UNL     1      -2.143  -4.430  -0.014  0.00  0.00    +0.338 A 
ATOM     30  O   UNL     1      -1.016  -4.890  -0.022  0.00  0.00    -0.245 OA
ATOM     31  O   UNL     1      -3.191  -5.268  -0.015  0.00  0.00    -0.422 OA
ENDBRANCH  18  27
ENDBRANCH  17  18
ENDBRANCH   1  17
TORSDOF 7
