REMARK  Name = ZINC39265830
REMARK  6 active torsions:
REMARK  status: ('A' for Active; 'I' for Inactive)
REMARK    1  A    between atoms: C_1  and  C_2
REMARK    2  A    between atoms: N_4  and  C_5
REMARK    3  A    between atoms: C_21  and  C_26
REMARK    4  A    between atoms: N_28  and  C_29
REMARK    5  A    between atoms: C_29  and  C_30
REMARK    6  A    between atoms: C_30  and  N_31
REMARK                            x       y       z     vdW  Elec       q    Type
REMARK                         _______ _______ _______ _____ _____    ______ ____
ROOT
ATOM      1  C   UNL     1      -1.136  -2.159   0.001  0.00  0.00    +0.161 C 
ATOM      2  C   UNL     1      -2.456  -2.721   0.582  0.00  0.00    +0.060 C 
ATOM      3  C   UNL     1      -3.293  -2.919  -0.695  0.00  0.00    +0.126 C 
ATOM      4  C   UNL     1      -4.147  -4.158  -0.584  0.00  0.00    +0.041 A 
ATOM      5  H   UNL     1      -5.332  -3.818   1.097  0.00  0.00    +0.166 HD
ATOM      6  C   UNL     1      -4.067  -5.197  -1.446  0.00  0.00    -0.015 A 
ATOM      7  C   UNL     1      -5.046  -6.177  -1.016  0.00  0.00    +0.003 A 
ATOM      8  C   UNL     1      -5.413  -7.429  -1.517  0.00  0.00    +0.010 A 
ATOM      9  C   UNL     1      -6.402  -8.101  -0.841  0.00  0.00    +0.001 A 
ATOM     10  C   UNL     1      -7.012  -7.575   0.285  0.00  0.00    +0.002 A 
ATOM     11  C   UNL     1      -6.668  -6.338   0.803  0.00  0.00    +0.026 A 
ATOM     12  C   UNL     1      -5.668  -5.632   0.137  0.00  0.00    +0.047 A 
ATOM     13  N   UNL     1      -5.098  -4.414   0.368  0.00  0.00    -0.356 N 
ATOM     14  C   UNL     1      -3.118  -5.291  -2.615  0.00  0.00    +0.069 C 
ATOM     15  C   UNL     1      -2.654  -3.880  -3.008  0.00  0.00    +0.167 C 
ATOM     16  N   UNL     1      -2.308  -3.148  -1.770  0.00  0.00    -0.280 N 
ATOM     17  C   UNL     1      -1.098  -2.680  -1.419  0.00  0.00    +0.237 C 
ATOM     18  O   UNL     1      -0.118  -2.675  -2.135  0.00  0.00    -0.274 OA
ENDROOT
BRANCH   1  22
ATOM     19  C   UNL     1      -0.018   1.503   0.010  0.00  0.00    +0.109 C 
ATOM     20  C   UNL     1       0.002  -0.004   0.002  0.00  0.00    +0.211 C 
ATOM     21  O   UNL     1       1.060  -0.596  -0.011  0.00  0.00    -0.276 OA
ATOM     22  N   UNL     1      -1.156  -0.694   0.009  0.00  0.00    -0.304 N 
ATOM     23  H   UNL     1      -2.002  -0.220   0.020  0.00  0.00    +0.149 HD
ENDBRANCH   1  22
BRANCH  15  24
ATOM     24  C   UNL     1      -3.765  -3.158  -3.725  0.00  0.00    +0.234 C 
ATOM     25  O   UNL     1      -4.207  -2.123  -3.272  0.00  0.00    -0.274 OA
ATOM     26  N   UNL     1      -4.266  -3.661  -4.871  0.00  0.00    -0.312 N 
ATOM     27  H   UNL     1      -3.913  -4.488  -5.233  0.00  0.00    +0.149 HD
BRANCH  26  28
ATOM     28  C   UNL     1      -5.346  -2.958  -5.568  0.00  0.00    +0.125 C 
BRANCH  28  29
ATOM     29  C   UNL     1      -5.728  -3.735  -6.830  0.00  0.00    +0.140 C 
BRANCH  29  30
ATOM     30  N   UNL     1      -6.808  -3.032  -7.528  0.00  0.00    -0.352 N 
ATOM     31  C   UNL     1      -8.143  -3.222  -7.321  0.00  0.00    +0.086 A 
ATOM     32  C   UNL     1      -8.818  -2.397  -8.147  0.00  0.00    +0.019 A 
ATOM     33  C   UNL     1      -7.866  -1.672  -8.890  0.00  0.00    +0.019 A 
ATOM     34  C   UNL     1      -6.645  -2.077  -8.486  0.00  0.00    +0.086 A 
ENDBRANCH  29  30
ENDBRANCH  28  29
ENDBRANCH  26  28
ENDBRANCH  15  24
TORSDOF 5
