REMARK  Name = ZINC35535500
REMARK  7 active torsions:
REMARK  status: ('A' for Active; 'I' for Inactive)
REMARK    1  A    between atoms: C_1  and  C_2
REMARK    2  A    between atoms: C_2  and  C_3
REMARK    3  A    between atoms: C_2  and  N_4
REMARK    4  A    between atoms: N_6  and  N_15
REMARK    5  A    between atoms: C_7  and  C_10
REMARK    6  A    between atoms: C_16  and  C_17
REMARK    7  A    between atoms: C_22  and  N_23
REMARK                            x       y       z     vdW  Elec       q    Type
REMARK                         _______ _______ _______ _____ _____    ______ ____
ROOT
ATOM      1  N   UNL     1      -1.354  -0.351   0.011  0.00  0.00    -0.321 N 
ATOM      2  C   UNL     1      -1.590  -1.585  -0.455  0.00  0.00    +0.160 A 
ATOM      3  N   UNL     1      -2.772  -2.252  -0.518  0.00  0.00    -0.208 N 
ATOM      4  C   UNL     1      -2.782  -3.470  -1.019  0.00  0.00    +0.117 A 
ATOM      5  C   UNL     1      -1.491  -4.011  -1.474  0.00  0.00    +0.080 A 
ATOM      6  S   UNL     1      -0.430  -2.746  -1.150  0.00  0.00    -0.060 S 
ATOM      7  H   UNL     1      -2.083   0.181   0.366  0.00  0.00    +0.148 HD
ENDROOT
BRANCH   4   8
ATOM      8  C   UNL     1      -3.973  -4.221  -1.115  0.00  0.00    +0.154 A 
ATOM      9  C   UNL     1      -4.078  -5.552  -1.531  0.00  0.00    +0.051 A 
ATOM     10  C   UNL     1      -5.430  -5.879  -1.469  0.00  0.00    +0.042 A 
ATOM     11  C   UNL     1      -6.096  -4.773  -1.030  0.00  0.00    +0.196 A 
ATOM     12  O   UNL     1      -5.215  -3.786  -0.815  0.00  0.00    -0.461 OA
ENDBRANCH   4   8
BRANCH   1  14
ATOM     13  C   UNL     1      -0.059   1.723  -0.041  0.00  0.00    +0.027 C 
ATOM     14  C   UNL     1       0.005   0.195  -0.015  0.00  0.00    +0.066 C 
ATOM     15  C   UNL     1       0.763  -0.263   1.234  0.00  0.00    +0.027 C 
ENDBRANCH   1  14
BRANCH   3  16
ATOM     16  N   UNL     1      -3.861  -1.704  -0.096  0.00  0.00    -0.172 NA
ATOM     17  C   UNL     1      -4.601  -0.999  -0.917  0.00  0.00    +0.143 C 
BRANCH  17  18
ATOM     18  C   UNL     1      -5.839  -0.376  -0.437  0.00  0.00    +0.029 A 
ATOM     19  C   UNL     1      -6.300  -0.635   0.862  0.00  0.00    +0.061 A 
ATOM     20  C   UNL     1      -7.464  -0.047   1.308  0.00  0.00    +0.167 A 
ATOM     21  C   UNL     1      -8.184   0.807   0.466  0.00  0.00    +0.168 A 
ATOM     22  C   UNL     1      -7.727   1.065  -0.821  0.00  0.00    +0.083 A 
ATOM     23  C   UNL     1      -6.563   0.485  -1.274  0.00  0.00    +0.138 A 
ATOM     24  O   UNL     1      -9.283   1.253   1.138  0.00  0.00    -0.453 OA
ATOM     25  C   UNL     1      -9.451   0.349   2.245  0.00  0.00    +0.466 C 
ATOM     26  O   UNL     1      -8.119  -0.131   2.503  0.00  0.00    -0.453 OA
BRANCH  23  27
ATOM     27  N   UNL     1      -6.080   0.768  -2.644  0.00  0.00    +0.057 N 
ATOM     28  O   UNL     1      -6.688   1.671  -3.384  0.00  0.00    -0.126 OA
ATOM     29  O   UNL     1      -5.041   0.115  -3.123  0.00  0.00    -0.126 OA
ENDBRANCH  23  27
ENDBRANCH  17  18
ENDBRANCH   3  16
TORSDOF 5
