REMARK  Name = ZINC39533300
REMARK  12 active torsions:
REMARK  status: ('A' for Active; 'I' for Inactive)
REMARK    1  A    between atoms: C_1  and  C_2
REMARK    2  A    between atoms: C_2  and  C_3
REMARK    3  A    between atoms: C_2  and  C_4
REMARK    4  A    between atoms: C_4  and  C_5
REMARK    5  A    between atoms: C_8  and  C_11
REMARK    6  A    between atoms: C_11  and  C_13
REMARK    7  A    between atoms: C_11  and  N_22
REMARK    8  A    between atoms: C_13  and  N_14
REMARK    9  A    between atoms: N_14  and  C_15
REMARK   10  A    between atoms: C_15  and  C_16
REMARK   11  A    between atoms: C_26  and  C_29
REMARK   12  A    between atoms: C_29  and  C_30
REMARK                            x       y       z     vdW  Elec       q    Type
REMARK                         _______ _______ _______ _____ _____    ______ ____
ROOT
ATOM      1  C   UNL     1      -1.391  -6.255  -0.498  0.00  0.00    -0.024 C 
ENDROOT
BRANCH   1   2
ATOM      2  N   UNL     1      -2.197  -6.715   0.641  0.00  0.00    +0.383 N 
ATOM      3  C   UNL     1      -2.120  -8.179   0.737  0.00  0.00    -0.097 C 
ATOM      4  C   UNL     1      -2.960  -8.657   1.923  0.00  0.00    -0.101 C 
ATOM      5  N   UNL     1      -4.358  -8.252   1.728  0.00  0.00    +0.379 N 
ATOM      6  C   UNL     1      -4.435  -6.788   1.633  0.00  0.00    -0.085 C 
ATOM      7  C   UNL     1      -3.596  -6.309   0.447  0.00  0.00    -0.094 C 
ATOM      8  H   UNL     1      -4.713  -8.663   0.878  0.00  0.00    -0.086 HD
ATOM      9  H   UNL     1      -4.912  -8.568   2.511  0.00  0.00    -0.086 HD
ATOM     10  H   UNL     1      -1.843  -6.303   1.492  0.00  0.00    -0.081 HD
BRANCH   6  11
ATOM     11  C   UNL     1      -5.892  -6.366   1.431  0.00  0.00    +0.017 C 
BRANCH  11  12
ATOM     12  C   UNL     1      -6.694  -6.728   2.653  0.00  0.00    -0.049 A 
ATOM     13  C   UNL     1      -7.302  -7.967   2.739  0.00  0.00    +0.003 A 
ATOM     14  C   UNL     1      -8.038  -8.300   3.861  0.00  0.00    +0.000 A 
ATOM     15  C   UNL     1      -8.167  -7.394   4.897  0.00  0.00    +0.000 A 
ATOM     16  C   UNL     1      -7.559  -6.155   4.811  0.00  0.00    +0.000 A 
ATOM     17  C   UNL     1      -6.819  -5.824   3.692  0.00  0.00    +0.003 A 
ENDBRANCH  11  12
ENDBRANCH   6  11
ENDBRANCH   1   2
BRANCH   1  21
ATOM     18  C   UNL     1      -1.699  -2.008  -0.836  0.00  0.00    -0.047 A 
ATOM     19  C   UNL     1      -1.700  -2.794  -1.974  0.00  0.00    +0.004 A 
ATOM     20  C   UNL     1      -1.601  -4.168  -1.864  0.00  0.00    +0.002 A 
ATOM     21  C   UNL     1      -1.499  -4.757  -0.617  0.00  0.00    -0.060 A 
ATOM     22  C   UNL     1      -1.497  -3.971   0.520  0.00  0.00    +0.002 A 
ATOM     23  C   UNL     1      -1.592  -2.596   0.410  0.00  0.00    +0.004 A 
BRANCH  18  24
ATOM     24  C   UNL     1      -1.808  -0.510  -0.956  0.00  0.00    +0.038 C 
BRANCH  24  26
ATOM     25  C   UNL     1      -0.521   1.601  -1.319  0.00  0.00    +0.007 C 
ATOM     26  C   UNL     1      -0.407   0.096  -1.073  0.00  0.00    -0.013 C 
ATOM     27  C   UNL     1       0.366  -0.152   0.224  0.00  0.00    +0.007 C 
ENDBRANCH  24  26
ENDBRANCH  18  24
ENDBRANCH   1  21
BRANCH   1  28
ATOM     28  C   UNL     1       0.072  -6.645  -0.278  0.00  0.00    +0.070 C 
BRANCH  28  29
ATOM     29  N   UNL     1       0.865  -6.252  -1.450  0.00  0.00    -0.313 NA
ATOM     30  H   UNL     1       0.451  -6.603  -2.301  0.00  0.00    +0.122 HD
BRANCH  29  31
ATOM     31  C   UNL     1       2.257  -6.701  -1.318  0.00  0.00    +0.116 C 
BRANCH  31  32
ATOM     32  C   UNL     1       3.038  -6.280  -2.536  0.00  0.00    -0.034 A 
ATOM     33  C   UNL     1       3.110  -7.117  -3.634  0.00  0.00    +0.005 A 
ATOM     34  C   UNL     1       3.826  -6.731  -4.752  0.00  0.00    +0.000 A 
ATOM     35  C   UNL     1       4.471  -5.508  -4.772  0.00  0.00    +0.000 A 
ATOM     36  C   UNL     1       4.398  -4.671  -3.674  0.00  0.00    +0.000 A 
ATOM     37  C   UNL     1       3.678  -5.055  -2.558  0.00  0.00    +0.005 A 
ENDBRANCH  31  32
ENDBRANCH  29  31
ENDBRANCH  28  29
ENDBRANCH   1  28
TORSDOF 10
