REMARK  Name = ZINC04015862
REMARK  5 active torsions:
REMARK  status: ('A' for Active; 'I' for Inactive)
REMARK    1  A    between atoms: C_1  and  O_2
REMARK    2  A    between atoms: O_2  and  C_3
REMARK    3  A    between atoms: C_6  and  C_9
REMARK    4  A    between atoms: C_11  and  C_28
REMARK    5  A    between atoms: C_14  and  C_17
REMARK                            x       y       z     vdW  Elec       q    Type
REMARK                         _______ _______ _______ _____ _____    ______ ____
ROOT
ATOM      1  C   UNL     1       3.711  -0.707  -0.037  0.00  0.00    +0.140 C 
ATOM      2  C   UNL     1       4.292  -0.745   1.380  0.00  0.00    +0.072 C 
ATOM      3  C   UNL     1       4.833   0.626   1.712  0.00  0.00    +0.014 C 
ATOM      4  C   UNL     1       5.333   1.374   0.731  0.00  0.00    +0.095 C 
ATOM      5  N   UNL     1       5.344   0.919  -0.547  0.00  0.00    -0.178 NA
ATOM      6  N   UNL     1       4.644  -0.019  -0.929  0.00  0.00    -0.300 N 
ATOM      7  H   UNL     1       4.709  -0.364  -1.972  0.00  0.00    +0.183 HD
ENDROOT
BRANCH   4   8
ATOM      8  C   UNL     1       5.891   2.738   1.042  0.00  0.00    +0.096 C 
ATOM      9  C   UNL     1       5.194   3.789   0.211  0.00  0.00    +0.200 C 
ATOM     10  O   UNL     1       4.011   4.051   0.230  0.00  0.00    -0.286 OA
ATOM     11  C   UNL     1       6.219   4.436  -0.627  0.00  0.00    +0.033 A 
ATOM     12  C   UNL     1       6.111   5.464  -1.568  0.00  0.00    +0.012 A 
ATOM     13  C   UNL     1       7.233   5.909  -2.239  0.00  0.00    +0.001 A 
ATOM     14  C   UNL     1       8.471   5.345  -1.987  0.00  0.00    +0.001 A 
ATOM     15  C   UNL     1       8.601   4.328  -1.060  0.00  0.00    +0.012 A 
ATOM     16  C   UNL     1       7.479   3.862  -0.370  0.00  0.00    +0.033 A 
ATOM     17  C   UNL     1       7.348   2.807   0.651  0.00  0.00    +0.200 C 
ATOM     18  O   UNL     1       8.244   2.121   1.093  0.00  0.00    -0.286 OA
ENDBRANCH   4   8
BRANCH   1  22
ATOM     19  C   UNL     1      -0.017   1.383   0.010  0.00  0.00    +0.120 A 
ATOM     20  C   UNL     1       1.177   2.091   0.002  0.00  0.00    +0.046 A 
ATOM     21  C   UNL     1       2.380   1.413  -0.013  0.00  0.00    +0.009 A 
ATOM     22  C   UNL     1       2.396   0.030  -0.021  0.00  0.00    -0.023 A 
ATOM     23  C   UNL     1       1.208  -0.677  -0.013  0.00  0.00    +0.009 A 
ATOM     24  C   UNL     1       0.002  -0.004   0.002  0.00  0.00    +0.046 A 
BRANCH  19  26
ATOM     25  C   UNL     1      -1.145   3.475   0.026  0.00  0.00    +0.277 C 
ATOM     26  O   UNL     1      -1.202   2.048   0.019  0.00  0.00    -0.495 OA
ENDBRANCH  19  26
ENDBRANCH   1  22
BRANCH   2  27
ATOM     27  C   UNL     1       5.406  -1.758   1.442  0.00  0.00    -0.038 A 
ATOM     28  C   UNL     1       6.514  -1.619   0.628  0.00  0.00    +0.004 A 
ATOM     29  C   UNL     1       7.538  -2.546   0.689  0.00  0.00    +0.000 A 
ATOM     30  C   UNL     1       7.449  -3.617   1.558  0.00  0.00    +0.000 A 
ATOM     31  C   UNL     1       6.339  -3.760   2.368  0.00  0.00    +0.000 A 
ATOM     32  C   UNL     1       5.317  -2.831   2.311  0.00  0.00    +0.004 A 
ENDBRANCH   2  27
TORSDOF 4
