REMARK  Name = ZINC35336357
REMARK  12 active torsions:
REMARK  status: ('A' for Active; 'I' for Inactive)
REMARK    1  A    between atoms: C_1  and  C_2
REMARK    2  A    between atoms: C_2  and  C_3
REMARK    3  A    between atoms: C_2  and  C_4
REMARK    4  A    between atoms: C_4  and  N_5
REMARK    5  A    between atoms: N_5  and  C_6
REMARK    6  A    between atoms: C_6  and  C_7
REMARK    7  A    between atoms: N_11  and  C_12
REMARK    8  A    between atoms: C_13  and  C_15
REMARK    9  A    between atoms: C_15  and  N_16
REMARK   10  A    between atoms: N_16  and  C_17
REMARK   11  A    between atoms: C_23  and  C_25
REMARK   12  A    between atoms: C_28  and  C_30
REMARK                            x       y       z     vdW  Elec       q    Type
REMARK                         _______ _______ _______ _____ _____    ______ ____
ROOT
ATOM      1  N   UNL     1      -1.549  -2.550  -3.761  0.00  0.00    -0.289 N 
ATOM      2  C   UNL     1      -0.398  -2.924  -4.354  0.00  0.00    +0.220 C 
ATOM      3  O   UNL     1       0.665  -2.555  -3.902  0.00  0.00    -0.275 OA
ENDROOT
BRANCH   1   4
ATOM      4  C   UNL     1      -2.833  -2.994  -4.308  0.00  0.00    +0.077 C 
ATOM      5  C   UNL     1      -3.669  -1.775  -4.702  0.00  0.00    +0.022 C 
ATOM      6  C   UNL     1      -5.011  -2.239  -5.273  0.00  0.00    +0.002 C 
ATOM      7  C   UNL     1      -5.761  -3.053  -4.216  0.00  0.00    +0.000 C 
ATOM      8  C   UNL     1      -4.924  -4.272  -3.823  0.00  0.00    +0.002 C 
ATOM      9  C   UNL     1      -3.583  -3.808  -3.252  0.00  0.00    +0.022 C 
ENDBRANCH   1   4
BRANCH   2  10
ATOM     10  C   UNL     1      -0.432  -3.799  -5.580  0.00  0.00    +0.083 C 
ATOM     11  C   UNL     1       0.087  -5.232  -5.440  0.00  0.00    +0.022 C 
ATOM     12  C   UNL     1       0.908  -4.191  -6.206  0.00  0.00    +0.032 C 
BRANCH  12  13
ATOM     13  C   UNL     1       0.965  -4.317  -7.707  0.00  0.00    -0.044 A 
ATOM     14  C   UNL     1       0.150  -5.226  -8.355  0.00  0.00    +0.004 A 
ATOM     15  C   UNL     1       0.202  -5.341  -9.732  0.00  0.00    +0.000 A 
ATOM     16  C   UNL     1       1.069  -4.548 -10.460  0.00  0.00    +0.000 A 
ATOM     17  C   UNL     1       1.884  -3.639  -9.811  0.00  0.00    +0.000 A 
ATOM     18  C   UNL     1       1.829  -3.521  -8.435  0.00  0.00    +0.004 A 
ENDBRANCH  12  13
ENDBRANCH   2  10
BRANCH   1  19
ATOM     19  C   UNL     1      -1.515  -1.698  -2.570  0.00  0.00    +0.203 C 
BRANCH  19  21
ATOM     20  N   UNL     1      -1.416  -1.993  -0.116  0.00  0.00    -0.294 N 
ATOM     21  C   UNL     1      -1.455  -2.562  -1.336  0.00  0.00    +0.233 C 
ATOM     22  O   UNL     1      -1.441  -3.771  -1.443  0.00  0.00    -0.274 OA
BRANCH  20  23
ATOM     23  C   UNL     1      -1.433  -0.534   0.013  0.00  0.00    +0.111 C 
BRANCH  23  25
ATOM     24  C   UNL     1      -0.019   1.526   0.010  0.00  0.00    +0.009 C 
ATOM     25  C   UNL     1       0.002  -0.004   0.002  0.00  0.00    +0.000 C 
ATOM     26  C   UNL     1       0.742  -0.511   1.242  0.00  0.00    +0.009 C 
ENDBRANCH  23  25
ENDBRANCH  20  23
BRANCH  20  27
ATOM     27  C   UNL     1      -1.358  -2.833   1.083  0.00  0.00    +0.161 C 
BRANCH  27  28
ATOM     28  C   UNL     1      -2.757  -3.142   1.549  0.00  0.00    +0.036 A 
ATOM     29  C   UNL     1      -3.464  -4.250   1.246  0.00  0.00    +0.024 A 
ATOM     30  C   UNL     1      -4.716  -4.138   1.883  0.00  0.00    +0.019 A 
ATOM     31  C   UNL     1      -4.726  -2.966   2.550  0.00  0.00    +0.085 A 
ATOM     32  N   UNL     1      -3.524  -2.354   2.354  0.00  0.00    -0.352 N 
ATOM     33  C   UNL     1      -3.124  -1.060   2.913  0.00  0.00    +0.148 C 
ENDBRANCH  27  28
ENDBRANCH  20  27
ENDBRANCH  19  21
ENDBRANCH   1  19
TORSDOF 9
