REMARK  Name = ZINC16528162
REMARK  13 active torsions:
REMARK  status: ('A' for Active; 'I' for Inactive)
REMARK    1  A    between atoms: C_1  and  C_2
REMARK    2  A    between atoms: C_2  and  C_3
REMARK    3  A    between atoms: C_3  and  C_4
REMARK    4  A    between atoms: C_4  and  N_5
REMARK    5  A    between atoms: N_5  and  C_6
REMARK    6  A    between atoms: C_6  and  C_7
REMARK    7  A    between atoms: C_7  and  C_8
REMARK    8  A    between atoms: N_10  and  C_11
REMARK    9  A    between atoms: C_16  and  C_17
REMARK   10  A    between atoms: C_16  and  N_75
REMARK   11  A    between atoms: C_25  and  C_28
REMARK   12  A    between atoms: C_28  and  C_29
REMARK   13  A    between atoms: C_32  and  C_35
REMARK                            x       y       z     vdW  Elec       q    Type
REMARK                         _______ _______ _______ _____ _____    ______ ____
ROOT
ATOM      1  C   UNL     1      -3.903  -0.532  -3.156  0.00  0.00    +0.116 C 
ENDROOT
BRANCH   1   2
ATOM      2  N   UNL     1      -3.354   0.768  -3.549  0.00  0.00    -0.308 N 
ATOM      3  C   UNL     1      -2.325   1.334  -2.819  0.00  0.00    +0.181 A 
ATOM      4  N   UNL     1      -1.699   0.865  -1.748  0.00  0.00    -0.208 NA
ATOM      5  C   UNL     1      -0.742   1.585  -1.213  0.00  0.00    +0.145 A 
ATOM      6  N   UNL     1      -0.417   2.738  -1.747  0.00  0.00    -0.192 NA
ATOM      7  S   UNL     1      -1.503   2.842  -3.066  0.00  0.00    +0.049 S 
BRANCH   2   8
ATOM      8  C   UNL     1      -3.897   1.470  -4.716  0.00  0.00    +0.107 C 
BRANCH   8   9
ATOM      9  C   UNL     1      -3.122   1.052  -5.967  0.00  0.00    +0.019 C 
BRANCH   9  11
ATOM     10  C   UNL     1      -2.914   1.366  -8.437  0.00  0.00    +0.004 C 
ATOM     11  C   UNL     1      -3.688   1.784  -7.186  0.00  0.00    -0.002 C 
ENDBRANCH   9  11
ENDBRANCH   8   9
ENDBRANCH   2   8
BRANCH   5  12
ATOM     12  C   UNL     1      -0.013   1.086   0.008  0.00  0.00    +0.112 C 
BRANCH  12  13
ATOM     13  C   UNL     1      -0.718   1.572   1.248  0.00  0.00    -0.040 A 
ATOM     14  C   UNL     1      -0.360   2.779   1.819  0.00  0.00    +0.004 A 
ATOM     15  C   UNL     1      -1.010   3.227   2.953  0.00  0.00    +0.003 A 
ATOM     16  C   UNL     1      -2.012   2.463   3.523  0.00  0.00    -0.050 A 
ATOM     17  C   UNL     1      -2.366   1.254   2.955  0.00  0.00    +0.003 A 
ATOM     18  C   UNL     1      -1.719   0.808   1.818  0.00  0.00    +0.004 A 
ATOM     19  C   UNL     1      -2.718   2.950   4.762  0.00  0.00    +0.044 C 
ENDBRANCH  12  13
ENDBRANCH   5  12
ENDBRANCH   1   2
BRANCH   1  20
ATOM     20  C   UNL     1      -5.057  -0.322  -2.173  0.00  0.00    +0.114 C 
BRANCH  20  21
ATOM     21  C   UNL     1      -5.622  -1.659  -1.768  0.00  0.00    +0.215 C 
ATOM     22  O   UNL     1      -5.148  -2.680  -2.221  0.00  0.00    -0.276 OA
ATOM     23  N   UNL     1      -6.653  -1.721  -0.903  0.00  0.00    -0.313 N 
ATOM     24  H   UNL     1      -7.032  -0.905  -0.541  0.00  0.00    +0.149 HD
BRANCH  23  25
ATOM     25  C   UNL     1      -7.202  -3.022  -0.510  0.00  0.00    +0.069 C 
ATOM     26  C   UNL     1      -8.241  -3.472  -1.541  0.00  0.00    +0.003 C 
ATOM     27  C   UNL     1      -8.854  -4.800  -1.093  0.00  0.00    -0.077 C 
ATOM     28  C   UNL     1      -8.498  -4.245   1.238  0.00  0.00    -0.077 C 
ATOM     29  C   UNL     1      -7.874  -2.900   0.861  0.00  0.00    +0.003 C 
ATOM     30  N   UNL     1      -9.506  -4.610   0.220  0.00  0.00    +0.382 N 
ATOM     31  H   UNL     1     -10.192  -3.850   0.144  0.00  0.00    -0.081 HD
BRANCH  30  32
ATOM     32  C   UNL     1     -10.204  -5.848   0.622  0.00  0.00    -0.043 C 
BRANCH  32  33
ATOM     33  C   UNL     1     -11.364  -6.076  -0.312  0.00  0.00    -0.064 A 
ATOM     34  C   UNL     1     -12.602  -5.534  -0.021  0.00  0.00    +0.002 A 
ATOM     35  C   UNL     1     -13.665  -5.739  -0.881  0.00  0.00    +0.000 A 
ATOM     36  C   UNL     1     -13.494  -6.494  -2.026  0.00  0.00    +0.000 A 
ATOM     37  C   UNL     1     -12.257  -7.041  -2.314  0.00  0.00    +0.000 A 
ATOM     38  C   UNL     1     -11.192  -6.832  -1.457  0.00  0.00    +0.002 A 
ENDBRANCH  32  33
ENDBRANCH  30  32
ENDBRANCH  23  25
ENDBRANCH  20  21
ENDBRANCH   1  20
TORSDOF 11
