REMARK  Name = ZINC39530146
REMARK  5 active torsions:
REMARK  status: ('A' for Active; 'I' for Inactive)
REMARK    1  A    between atoms: C_4  and  O_28
REMARK    2  A    between atoms: C_5  and  C_7
REMARK    3  A    between atoms: C_12  and  N_13
REMARK    4  A    between atoms: C_17  and  C_20
REMARK    5  A    between atoms: C_25  and  O_26
REMARK                            x       y       z     vdW  Elec       q    Type
REMARK                         _______ _______ _______ _____ _____    ______ ____
ROOT
ATOM      1  N   UNL     1       2.098  -2.175   2.245  0.00  0.00    -0.332 N 
ATOM      2  C   UNL     1       1.169  -1.923   3.358  0.00  0.00    +0.086 C 
ATOM      3  C   UNL     1       1.842  -2.365   4.661  0.00  0.00    -0.063 C 
ATOM      4  N   UNL     1       3.141  -1.694   4.793  0.00  0.00    +0.386 N 
ATOM      5  C   UNL     1       4.040  -2.130   3.716  0.00  0.00    -0.020 C 
ATOM      6  C   UNL     1       3.478  -1.681   2.368  0.00  0.00    +0.094 C 
ATOM      7  H   UNL     1       3.010  -0.695   4.735  0.00  0.00    -0.085 HD
ATOM      8  H   UNL     1       3.550  -1.926   5.685  0.00  0.00    -0.085 HD
ENDROOT
BRANCH   1  14
ATOM      9  C   UNL     1       1.277  -2.166  -0.034  0.00  0.00    +0.008 A 
ATOM     10  C   UNL     1       0.870  -2.868  -1.167  0.00  0.00    +0.024 A 
ATOM     11  C   UNL     1       0.864  -4.248  -1.157  0.00  0.00    +0.014 A 
ATOM     12  C   UNL     1       1.260  -4.940  -0.025  0.00  0.00    +0.016 A 
ATOM     13  C   UNL     1       1.665  -4.256   1.104  0.00  0.00    +0.025 A 
ATOM     14  C   UNL     1       1.683  -2.868   1.107  0.00  0.00    +0.038 A 
ATOM     15  I   UNL     1       0.252  -5.301  -2.862  0.00  0.00    -0.044 I 
BRANCH   9  20
ATOM     16  C   UNL     1       2.198   1.388  -0.841  0.00  0.00    +0.001 A 
ATOM     17  C   UNL     1       1.305   2.088  -0.050  0.00  0.00    +0.004 A 
ATOM     18  C   UNL     1       0.402   1.412   0.749  0.00  0.00    +0.046 A 
ATOM     19  C   UNL     1       0.386   0.027   0.760  0.00  0.00    +0.125 A 
ATOM     20  C   UNL     1       1.287  -0.684  -0.040  0.00  0.00    +0.025 A 
ATOM     21  C   UNL     1       2.193   0.007  -0.840  0.00  0.00    +0.012 A 
BRANCH  19  22
ATOM     22  O   UNL     1      -0.501  -0.638   1.544  0.00  0.00    -0.506 OA
ATOM     23  H   UNL     1      -1.370  -0.762   1.138  0.00  0.00    +0.292 HD
ENDBRANCH  19  22
ENDBRANCH   9  20
ENDBRANCH   1  14
BRANCH   5  24
ATOM     24  C   UNL     1       5.403  -1.520   3.922  0.00  0.00    -0.018 A 
ATOM     25  C   UNL     1       5.548  -0.405   4.726  0.00  0.00    +0.005 A 
ATOM     26  C   UNL     1       6.798   0.154   4.915  0.00  0.00    +0.000 A 
ATOM     27  C   UNL     1       7.906  -0.400   4.301  0.00  0.00    +0.004 A 
ATOM     28  C   UNL     1       7.767  -1.515   3.497  0.00  0.00    +0.045 A 
ATOM     29  C   UNL     1       6.514  -2.082   3.310  0.00  0.00    +0.118 A 
BRANCH  29  30
ATOM     30  O   UNL     1       6.375  -3.182   2.525  0.00  0.00    -0.507 OA
ATOM     31  H   UNL     1       6.209  -2.982   1.593  0.00  0.00    +0.292 HD
ENDBRANCH  29  30
ENDBRANCH   5  24
TORSDOF 5
