REMARK  Name = ZINC14328292
REMARK  7 active torsions:
REMARK  status: ('A' for Active; 'I' for Inactive)
REMARK    1  A    between atoms: C_1  and  C_2
REMARK    2  A    between atoms: C_2  and  C_4
REMARK    3  A    between atoms: C_2  and  N_57
REMARK    4  A    between atoms: N_6  and  C_7
REMARK    5  A    between atoms: C_10  and  N_14
REMARK    6  A    between atoms: C_19  and  C_22
REMARK    7  A    between atoms: C_22  and  C_24
REMARK                            x       y       z     vdW  Elec       q    Type
REMARK                         _______ _______ _______ _____ _____    ______ ____
ROOT
ATOM      1  C   UNL     1      -7.484  -0.227  -0.519  0.00  0.00    -0.077 C 
ATOM      2  C   UNL     1      -6.157  -0.980  -0.633  0.00  0.00    -0.007 C 
ATOM      3  C   UNL     1      -5.026  -0.096  -0.102  0.00  0.00    +0.057 C 
ATOM      4  C   UNL     1      -5.330   0.295   1.347  0.00  0.00    -0.007 C 
ATOM      5  C   UNL     1      -6.682   1.010   1.404  0.00  0.00    -0.077 C 
ATOM      6  N   UNL     1      -7.731   0.098   0.902  0.00  0.00    +0.387 N 
ATOM      7  H   UNL     1      -7.708  -0.770   1.450  0.00  0.00    -0.081 HD
ENDROOT
BRANCH   6   9
ATOM      8  C   UNL     1      -9.335   0.949   2.541  0.00  0.00    -0.004 C 
ATOM      9  C   UNL     1      -9.060   0.725   1.052  0.00  0.00    +0.016 C 
BRANCH   9  10
ATOM     10  C   UNL     1      -9.108   2.046   0.328  0.00  0.00    +0.203 C 
ATOM     11  O   UNL     1      -8.145   2.426  -0.303  0.00  0.00    -0.277 OA
ATOM     12  N   UNL     1     -10.221   2.804   0.381  0.00  0.00    -0.286 N 
ATOM     13  H   UNL     1     -10.972   2.525   0.929  0.00  0.00    +0.155 HD
BRANCH  12  14
ATOM     14  C   UNL     1     -10.294   3.993  -0.354  0.00  0.00    +0.052 A 
ATOM     15  C   UNL     1      -9.156   4.766  -0.541  0.00  0.00    +0.027 A 
ATOM     16  C   UNL     1      -9.232   5.938  -1.267  0.00  0.00    +0.034 A 
ATOM     17  C   UNL     1     -10.438   6.343  -1.808  0.00  0.00    +0.128 A 
ATOM     18  C   UNL     1     -11.574   5.576  -1.624  0.00  0.00    +0.054 A 
ATOM     19  C   UNL     1     -11.505   4.399  -0.903  0.00  0.00    +0.064 A 
ATOM     20 CL   UNL     1     -12.929   3.432  -0.678  0.00  0.00    -0.082 Cl
BRANCH  17  21
ATOM     21  N   UNL     1     -10.515   7.600  -2.586  0.00  0.00    +0.056 N 
ATOM     22  O   UNL     1      -9.515   8.277  -2.749  0.00  0.00    -0.126 OA
ATOM     23  O   UNL     1     -11.577   7.958  -3.062  0.00  0.00    -0.126 OA
ENDBRANCH  17  21
ENDBRANCH  12  14
ENDBRANCH   9  10
ENDBRANCH   6   9
BRANCH   3  24
ATOM     24  C   UNL     1      -3.725  -0.855  -0.156  0.00  0.00    +0.166 C 
ATOM     25  O   UNL     1      -3.729  -2.068  -0.133  0.00  0.00    -0.292 OA
BRANCH  24  26
ATOM     26  C   UNL     1      -2.453  -0.127  -0.236  0.00  0.00    +0.021 A 
ATOM     27  C   UNL     1      -2.445   1.273  -0.263  0.00  0.00    +0.015 A 
ATOM     28  C   UNL     1      -1.250   1.952  -0.344  0.00  0.00    +0.050 A 
ATOM     29  C   UNL     1      -0.048   1.254  -0.392  0.00  0.00    +0.162 A 
ATOM     30  C   UNL     1      -0.048  -0.140  -0.363  0.00  0.00    +0.163 A 
ATOM     31  C   UNL     1      -1.243  -0.829  -0.286  0.00  0.00    +0.060 A 
ATOM     32  O   UNL     1       1.121  -0.837  -0.408  0.00  0.00    -0.485 OA
ATOM     33  C   UNL     1       2.277  -0.124  -0.861  0.00  0.00    +0.270 C 
ATOM     34  C   UNL     1       2.316   1.232  -0.145  0.00  0.00    +0.270 C 
ATOM     35  O   UNL     1       1.119   1.946  -0.472  0.00  0.00    -0.485 OA
ENDBRANCH  24  26
ENDBRANCH   3  24
TORSDOF 6
