REMARK  Name = ZINC08997227
REMARK  6 active torsions:
REMARK  status: ('A' for Active; 'I' for Inactive)
REMARK    1  A    between atoms: C_1  and  C_2
REMARK    2  A    between atoms: C_4  and  C_16
REMARK    3  A    between atoms: C_5  and  C_15
REMARK    4  A    between atoms: N_6  and  C_7
REMARK    5  A    between atoms: C_18  and  O_32
REMARK    6  A    between atoms: N_22  and  C_25
REMARK                            x       y       z     vdW  Elec       q    Type
REMARK                         _______ _______ _______ _____ _____    ______ ____
ROOT
ATOM      1  C   UNL     1      -0.950  -1.788   0.955  0.00  0.00    +0.028 C 
ATOM      2  C   UNL     1      -0.983  -2.524  -0.223  0.00  0.00    +0.097 C 
ATOM      3  C   UNL     1      -2.252  -2.869  -0.878  0.00  0.00    +0.218 C 
ATOM      4  N   UNL     1      -2.214  -3.572  -1.998  0.00  0.00    -0.127 NA
ATOM      5  C   UNL     1      -1.067  -3.972  -2.542  0.00  0.00    +0.340 C 
ATOM      6  O   UNL     1      -1.114  -4.616  -3.575  0.00  0.00    -0.250 OA
ATOM      7  N   UNL     1       0.136  -3.703  -2.016  0.00  0.00    -0.188 N 
ATOM      8  C   UNL     1       0.255  -2.989  -0.876  0.00  0.00    +0.263 C 
ATOM      9  O   UNL     1       1.348  -2.741  -0.400  0.00  0.00    -0.269 OA
ENDROOT
BRANCH   1  13
ATOM     10  C   UNL     1       3.442  -2.806   3.223  0.00  0.00    +0.064 C 
ATOM     11  C   UNL     1       2.224  -2.109   2.674  0.00  0.00    +0.022 A 
ATOM     12  C   UNL     1       1.226  -2.703   2.000  0.00  0.00    +0.031 A 
ATOM     13  C   UNL     1       0.263  -1.643   1.664  0.00  0.00    -0.003 A 
ATOM     14  C   UNL     1       0.793  -0.471   2.187  0.00  0.00    +0.028 A 
ATOM     15  N   UNL     1       1.961  -0.771   2.784  0.00  0.00    -0.317 N 
ATOM     16  C   UNL     1       0.171   0.899   2.096  0.00  0.00    +0.064 C 
BRANCH  15  17
ATOM     17  C   UNL     1       2.791   0.157   3.428  0.00  0.00    +0.048 A 
ATOM     18  C   UNL     1       3.005   0.066   4.797  0.00  0.00    +0.027 A 
ATOM     19  C   UNL     1       3.824   0.981   5.429  0.00  0.00    +0.023 A 
ATOM     20  C   UNL     1       4.431   1.988   4.700  0.00  0.00    +0.059 A 
ATOM     21  C   UNL     1       4.218   2.082   3.335  0.00  0.00    +0.061 A 
ATOM     22  C   UNL     1       3.405   1.165   2.697  0.00  0.00    +0.047 A 
ATOM     23 CL   UNL     1       4.981   3.347   2.423  0.00  0.00    -0.082 Cl
ATOM     24 CL   UNL     1       5.459   3.137   5.498  0.00  0.00    -0.082 Cl
ENDBRANCH  15  17
ENDBRANCH   1  13
BRANCH   7  25
ATOM     25  C   UNL     1       1.290  -4.166  -2.662  0.00  0.00    +0.046 A 
ATOM     26  C   UNL     1       1.927  -3.369  -3.604  0.00  0.00    +0.025 A 
ATOM     27  C   UNL     1       3.067  -3.826  -4.236  0.00  0.00    +0.022 A 
ATOM     28  C   UNL     1       3.568  -5.081  -3.940  0.00  0.00    +0.041 A 
ATOM     29  C   UNL     1       2.932  -5.880  -3.006  0.00  0.00    +0.022 A 
ATOM     30  C   UNL     1       1.795  -5.425  -2.367  0.00  0.00    +0.025 A 
ATOM     31 CL   UNL     1       4.997  -5.655  -4.742  0.00  0.00    -0.084 Cl
ENDBRANCH   7  25
BRANCH   3  32
ATOM     32  O   UNL     1      -3.431  -2.478  -0.349  0.00  0.00    -0.493 OA
ATOM     33  H   UNL     1      -4.203  -2.758  -0.859  0.00  0.00    +0.294 HD
ENDBRANCH   3  32
TORSDOF 4
