REMARK  Name = ZINC09934078
REMARK  7 active torsions:
REMARK  status: ('A' for Active; 'I' for Inactive)
REMARK    1  A    between atoms: C_6  and  C_7
REMARK    2  A    between atoms: C_7  and  C_8
REMARK    3  A    between atoms: C_8  and  C_9
REMARK    4  A    between atoms: C_14  and  N_67
REMARK    5  A    between atoms: N_19  and  C_22
REMARK    6  A    between atoms: C_22  and  C_23
REMARK    7  A    between atoms: C_26  and  N_29
REMARK                            x       y       z     vdW  Elec       q    Type
REMARK                         _______ _______ _______ _____ _____    ______ ____
ROOT
ATOM      1  C   UNL     1       1.199   2.144   0.005  0.00  0.00    +0.029 C 
ATOM      2  C   UNL     1       0.589   3.561   0.012  0.00  0.00    +0.090 C 
ATOM      3  C   UNL     1      -0.902   3.305   0.023  0.00  0.00    +0.221 C 
ATOM      4  O   UNL     1      -1.762   4.160   0.030  0.00  0.00    -0.275 OA
ATOM      5  N   UNL     1      -1.123   1.984   0.018  0.00  0.00    -0.239 N 
ATOM      6  C   UNL     1      -0.012   1.237   0.013  0.00  0.00    +0.209 C 
ATOM      7  O   UNL     1       0.018   0.025   0.011  0.00  0.00    -0.277 OA
ENDROOT
BRANCH   1  13
ATOM      8  C   UNL     1       2.738   0.687  -3.708  0.00  0.00    -0.014 C 
ATOM      9  C   UNL     1       3.531   0.453  -2.420  0.00  0.00    -0.015 C 
ATOM     10  C   UNL     1       2.593   0.588  -1.218  0.00  0.00    -0.077 C 
ATOM     11  C   UNL     1       1.192   2.161  -2.416  0.00  0.00    -0.077 C 
ATOM     12  C   UNL     1       2.087   2.072  -3.653  0.00  0.00    -0.015 C 
ATOM     13  N   UNL     1       2.019   1.950  -1.208  0.00  0.00    +0.388 N 
ATOM     14  H   UNL     1       2.784   2.635  -1.206  0.00  0.00    -0.081 HD
BRANCH   8  15
ATOM     15  C   UNL     1       3.682   0.612  -4.910  0.00  0.00    +0.008 C 
BRANCH  15  16
ATOM     16  C   UNL     1       2.871   0.722  -6.203  0.00  0.00    +0.035 C 
BRANCH  16  22
ATOM     17  C   UNL     1       4.347   1.804  -7.910  0.00  0.00    +0.005 A 
ATOM     18  C   UNL     1       5.204   1.736  -8.992  0.00  0.00    +0.020 A 
ATOM     19  C   UNL     1       5.506   0.511  -9.559  0.00  0.00    +0.041 A 
ATOM     20  C   UNL     1       4.954  -0.646  -9.039  0.00  0.00    +0.020 A 
ATOM     21  C   UNL     1       4.102  -0.578  -7.953  0.00  0.00    +0.005 A 
ATOM     22  C   UNL     1       3.800   0.647  -7.387  0.00  0.00    -0.047 A 
ATOM     23 CL   UNL     1       6.577   0.425 -10.922  0.00  0.00    -0.084 Cl
ENDBRANCH  16  22
ENDBRANCH  15  16
ENDBRANCH   8  15
ENDBRANCH   1  13
BRANCH   5  24
ATOM     24  C   UNL     1      -2.468   1.405   0.021  0.00  0.00    +0.151 C 
BRANCH  24  25
ATOM     25  C   UNL     1      -2.926   1.205   1.442  0.00  0.00    -0.030 A 
ATOM     26  C   UNL     1      -2.666   0.010   2.089  0.00  0.00    +0.007 A 
ATOM     27  C   UNL     1      -3.080  -0.175   3.393  0.00  0.00    +0.024 A 
ATOM     28  C   UNL     1      -3.767   0.836   4.052  0.00  0.00    +0.036 A 
ATOM     29  C   UNL     1      -4.030   2.033   3.399  0.00  0.00    +0.024 A 
ATOM     30  C   UNL     1      -3.609   2.214   2.096  0.00  0.00    +0.007 A 
BRANCH  28  31
ATOM     31  N   UNL     1      -4.192   0.650   5.372  0.00  0.00    -0.271 N 
ATOM     32  C   UNL     1      -4.077  -0.615   6.109  0.00  0.00    +0.114 C 
ATOM     33  C   UNL     1      -4.248  -0.238   7.599  0.00  0.00    +0.029 C 
ATOM     34  C   UNL     1      -5.085   1.058   7.501  0.00  0.00    +0.098 C 
ATOM     35  C   UNL     1      -4.763   1.604   6.127  0.00  0.00    +0.220 C 
ATOM     36  O   UNL     1      -4.988   2.738   5.760  0.00  0.00    -0.275 OA
ENDBRANCH  28  31
ENDBRANCH  24  25
ENDBRANCH   5  24
TORSDOF 7
