REMARK  Name = ZINC05993065
REMARK  6 active torsions:
REMARK  status: ('A' for Active; 'I' for Inactive)
REMARK    1  A    between atoms: C_1  and  C_2
REMARK    2  A    between atoms: C_5  and  S_8
REMARK    3  A    between atoms: N_6  and  N_7
REMARK    4  A    between atoms: S_8  and  C_9
REMARK    5  A    between atoms: C_9  and  C_10
REMARK    6  A    between atoms: N_15  and  C_16
REMARK                            x       y       z     vdW  Elec       q    Type
REMARK                         _______ _______ _______ _____ _____    ______ ____
ROOT
ATOM      1  C   UNL     1       4.518  -2.924  -0.057  0.00  0.00    +0.231 C 
ATOM      2  O   UNL     1       3.931  -3.984  -0.057  0.00  0.00    -0.274 OA
ATOM      3  N   UNL     1       5.866  -2.900  -0.070  0.00  0.00    -0.239 N 
ATOM      4  C   UNL     1       6.560  -4.055  -0.082  0.00  0.00    +0.306 C 
ATOM      5  O   UNL     1       5.971  -5.118  -0.082  0.00  0.00    -0.252 OA
ATOM      6  N   UNL     1       7.908  -4.031  -0.095  0.00  0.00    -0.294 N 
ATOM      7  H   UNL     1       6.336  -2.051  -0.070  0.00  0.00    +0.159 HD
ATOM      8  H   UNL     1       8.378  -3.182  -0.095  0.00  0.00    +0.151 HD
ENDROOT
BRANCH   6   9
ATOM      9  C   UNL     1       8.662  -5.286  -0.109  0.00  0.00    +0.037 C 
ATOM     10  C   UNL     1       8.319  -6.102   1.139  0.00  0.00    +0.029 C 
ATOM     11  C   UNL     1       9.107  -7.413   1.125  0.00  0.00    -0.008 C 
ATOM     12  C   UNL     1      10.607  -7.106   1.112  0.00  0.00    +0.007 C 
ATOM     13  C   UNL     1      10.950  -6.291  -0.136  0.00  0.00    -0.008 C 
ATOM     14  C   UNL     1      10.162  -4.980  -0.122  0.00  0.00    +0.029 C 
ATOM     15  C   UNL     1      10.583  -7.093  -1.386  0.00  0.00    +0.007 C 
ATOM     16  C   UNL     1       9.084  -7.399  -1.374  0.00  0.00    -0.008 C 
ATOM     17  C   UNL     1       8.740  -8.215  -0.126  0.00  0.00    +0.007 C 
ATOM     18  C   UNL     1       8.295  -6.088  -1.359  0.00  0.00    +0.029 C 
ENDBRANCH   6   9
BRANCH   1  19
ATOM     19  C   UNL     1       3.742  -1.632  -0.042  0.00  0.00    +0.173 C 
BRANCH  19  20
ATOM     20  S   UNL     1       1.968  -1.995  -0.027  0.00  0.00    -0.075 S 
BRANCH  20  25
ATOM     21  C   UNL     1      -1.242   2.240   0.020  0.00  0.00    +0.090 C 
ATOM     22  C   UNL     1      -0.017   1.363   0.009  0.00  0.00    +0.148 A 
ATOM     23  N   UNL     1       1.222   1.768  -0.000  0.00  0.00    -0.132 NA
ATOM     24  N   UNL     1       2.016   0.758  -0.013  0.00  0.00    -0.121 NA
ATOM     25  C   UNL     1       1.321  -0.356  -0.013  0.00  0.00    +0.209 A 
ATOM     26  N   UNL     1       0.002  -0.004   0.002  0.00  0.00    -0.228 N 
BRANCH  26  27
ATOM     27  N   UNL     1      -1.075  -0.844   0.008  0.00  0.00    -0.295 N 
ATOM     28  H   UNL     1      -1.370  -1.061  -0.932  0.00  0.00    +0.163 HD
ATOM     29  H   UNL     1      -0.875  -1.685   0.528  0.00  0.00    +0.163 HD
ENDBRANCH  26  27
ENDBRANCH  20  25
ENDBRANCH  19  20
ENDBRANCH   1  19
TORSDOF 5
