REMARK  Name = ZINC39535000
REMARK  7 active torsions:
REMARK  status: ('A' for Active; 'I' for Inactive)
REMARK    1  A    between atoms: C_1  and  C_2
REMARK    2  A    between atoms: C_8  and  N_10
REMARK    3  A    between atoms: C_14  and  C_16
REMARK    4  A    between atoms: C_16  and  N_17
REMARK    5  A    between atoms: C_20  and  C_24
REMARK    6  A    between atoms: C_20  and  C_31
REMARK    7  A    between atoms: C_24  and  C_25
REMARK                            x       y       z     vdW  Elec       q    Type
REMARK                         _______ _______ _______ _____ _____    ______ ____
ROOT
ATOM      1  N   UNL     1       6.665   1.296   4.896  0.00  0.00    -0.215 N 
ATOM      2  C   UNL     1       6.542   2.361   5.713  0.00  0.00    +0.252 C 
ATOM      3  O   UNL     1       6.006   3.419   5.462  0.00  0.00    -0.272 OA
ATOM      4  C   UNL     1       7.212   1.960   7.013  0.00  0.00    +0.142 C 
ATOM      5  N   UNL     1       7.678   0.587   6.753  0.00  0.00    -0.281 N 
ATOM      6  C   UNL     1       7.308   0.287   5.495  0.00  0.00    +0.310 C 
ATOM      7  O   UNL     1       7.536  -0.780   4.960  0.00  0.00    -0.252 OA
ATOM      8  H   UNL     1       8.156   0.011   7.369  0.00  0.00    +0.152 HD
ENDROOT
BRANCH   4   9
ATOM      9  C   UNL     1       6.220   1.977   8.148  0.00  0.00    -0.015 A 
ATOM     10  C   UNL     1       6.039   3.129   8.890  0.00  0.00    +0.006 A 
ATOM     11  C   UNL     1       5.130   3.145   9.931  0.00  0.00    +0.000 A 
ATOM     12  C   UNL     1       4.401   2.009  10.229  0.00  0.00    +0.000 A 
ATOM     13  C   UNL     1       4.582   0.857   9.486  0.00  0.00    +0.000 A 
ATOM     14  C   UNL     1       5.488   0.842   8.443  0.00  0.00    +0.006 A 
ENDBRANCH   4   9
BRANCH   1  15
ATOM     15  C   UNL     1       6.152   1.247   3.525  0.00  0.00    +0.214 C 
BRANCH  15  20
ATOM     16  N   UNL     1       2.116  -0.004   1.231  0.00  0.00    -0.296 N 
ATOM     17  C   UNL     1       2.795   0.128   2.388  0.00  0.00    +0.306 C 
ATOM     18  O   UNL     1       2.267  -0.174   3.440  0.00  0.00    -0.252 OA
ATOM     19  N   UNL     1       4.059   0.594   2.379  0.00  0.00    -0.239 N 
ATOM     20  C   UNL     1       4.738   0.726   3.536  0.00  0.00    +0.238 C 
ATOM     21  O   UNL     1       4.211   0.424   4.585  0.00  0.00    -0.274 OA
ATOM     22  H   UNL     1       2.538   0.237   0.392  0.00  0.00    +0.151 HD
ATOM     23  H   UNL     1       4.481   0.835   1.539  0.00  0.00    +0.159 HD
BRANCH  16  30
ATOM     24  C   UNL     1      -0.019   1.526   0.010  0.00  0.00    +0.009 C 
ATOM     25  C   UNL     1       0.002  -0.004   0.002  0.00  0.00    +0.006 C 
ATOM     26  C   UNL     1      -1.433  -0.534   0.013  0.00  0.00    +0.005 C 
ATOM     27  C   UNL     1      -1.413  -2.063   0.004  0.00  0.00    +0.000 C 
ATOM     28  C   UNL     1      -0.673  -2.570   1.244  0.00  0.00    +0.002 C 
ATOM     29  C   UNL     1       0.763  -2.041   1.233  0.00  0.00    +0.022 C 
ATOM     30  C   UNL     1       0.742  -0.511   1.242  0.00  0.00    +0.077 C 
ENDBRANCH  16  30
ENDBRANCH  15  20
ENDBRANCH   1  15
BRANCH   4  31
ATOM     31  C   UNL     1       8.394   2.882   7.315  0.00  0.00    +0.075 C 
BRANCH  31  32
ATOM     32  C   UNL     1       9.393   2.803   6.190  0.00  0.00    -0.045 A 
ATOM     33  C   UNL     1      10.407   1.864   6.230  0.00  0.00    +0.004 A 
ATOM     34  C   UNL     1      11.323   1.792   5.197  0.00  0.00    +0.000 A 
ATOM     35  C   UNL     1      11.226   2.659   4.125  0.00  0.00    +0.000 A 
ATOM     36  C   UNL     1      10.212   3.598   4.085  0.00  0.00    +0.000 A 
ATOM     37  C   UNL     1       9.293   3.667   5.115  0.00  0.00    +0.004 A 
ENDBRANCH  31  32
ENDBRANCH   4  31
TORSDOF 6
