REMARK  Name = ZINC36005535
REMARK  12 active torsions:
REMARK  status: ('A' for Active; 'I' for Inactive)
REMARK    1  A    between atoms: C_1  and  C_2
REMARK    2  A    between atoms: C_2  and  N_3
REMARK    3  A    between atoms: N_9  and  C_14
REMARK    4  A    between atoms: C_11  and  C_13
REMARK    5  A    between atoms: C_14  and  C_15
REMARK    6  A    between atoms: C_16  and  C_34
REMARK    7  A    between atoms: C_17  and  C_24
REMARK    8  A    between atoms: N_22  and  C_23
REMARK    9  A    between atoms: C_29  and  C_30
REMARK   10  A    between atoms: C_34  and  O_36
REMARK   11  A    between atoms: O_36  and  C_37
REMARK   12  A    between atoms: C_37  and  C_38
REMARK                            x       y       z     vdW  Elec       q    Type
REMARK                         _______ _______ _______ _____ _____    ______ ____
ROOT
ATOM      1  C   UNL     1       2.088  -2.551  -8.395  0.00  0.00    +0.041 C 
ATOM      2  C   UNL     1       3.191  -2.617  -9.171  0.00  0.00    +0.080 C 
ATOM      3  C   UNL     1       3.985  -1.343  -9.379  0.00  0.00    +0.144 C 
ATOM      4  N   UNL     1       3.485  -0.129  -8.712  0.00  0.00    -0.288 N 
ATOM      5  C   UNL     1       2.366  -0.221  -7.967  0.00  0.00    +0.307 C 
ATOM      6  O   UNL     1       1.945   0.775  -7.412  0.00  0.00    -0.252 OA
ATOM      7  N   UNL     1       1.699  -1.374  -7.822  0.00  0.00    -0.260 N 
ATOM      8  C   UNL     1       0.489  -1.373  -6.996  0.00  0.00    +0.139 C 
ATOM      9  H   UNL     1       3.950   0.717  -8.807  0.00  0.00    +0.151 HD
ENDROOT
BRANCH   3  10
ATOM     10  C   UNL     1       5.392  -1.590  -8.899  0.00  0.00    -0.011 A 
ATOM     11  C   UNL     1       5.658  -1.663  -7.545  0.00  0.00    +0.006 A 
ATOM     12  C   UNL     1       6.949  -1.889  -7.105  0.00  0.00    +0.000 A 
ATOM     13  C   UNL     1       7.974  -2.042  -8.019  0.00  0.00    +0.001 A 
ATOM     14  C   UNL     1       7.708  -1.971  -9.374  0.00  0.00    +0.013 A 
ATOM     15  C   UNL     1       6.416  -1.749  -9.814  0.00  0.00    +0.060 A 
BRANCH  15  16
ATOM     16  C   UNL     1       6.125  -1.676 -11.291  0.00  0.00    +0.418 C 
ATOM     17  F   UNL     1       7.318  -1.819 -12.008  0.00  0.00    -0.166 F 
ATOM     18  F   UNL     1       5.242  -2.702 -11.643  0.00  0.00    -0.166 F 
ATOM     19  F   UNL     1       5.546  -0.438 -11.591  0.00  0.00    -0.166 F 
ENDBRANCH  15  16
ENDBRANCH   3  10
BRANCH   2  20
ATOM     20  C   UNL     1       3.591  -3.834  -9.770  0.00  0.00    +0.339 C 
ATOM     21  O   UNL     1       3.352  -4.042 -10.945  0.00  0.00    -0.245 OA
BRANCH  20  22
ATOM     22  O   UNL     1       4.239  -4.765  -9.039  0.00  0.00    -0.462 OA
BRANCH  22  23
ATOM     23  C   UNL     1       4.713  -5.921  -9.732  0.00  0.00    +0.229 C 
ATOM     24  C   UNL     1       5.312  -6.908  -8.728  0.00  0.00    +0.048 C 
ENDBRANCH  22  23
ENDBRANCH  20  22
ENDBRANCH   2  20
BRANCH   1  25
ATOM     25  C   UNL     1       1.269  -3.794  -8.162  0.00  0.00    +0.136 C 
BRANCH  25  32
ATOM     26  N   UNL     1      -3.205  -4.846 -12.220  0.00  0.00    -0.299 N 
ATOM     27  C   UNL     1      -3.310  -4.845 -10.877  0.00  0.00    +0.303 C 
ATOM     28  O   UNL     1      -4.209  -5.461 -10.337  0.00  0.00    -0.253 OA
ATOM     29  N   UNL     1      -2.419  -4.162 -10.131  0.00  0.00    -0.280 N 
ATOM     30  C   UNL     1      -1.408  -3.302 -10.763  0.00  0.00    +0.125 C 
ATOM     31  C   UNL     1      -0.032  -3.675 -10.201  0.00  0.00    +0.104 C 
ATOM     32  N   UNL     1      -0.072  -3.612  -8.734  0.00  0.00    -0.294 NA
ATOM     33  C   UNL     1      -1.017  -4.593  -8.184  0.00  0.00    +0.107 C 
ATOM     34  C   UNL     1      -2.437  -4.253  -8.663  0.00  0.00    +0.088 C 
ATOM     35  C   UNL     1      -3.406  -5.354  -8.227  0.00  0.00    +0.029 C 
ATOM     36  H   UNL     1      -2.540  -4.288 -12.655  0.00  0.00    +0.150 HD
BRANCH  26  38
ATOM     37  C   UNL     1      -3.767  -5.503 -14.508  0.00  0.00    +0.024 C 
ATOM     38  C   UNL     1      -4.093  -5.688 -13.025  0.00  0.00    +0.102 C 
ENDBRANCH  26  38
ENDBRANCH  25  32
ENDBRANCH   1  25
TORSDOF 8
