REMARK  Name = ZINC65675064
REMARK  9 active torsions:
REMARK  status: ('A' for Active; 'I' for Inactive)
REMARK    1  A    between atoms: C_1  and  C_2
REMARK    2  A    between atoms: C_3  and  C_13
REMARK    3  A    between atoms: C_4  and  C_12
REMARK    4  A    between atoms: C_13  and  C_14
REMARK    5  A    between atoms: N_16  and  C_17
REMARK    6  A    between atoms: C_17  and  C_18
REMARK    7  A    between atoms: C_17  and  C_19
REMARK    8  A    between atoms: C_19  and  N_20
REMARK    9  A    between atoms: C_24  and  C_26
REMARK                            x       y       z     vdW  Elec       q    Type
REMARK                         _______ _______ _______ _____ _____    ______ ____
ROOT
ATOM      1  C   UNL     1      -3.263  -0.203  -0.353  0.00  0.00    +0.134 C 
ENDROOT
BRANCH   1   4
ATOM      2  C   UNL     1      -0.646   1.006  -0.768  0.00  0.00    +0.066 C 
ATOM      3  C   UNL     1      -0.791  -0.494  -0.764  0.00  0.00    +0.047 A 
ATOM      4  C   UNL     1      -2.050  -1.072  -0.564  0.00  0.00    +0.004 A 
ATOM      5  C   UNL     1      -2.165  -2.426  -0.563  0.00  0.00    +0.049 A 
ATOM      6  N   UNL     1      -1.054  -3.183  -0.756  0.00  0.00    -0.199 N 
ATOM      7  C   UNL     1       0.161  -2.587  -0.948  0.00  0.00    +0.255 A 
ATOM      8  N   UNL     1       0.265  -1.253  -0.953  0.00  0.00    -0.216 NA
ATOM      9  N   UNL     1       1.056  -3.556  -1.107  0.00  0.00    -0.176 NA
ATOM     10  C   UNL     1       0.456  -4.741  -1.023  0.00  0.00    +0.234 A 
ATOM     11  N   UNL     1      -0.832  -4.565  -0.809  0.00  0.00    -0.128 NA
ATOM     12  N   UNL     1       1.090  -5.974  -1.143  0.00  0.00    -0.326 N 
ATOM     13  C   UNL     1      -3.507  -3.078  -0.350  0.00  0.00    +0.066 C 
ATOM     14  H   UNL     1       2.047  -6.014  -1.300  0.00  0.00    +0.145 HD
ATOM     15  H   UNL     1       0.576  -6.793  -1.069  0.00  0.00    +0.145 HD
ENDBRANCH   1   4
BRANCH   1  16
ATOM     16  C   UNL     1      -3.366   0.169   1.104  0.00  0.00    +0.218 C 
ATOM     17  O   UNL     1      -2.537  -0.232   1.893  0.00  0.00    -0.275 OA
ATOM     18  N   UNL     1      -4.381   0.947   1.530  0.00  0.00    -0.314 N 
ATOM     19  H   UNL     1      -5.044   1.268   0.899  0.00  0.00    +0.149 HD
BRANCH  18  20
ATOM     20  C   UNL     1      -4.481   1.309   2.946  0.00  0.00    +0.053 C 
ATOM     21  C   UNL     1      -5.242   0.215   3.699  0.00  0.00    +0.026 C 
BRANCH  20  22
ATOM     22  C   UNL     1      -5.230   2.636   3.082  0.00  0.00    -0.057 C 
BRANCH  22  23
ATOM     23  N   UNL     1      -4.543   3.669   2.294  0.00  0.00    +0.381 N 
ATOM     24  C   UNL     1      -5.343   4.899   2.300  0.00  0.00    -0.079 C 
ATOM     25  C   UNL     1      -4.673   5.952   1.415  0.00  0.00    -0.018 C 
ATOM     26  C   UNL     1      -3.272   6.250   1.956  0.00  0.00    -0.001 C 
ATOM     27  C   UNL     1      -2.471   4.946   2.016  0.00  0.00    -0.031 C 
ATOM     28  C   UNL     1      -3.223   3.930   2.879  0.00  0.00    -0.076 C 
ATOM     29  C   UNL     1      -1.096   5.218   2.629  0.00  0.00    +0.005 C 
ATOM     30  H   UNL     1      -4.432   3.347   1.344  0.00  0.00    -0.082 HD
ENDBRANCH  22  23
ENDBRANCH  20  22
ENDBRANCH  18  20
ENDBRANCH   1  16
TORSDOF 5
