REMARK  Name = ZINC05042765
REMARK  4 active torsions:
REMARK  status: ('A' for Active; 'I' for Inactive)
REMARK    1  A    between atoms: C_1  and  C_2
REMARK    2  A    between atoms: C_9  and  N_23
REMARK    3  A    between atoms: C_10  and  C_21
REMARK    4  A    between atoms: C_11  and  C_13
REMARK                            x       y       z     vdW  Elec       q    Type
REMARK                         _______ _______ _______ _____ _____    ______ ____
ROOT
ATOM      1  C   UNL     1      -0.018   1.503   0.010  0.00  0.00    +0.065 C 
ATOM      2  C   UNL     1       0.002  -0.004   0.002  0.00  0.00    +0.041 A 
ATOM      3  C   UNL     1       0.008  -0.790  -1.085  0.00  0.00    +0.049 A 
ATOM      4  C   UNL     1       0.030  -2.135  -0.654  0.00  0.00    +0.245 A 
ATOM      5  N   UNL     1       0.036  -2.141   0.647  0.00  0.00    -0.135 NA
ATOM      6  N   UNL     1       0.024  -0.809   1.090  0.00  0.00    -0.278 N 
ATOM      7  H   UNL     1       0.028  -0.516   2.015  0.00  0.00    +0.189 HD
ATOM      8  O   UNL     1       0.045  -3.173  -1.533  0.00  0.00    -0.421 OA
ATOM      9  C   UNL     1       0.309  -2.890  -2.824  0.00  0.00    +0.201 C 
ATOM     10  C   UNL     1       0.305  -1.648  -3.351  0.00  0.00    +0.098 C 
ATOM     11  C   UNL     1      -0.006  -0.413  -2.545  0.00  0.00    +0.104 C 
ENDROOT
BRANCH  11  12
ATOM     12  C   UNL     1      -1.368   0.111  -2.922  0.00  0.00    +0.001 A 
ATOM     13  C   UNL     1      -2.483  -0.692  -2.772  0.00  0.00    +0.008 A 
ATOM     14  C   UNL     1      -3.732  -0.211  -3.118  0.00  0.00    +0.016 A 
ATOM     15  C   UNL     1      -3.868   1.073  -3.613  0.00  0.00    +0.021 A 
ATOM     16  C   UNL     1      -2.753   1.877  -3.764  0.00  0.00    +0.054 A 
ATOM     17  C   UNL     1      -1.502   1.399  -3.412  0.00  0.00    +0.129 A 
ATOM     18  F   UNL     1      -0.413   2.186  -3.553  0.00  0.00    -0.205 F 
ATOM     19 BR   UNL     1      -5.577   1.729  -4.086  0.00  0.00    -0.050 Br
ENDBRANCH  11  12
BRANCH   9  20
ATOM     20  N   UNL     1       0.604  -3.938  -3.660  0.00  0.00    -0.328 N 
ATOM     21  H   UNL     1       0.617  -4.845  -3.315  0.00  0.00    +0.145 HD
ATOM     22  H   UNL     1       0.800  -3.772  -4.595  0.00  0.00    +0.145 HD
ENDBRANCH   9  20
BRANCH  10  23
ATOM     23  C   UNL     1       0.611  -1.496  -4.742  0.00  0.00    +0.101 C 
ATOM     24  N   UNL     1       0.853  -1.376  -5.846  0.00  0.00    -0.191 NA
ENDBRANCH  10  23
TORSDOF 3
