REMARK  Name = ZINC05749113
REMARK  3 active torsions:
REMARK  status: ('A' for Active; 'I' for Inactive)
REMARK    1  A    between atoms: C_2  and  C_11
REMARK    2  A    between atoms: C_24  and  N_28
REMARK    3  A    between atoms: C_25  and  C_26
REMARK                            x       y       z     vdW  Elec       q    Type
REMARK                         _______ _______ _______ _____ _____    ______ ____
ROOT
ATOM      1  C   UNL     1       2.486   1.480  -0.008  0.00  0.00    +0.083 C 
ATOM      2  C   UNL     1       2.361   0.018   0.424  0.00  0.00    +0.147 C 
ATOM      3  C   UNL     1       1.228  -0.616  -0.397  0.00  0.00    +0.278 C 
ATOM      4  N   UNL     1       1.222  -2.056  -0.169  0.00  0.00    -0.263 N 
ATOM      5  C   UNL     1       2.379  -2.723  -0.032  0.00  0.00    +0.309 C 
ATOM      6  O   UNL     1       2.358  -3.935   0.066  0.00  0.00    -0.252 OA
ATOM      7  N   UNL     1       3.561  -2.085  -0.006  0.00  0.00    -0.240 N 
ATOM      8  C   UNL     1       3.629  -0.748   0.166  0.00  0.00    +0.230 C 
ATOM      9  O   UNL     1       4.695  -0.174   0.113  0.00  0.00    -0.275 OA
ATOM     10  O   UNL     1       0.002  -0.004   0.002  0.00  0.00    -0.457 OA
ATOM     11  C   UNL     1      -0.016   1.347   0.009  0.00  0.00    +0.194 C 
ATOM     12  C   UNL     1       1.109   2.098   0.003  0.00  0.00    +0.094 C 
ATOM     13  H   UNL     1       0.380  -2.535  -0.108  0.00  0.00    +0.154 HD
ATOM     14  H   UNL     1       4.380  -2.594  -0.114  0.00  0.00    +0.159 HD
ENDROOT
BRANCH   1  16
ATOM     15  C   UNL     1       3.041   2.295   2.292  0.00  0.00    +0.055 A 
ATOM     16  C   UNL     1       3.381   2.219   0.954  0.00  0.00    -0.016 A 
ATOM     17  C   UNL     1       4.543   2.813   0.497  0.00  0.00    +0.048 A 
ATOM     18  C   UNL     1       5.364   3.497   1.376  0.00  0.00    +0.069 A 
ATOM     19  C   UNL     1       5.030   3.577   2.718  0.00  0.00    +0.168 A 
ATOM     20  C   UNL     1       3.862   2.973   3.178  0.00  0.00    +0.167 A 
ATOM     21  O   UNL     1       3.758   3.192   4.522  0.00  0.00    -0.453 OA
ATOM     22  C   UNL     1       5.076   3.583   4.950  0.00  0.00    +0.466 C 
ATOM     23  O   UNL     1       5.657   4.174   3.773  0.00  0.00    -0.453 OA
ATOM     24 CL   UNL     1       4.968   2.708  -1.183  0.00  0.00    -0.083 Cl
ENDBRANCH   1  16
BRANCH  11  25
ATOM     25  N   UNL     1      -1.230   1.986   0.019  0.00  0.00    -0.329 N 
ATOM     26  H   UNL     1      -2.051   1.468   0.020  0.00  0.00    +0.145 HD
ATOM     27  H   UNL     1      -1.269   2.955   0.024  0.00  0.00    +0.145 HD
ENDBRANCH  11  25
BRANCH  12  28
ATOM     28  C   UNL     1       0.990   3.525   0.005  0.00  0.00    +0.100 C 
ATOM     29  N   UNL     1       0.895   4.657   0.008  0.00  0.00    -0.191 NA
ENDBRANCH  12  28
TORSDOF 3
