REMARK  Name = ZINC06199466
REMARK  4 active torsions:
REMARK  status: ('A' for Active; 'I' for Inactive)
REMARK    1  A    between atoms: C_1  and  C_2
REMARK    2  A    between atoms: C_5  and  C_8
REMARK    3  A    between atoms: N_13  and  C_16
REMARK    4  A    between atoms: C_28  and  C_31
REMARK                            x       y       z     vdW  Elec       q    Type
REMARK                         _______ _______ _______ _____ _____    ______ ____
ROOT
ATOM      1  C   UNL     1       2.524   1.832  -0.018  0.00  0.00    +0.093 C 
ATOM      2  C   UNL     1       1.059   2.165   0.004  0.00  0.00    +0.072 A 
ATOM      3  C   UNL     1       0.595   3.501   0.018  0.00  0.00    +0.153 A 
ATOM      4  N   UNL     1      -0.705   3.484   0.027  0.00  0.00    -0.148 NA
ATOM      5  N   UNL     1      -1.127   2.145   0.018  0.00  0.00    -0.195 N 
ATOM      6  C   UNL     1      -0.016   1.353   0.009  0.00  0.00    +0.279 A 
ATOM      7  O   UNL     1       0.002  -0.004   0.002  0.00  0.00    -0.265 OA
ATOM      8  N   UNL     1       1.498   4.568   0.023  0.00  0.00    -0.301 N 
ATOM      9  C   UNL     1       2.812   4.309   0.326  0.00  0.00    +0.017 C 
ATOM     10  C   UNL     1       3.334   3.065   0.321  0.00  0.00    +0.024 C 
ATOM     11  C   UNL     1       4.690   2.852   0.633  0.00  0.00    +0.162 C 
ATOM     12  O   UNL     1       5.127   1.718   0.632  0.00  0.00    -0.292 OA
ATOM     13  C   UNL     1       5.610   3.991   0.969  0.00  0.00    +0.083 C 
ATOM     14  C   UNL     1       5.113   5.254   0.257  0.00  0.00    -0.001 C 
ATOM     15  C   UNL     1       3.666   5.505   0.685  0.00  0.00    +0.055 C 
ATOM     16  C   UNL     1       5.983   6.448   0.655  0.00  0.00    +0.008 C 
ATOM     17  H   UNL     1       1.150   5.584  -0.212  0.00  0.00    +0.153 HD
ENDROOT
BRANCH   1  22
ATOM     18  C   UNL     1       3.989  -0.045  -5.283  0.00  0.00    +0.044 C 
ATOM     19  C   UNL     1       3.608   0.445  -3.910  0.00  0.00    -0.050 A 
ATOM     20  C   UNL     1       3.781  -0.376  -2.811  0.00  0.00    +0.003 A 
ATOM     21  C   UNL     1       3.430   0.073  -1.551  0.00  0.00    +0.005 A 
ATOM     22  C   UNL     1       2.906   1.343  -1.391  0.00  0.00    -0.035 A 
ATOM     23  C   UNL     1       2.728   2.161  -2.491  0.00  0.00    +0.005 A 
ATOM     24  C   UNL     1       3.084   1.714  -3.750  0.00  0.00    +0.003 A 
ENDBRANCH   1  22
BRANCH   5  25
ATOM     25  C   UNL     1      -2.455   1.700   0.021  0.00  0.00    +0.069 A 
ATOM     26  C   UNL     1      -2.806   0.553  -0.679  0.00  0.00    +0.028 A 
ATOM     27  C   UNL     1      -4.116   0.114  -0.671  0.00  0.00    +0.002 A 
ATOM     28  C   UNL     1      -5.079   0.822   0.025  0.00  0.00    +0.000 A 
ATOM     29  C   UNL     1      -4.734   1.968   0.718  0.00  0.00    +0.002 A 
ATOM     30  C   UNL     1      -3.425   2.408   0.718  0.00  0.00    +0.028 A 
ENDBRANCH   5  25
TORSDOF 2
