REMARK  Name = ZINC63515476
REMARK  10 active torsions:
REMARK  status: ('A' for Active; 'I' for Inactive)
REMARK    1  A    between atoms: C_1  and  C_2
REMARK    2  A    between atoms: C_2  and  C_3
REMARK    3  A    between atoms: C_3  and  C_4
REMARK    4  A    between atoms: C_4  and  C_5
REMARK    5  A    between atoms: C_9  and  N_12
REMARK    6  A    between atoms: C_13  and  C_15
REMARK    7  A    between atoms: N_20  and  C_22
REMARK    8  A    between atoms: C_22  and  C_23
REMARK    9  A    between atoms: C_23  and  C_24
REMARK   10  A    between atoms: C_27  and  C_33
REMARK                            x       y       z     vdW  Elec       q    Type
REMARK                         _______ _______ _______ _____ _____    ______ ____
ROOT
ATOM      1  C   UNL     1      -4.751  -6.145  -4.851  0.00  0.00    +0.101 C 
ATOM      2  C   UNL     1      -5.407  -5.194  -5.880  0.00  0.00    +0.110 C 
ATOM      3  C   UNL     1      -6.015  -6.123  -6.907  0.00  0.00    +0.216 C 
ATOM      4  O   UNL     1      -6.378  -5.790  -8.016  0.00  0.00    -0.276 OA
ATOM      5  N   UNL     1      -6.096  -7.370  -6.413  0.00  0.00    -0.300 N 
ATOM      6  C   UNL     1      -5.580  -7.435  -5.040  0.00  0.00    +0.121 C 
ENDROOT
BRANCH   1   8
ATOM      7  N   UNL     1      -4.303  -4.451  -3.105  0.00  0.00    -0.284 N 
ATOM      8  C   UNL     1      -4.900  -5.609  -3.450  0.00  0.00    +0.220 C 
ATOM      9  O   UNL     1      -5.558  -6.219  -2.634  0.00  0.00    -0.275 OA
ATOM     10  H   UNL     1      -3.777  -3.963  -3.758  0.00  0.00    +0.152 HD
BRANCH   7  14
ATOM     11  C   UNL     1      -2.848  -2.593   0.015  0.00  0.00    +0.188 C 
ATOM     12  N   UNL     1      -2.877  -4.074  -0.005  0.00  0.00    -0.175 NA
ATOM     13  N   UNL     1      -3.590  -4.669  -0.789  0.00  0.00    -0.157 NA
ATOM     14  C   UNL     1      -4.447  -3.930  -1.743  0.00  0.00    +0.275 C 
ATOM     15  S   UNL     1      -3.707  -2.242  -1.583  0.00  0.00    -0.085 S 
BRANCH  11  16
ATOM     16  C   UNL     1      -1.413  -2.063   0.004  0.00  0.00    +0.040 C 
BRANCH  16  17
ATOM     17  C   UNL     1      -1.433  -0.534   0.013  0.00  0.00    +0.003 C 
BRANCH  17  19
ATOM     18  C   UNL     1      -0.019   1.526   0.010  0.00  0.00    +0.004 C 
ATOM     19  C   UNL     1       0.002  -0.004   0.002  0.00  0.00    -0.003 C 
ENDBRANCH  17  19
ENDBRANCH  16  17
ENDBRANCH  11  16
ENDBRANCH   7  14
ENDBRANCH   1   8
BRANCH   5  20
ATOM     20  C   UNL     1      -6.629  -8.519  -7.150  0.00  0.00    +0.112 C 
BRANCH  20  21
ATOM     21  C   UNL     1      -5.495  -9.205  -7.915  0.00  0.00    +0.052 C 
BRANCH  21  22
ATOM     22  C   UNL     1      -6.043 -10.387  -8.673  0.00  0.00    -0.040 C 
ATOM     23  C   UNL     1      -6.437 -10.411  -9.966  0.00  0.00    -0.001 A 
ATOM     24  C   UNL     1      -6.473  -9.383 -11.014  0.00  0.00    +0.013 A 
ATOM     25  C   UNL     1      -6.932  -9.715 -12.242  0.00  0.00    -0.050 A 
ATOM     26  C   UNL     1      -7.373 -11.012 -12.539  0.00  0.00    +0.005 A 
ATOM     27  C   UNL     1      -7.371 -12.009 -11.629  0.00  0.00    +0.026 A 
ATOM     28  C   UNL     1      -6.908 -11.773 -10.305  0.00  0.00    +0.043 A 
ATOM     29  N   UNL     1      -6.809 -12.560  -9.261  0.00  0.00    -0.380 N 
ATOM     30  C   UNL     1      -6.258 -11.787  -8.143  0.00  0.00    +0.144 C 
ATOM     31  C   UNL     1      -6.970  -8.663 -13.320  0.00  0.00    +0.044 C 
ATOM     32  H   UNL     1      -7.056 -13.498  -9.234  0.00  0.00    +0.160 HD
ENDBRANCH  21  22
ENDBRANCH  20  21
ENDBRANCH   5  20
TORSDOF 8
