REMARK  Name = ZINC38608031
REMARK  7 active torsions:
REMARK  status: ('A' for Active; 'I' for Inactive)
REMARK    1  A    between atoms: C_1  and  C_2
REMARK    2  A    between atoms: C_7  and  C_12
REMARK    3  A    between atoms: C_13  and  C_23
REMARK    4  A    between atoms: N_15  and  C_17
REMARK    5  A    between atoms: C_25  and  C_40
REMARK    6  A    between atoms: C_26  and  C_38
REMARK    7  A    between atoms: N_29  and  C_32
REMARK                            x       y       z     vdW  Elec       q    Type
REMARK                         _______ _______ _______ _____ _____    ______ ____
ROOT
ATOM      1  C   UNL     1       6.101  -1.035  -1.463  0.00  0.00    +0.100 A 
ATOM      2  C   UNL     1       7.213  -0.766  -0.538  0.00  0.00    +0.021 A 
ATOM      3  C   UNL     1       8.175  -1.735  -0.798  0.00  0.00    +0.123 A 
ATOM      4  N   UNL     1       7.708  -2.521  -1.780  0.00  0.00    -0.239 N 
ATOM      5  N   UNL     1       6.439  -2.087  -2.173  0.00  0.00    -0.166 NA
ENDROOT
BRANCH   1  11
ATOM      6  C   UNL     1       1.889   3.466  -3.768  0.00  0.00    +0.052 C 
ATOM      7  C   UNL     1       1.278   2.092  -3.487  0.00  0.00    +0.175 C 
ATOM      8  C   UNL     1       2.162   0.968  -4.079  0.00  0.00    +0.083 C 
ATOM      9  C   UNL     1       3.047   0.613  -2.899  0.00  0.00    -0.002 A 
ATOM     10  C   UNL     1       4.220  -0.100  -2.810  0.00  0.00    +0.017 A 
ATOM     11  C   UNL     1       4.837  -0.270  -1.569  0.00  0.00    +0.003 A 
ATOM     12  C   UNL     1       4.255   0.287  -0.430  0.00  0.00    +0.014 A 
ATOM     13  C   UNL     1       3.079   0.996  -0.530  0.00  0.00    +0.046 A 
ATOM     14  C   UNL     1       2.458   1.164  -1.767  0.00  0.00    +0.124 A 
ATOM     15  O   UNL     1       1.294   1.806  -2.078  0.00  0.00    -0.488 OA
ENDBRANCH   1  11
BRANCH   2  16
ATOM     16  C   UNL     1       7.288   0.269   0.419  0.00  0.00    +0.025 C 
ATOM     17  C   UNL     1       8.438   1.051   0.511  0.00  0.00    +0.042 C 
ATOM     18  C   UNL     1       9.321   1.155  -0.586  0.00  0.00    -0.016 C 
ATOM     19  C   UNL     1      10.455   1.943  -0.457  0.00  0.00    +0.117 C 
ATOM     20  C   UNL     1      10.709   2.643   0.805  0.00  0.00    +0.264 C 
ATOM     21  O   UNL     1      11.704   3.335   0.918  0.00  0.00    -0.269 OA
ATOM     22  N   UNL     1       9.857   2.532   1.838  0.00  0.00    -0.230 N 
ATOM     23  C   UNL     1       8.743   1.782   1.749  0.00  0.00    +0.254 C 
ATOM     24  O   UNL     1       7.988   1.706   2.700  0.00  0.00    -0.270 OA
ATOM     25  C   UNL     1       9.037   0.424  -1.873  0.00  0.00    +0.046 C 
BRANCH  22  26
ATOM     26  C   UNL     1      10.143   3.247   3.084  0.00  0.00    +0.085 C 
ATOM     27  C   UNL     1      11.484   2.773   3.647  0.00  0.00    +0.023 C 
ATOM     28  C   UNL     1      11.783   3.520   4.949  0.00  0.00    +0.002 C 
ATOM     29  C   UNL     1      11.849   5.023   4.671  0.00  0.00    +0.000 C 
ATOM     30  C   UNL     1      10.507   5.497   4.108  0.00  0.00    +0.002 C 
ATOM     31  C   UNL     1      10.208   4.750   2.807  0.00  0.00    +0.023 C 
ENDBRANCH  22  26
BRANCH  19  32
ATOM     32  C   UNL     1      11.373   2.071  -1.549  0.00  0.00    +0.105 C 
ATOM     33  N   UNL     1      12.100   2.172  -2.415  0.00  0.00    -0.191 NA
ENDBRANCH  19  32
ENDBRANCH   2  16
BRANCH   4  34
ATOM     34  C   UNL     1       8.387  -3.617  -2.326  0.00  0.00    +0.065 A 
ATOM     35  C   UNL     1       9.644  -3.965  -1.848  0.00  0.00    +0.028 A 
ATOM     36  C   UNL     1      10.312  -5.047  -2.388  0.00  0.00    +0.002 A 
ATOM     37  C   UNL     1       9.730  -5.783  -3.404  0.00  0.00    +0.000 A 
ATOM     38  C   UNL     1       8.479  -5.439  -3.883  0.00  0.00    +0.002 A 
ATOM     39  C   UNL     1       7.804  -4.362  -3.343  0.00  0.00    +0.028 A 
ENDBRANCH   4  34
TORSDOF 5
