REMARK  Name = ZINC04862030
REMARK  9 active torsions:
REMARK  status: ('A' for Active; 'I' for Inactive)
REMARK    1  A    between atoms: C_1  and  C_2
REMARK    2  A    between atoms: C_2  and  C_3
REMARK    3  A    between atoms: C_3  and  C_4
REMARK    4  A    between atoms: C_3  and  C_5
REMARK    5  A    between atoms: C_3  and  N_6
REMARK    6  A    between atoms: C_7  and  C_11
REMARK    7  A    between atoms: C_11  and  C_13
REMARK    8  A    between atoms: C_11  and  N_54
REMARK    9  A    between atoms: C_22  and  C_25
REMARK                            x       y       z     vdW  Elec       q    Type
REMARK                         _______ _______ _______ _____ _____    ______ ____
ROOT
ATOM      1  C   UNL     1       0.968   1.101   2.869  0.00  0.00    +0.033 C 
ENDROOT
BRANCH   1   2
ATOM      2  C   UNL     1       1.868   2.232   3.299  0.00  0.00    -0.054 A 
ATOM      3  C   UNL     1       3.065   2.449   2.643  0.00  0.00    +0.004 A 
ATOM      4  C   UNL     1       3.888   3.489   3.032  0.00  0.00    +0.020 A 
ATOM      5  C   UNL     1       3.518   4.305   4.087  0.00  0.00    +0.041 A 
ATOM      6  C   UNL     1       2.323   4.084   4.746  0.00  0.00    +0.020 A 
ATOM      7  C   UNL     1       1.498   3.047   4.352  0.00  0.00    +0.004 A 
ATOM      8 CL   UNL     1       4.555   5.607   4.582  0.00  0.00    -0.084 Cl
ENDBRANCH   1   2
BRANCH   1  14
ATOM      9  C   UNL     1       1.725  -0.189   4.773  0.00  0.00    -0.077 C 
ATOM     10  C   UNL     1       1.266  -0.862   6.069  0.00  0.00    -0.006 C 
ATOM     11  C   UNL     1       0.305  -2.005   5.732  0.00  0.00    +0.071 C 
ATOM     12  C   UNL     1      -0.878  -1.448   4.936  0.00  0.00    -0.006 C 
ATOM     13  C   UNL     1      -0.358  -0.758   3.673  0.00  0.00    -0.077 C 
ATOM     14  N   UNL     1       0.542   0.347   4.066  0.00  0.00    +0.389 N 
ATOM     15  H   UNL     1       0.036   0.981   4.697  0.00  0.00    -0.080 HD
BRANCH  11  16
ATOM     16  C   UNL     1      -0.197  -2.635   7.006  0.00  0.00    +0.213 C 
ATOM     17  O   UNL     1      -1.384  -2.638   7.254  0.00  0.00    -0.276 OA
ATOM     18  N   UNL     1       0.674  -3.194   7.869  0.00  0.00    -0.329 N 
ATOM     19  H   UNL     1       1.623  -3.191   7.671  0.00  0.00    +0.145 HD
ATOM     20  H   UNL     1       0.351  -3.599   8.689  0.00  0.00    +0.145 HD
ENDBRANCH  11  16
ENDBRANCH   1  14
BRANCH   1  22
ATOM     21  N   UNL     1      -0.610   1.479   0.901  0.00  0.00    -0.225 N 
ATOM     22  C   UNL     1      -0.252   1.663   2.186  0.00  0.00    +0.143 A 
ATOM     23  N   UNL     1      -1.170   2.427   2.726  0.00  0.00    -0.115 NA
ATOM     24  N   UNL     1      -2.049   2.692   1.822  0.00  0.00    -0.023 NA
ATOM     25  N   UNL     1      -1.714   2.120   0.719  0.00  0.00    -0.043 NA
BRANCH  21  26
ATOM     26  C   UNL     1       0.116   0.693  -0.100  0.00  0.00    +0.061 C 
ATOM     27  C   UNL     1       0.203  -0.764   0.360  0.00  0.00    +0.036 C 
ATOM     28  C   UNL     1       1.527   1.259  -0.269  0.00  0.00    +0.036 C 
BRANCH  26  30
ATOM     29  C   UNL     1       0.133  -0.060  -2.482  0.00  0.00    +0.006 C 
ATOM     30  C   UNL     1      -0.625   0.761  -1.437  0.00  0.00    +0.026 C 
ENDBRANCH  26  30
ENDBRANCH  21  26
ENDBRANCH   1  22
TORSDOF 6
