REMARK  Name = ZINC29976680
REMARK  6 active torsions:
REMARK  status: ('A' for Active; 'I' for Inactive)
REMARK    1  A    between atoms: C_5  and  C_7
REMARK    2  A    between atoms: C_7  and  C_9
REMARK    3  A    between atoms: C_7  and  N_28
REMARK    4  A    between atoms: C_9  and  C_10
REMARK    5  A    between atoms: N_15  and  S_18
REMARK    6  A    between atoms: S_18  and  C_21
REMARK                            x       y       z     vdW  Elec       q    Type
REMARK                         _______ _______ _______ _____ _____    ______ ____
ROOT
ATOM      1  C   UNL     1      -0.030   1.192   0.307  0.00  0.00    +0.218 C 
ATOM      2  O   UNL     1      -0.010  -0.017   0.214  0.00  0.00    -0.276 OA
ATOM      3  N   UNL     1       1.121   1.875   0.469  0.00  0.00    -0.299 N 
ATOM      4  C   UNL     1       1.113   3.340   0.577  0.00  0.00    +0.125 C 
ATOM      5  C   UNL     1       1.824   3.735   1.883  0.00  0.00    +0.128 C 
ATOM      6  N   UNL     1       3.110   3.027   1.948  0.00  0.00    -0.174 NA
ATOM      7  C   UNL     1       3.118   1.562   1.835  0.00  0.00    +0.128 C 
ATOM      8  C   UNL     1       2.407   1.167   0.535  0.00  0.00    +0.125 C 
ENDROOT
BRANCH   6   9
ATOM      9  S   UNL     1       4.524   3.865   2.146  0.00  0.00    +0.064 S 
ATOM     10  O   UNL     1       4.183   5.098   2.765  0.00  0.00    -0.153 OA
ATOM     11  O   UNL     1       5.457   2.958   2.717  0.00  0.00    -0.153 OA
BRANCH   9  12
ATOM     12  C   UNL     1       5.125   4.259   0.537  0.00  0.00    +0.140 A 
ATOM     13  C   UNL     1       5.200   5.578   0.131  0.00  0.00    +0.031 A 
ATOM     14  C   UNL     1       5.676   5.888  -1.129  0.00  0.00    +0.002 A 
ATOM     15  C   UNL     1       6.069   4.879  -1.988  0.00  0.00    +0.003 A 
ATOM     16  C   UNL     1       5.990   3.559  -1.586  0.00  0.00    +0.040 A 
ATOM     17  C   UNL     1       5.518   3.248  -0.322  0.00  0.00    +0.150 A 
ATOM     18  F   UNL     1       5.440   1.958   0.072  0.00  0.00    -0.203 F 
ENDBRANCH   9  12
ENDBRANCH   6   9
BRANCH   1  19
ATOM     19  C   UNL     1      -1.341   1.932   0.236  0.00  0.00    +0.123 C 
BRANCH  19  20
ATOM     20  C   UNL     1      -2.482   0.931   0.044  0.00  0.00    +0.116 C 
BRANCH  20  25
ATOM     21  C   UNL     1      -5.039   3.708  -0.028  0.00  0.00    +0.000 A 
ATOM     22  C   UNL     1      -6.154   3.046  -0.508  0.00  0.00    +0.003 A 
ATOM     23  C   UNL     1      -6.082   1.700  -0.808  0.00  0.00    +0.039 A 
ATOM     24  C   UNL     1      -4.892   1.014  -0.635  0.00  0.00    +0.128 A 
ATOM     25  C   UNL     1      -3.777   1.677  -0.150  0.00  0.00    +0.008 A 
ATOM     26  C   UNL     1      -3.851   3.024   0.150  0.00  0.00    +0.008 A 
ATOM     27  F   UNL     1      -4.819  -0.301  -0.934  0.00  0.00    -0.205 F 
ENDBRANCH  20  25
BRANCH  20  28
ATOM     28  N   UNL     1      -2.584   0.075   1.229  0.00  0.00    -0.292 N 
ATOM     29  C   UNL     1      -2.889   0.615   2.426  0.00  0.00    +0.298 C 
ATOM     30  O   UNL     1      -3.169   1.795   2.507  0.00  0.00    -0.253 OA
ATOM     31  N   UNL     1      -2.884  -0.155   3.533  0.00  0.00    -0.313 N 
ATOM     32  H   UNL     1      -2.413  -1.008   1.141  0.00  0.00    +0.151 HD
ATOM     33  H   UNL     1      -3.132   0.286   4.509  0.00  0.00    +0.146 HD
ATOM     34  H   UNL     1      -2.630  -1.222   3.459  0.00  0.00    +0.146 HD
ENDBRANCH  20  28
ENDBRANCH  19  20
ENDBRANCH   1  19
TORSDOF 6
