REMARK  Name = ZINC00855827
REMARK  6 active torsions:
REMARK  status: ('A' for Active; 'I' for Inactive)
REMARK    1  A    between atoms: C_4  and  C_7
REMARK    2  A    between atoms: N_9  and  C_10
REMARK    3  A    between atoms: C_10  and  C_12
REMARK    4  A    between atoms: C_10  and  C_21
REMARK    5  A    between atoms: C_15  and  N_18
REMARK    6  A    between atoms: C_30  and  O_31
REMARK                            x       y       z     vdW  Elec       q    Type
REMARK                         _______ _______ _______ _____ _____    ______ ____
ROOT
ATOM      1  C   UNL     1      -1.423   5.995   0.045  0.00  0.00    +0.138 C 
ENDROOT
BRANCH   1   2
ATOM      2  C   UNL     1      -0.112   5.253   0.029  0.00  0.00    +0.026 A 
ATOM      3  C   UNL     1      -0.095   3.849   0.023  0.00  0.00    -0.009 A 
ATOM      4  C   UNL     1      -1.288   3.105   0.030  0.00  0.00    +0.009 A 
ATOM      5  C   UNL     1      -1.235   1.746   0.017  0.00  0.00    +0.001 A 
ATOM      6  C   UNL     1      -0.013   1.076   0.008  0.00  0.00    +0.001 A 
ATOM      7  C   UNL     1       1.163   1.762   0.000  0.00  0.00    +0.008 A 
ATOM      8  C   UNL     1       1.148   3.167   0.008  0.00  0.00    -0.017 A 
ATOM      9  C   UNL     1       2.342   3.909  -0.000  0.00  0.00    +0.012 A 
ATOM     10  C   UNL     1       2.292   5.268   0.006  0.00  0.00    +0.046 A 
ATOM     11  C   UNL     1       1.067   5.942   0.021  0.00  0.00    +0.123 A 
BRANCH  11  12
ATOM     12  O   UNL     1       1.050   7.301   0.028  0.00  0.00    -0.506 OA
ATOM     13  H   UNL     1       1.054   7.690   0.914  0.00  0.00    +0.292 HD
ENDBRANCH  11  12
ENDBRANCH   1   2
BRANCH   1  14
ATOM     14  C   UNL     1      -1.692   6.569  -1.322  0.00  0.00    -0.023 A 
ATOM     15  C   UNL     1      -1.077   7.744  -1.712  0.00  0.00    +0.008 A 
ATOM     16  C   UNL     1      -1.319   8.268  -2.968  0.00  0.00    +0.033 A 
ATOM     17  C   UNL     1      -2.185   7.622  -3.830  0.00  0.00    +0.126 A 
ATOM     18  C   UNL     1      -2.804   6.450  -3.439  0.00  0.00    +0.033 A 
ATOM     19  C   UNL     1      -2.557   5.923  -2.185  0.00  0.00    +0.008 A 
BRANCH  17  20
ATOM     20  N   UNL     1      -2.450   8.187  -5.173  0.00  0.00    +0.056 N 
ATOM     21  O   UNL     1      -3.213   7.618  -5.933  0.00  0.00    -0.126 OA
ATOM     22  O   UNL     1      -1.904   9.220  -5.518  0.00  0.00    -0.126 OA
ENDBRANCH  17  20
ENDBRANCH   1  14
BRANCH   1  25
ATOM     23  C   UNL     1      -1.630   6.835   2.323  0.00  0.00    +0.245 C 
ATOM     24  O   UNL     1      -1.929   5.712   2.678  0.00  0.00    -0.270 OA
ATOM     25  N   UNL     1      -1.358   7.081   1.026  0.00  0.00    -0.300 N 
ATOM     26  H   UNL     1      -1.119   7.978   0.743  0.00  0.00    +0.150 HD
BRANCH  23  30
ATOM     27  C   UNL     1      -1.441   9.983   5.168  0.00  0.00    +0.000 A 
ATOM     28  C   UNL     1      -1.782   8.706   5.576  0.00  0.00    +0.001 A 
ATOM     29  C   UNL     1      -1.846   7.679   4.657  0.00  0.00    +0.013 A 
ATOM     30  C   UNL     1      -1.565   7.931   3.313  0.00  0.00    +0.037 A 
ATOM     31  C   UNL     1      -1.216   9.220   2.909  0.00  0.00    +0.013 A 
ATOM     32  C   UNL     1      -1.161  10.239   3.837  0.00  0.00    +0.001 A 
ENDBRANCH  23  30
ENDBRANCH   1  25
TORSDOF 6
