REMARK  Name = ZINC39485804
REMARK  3 active torsions:
REMARK  status: ('A' for Active; 'I' for Inactive)
REMARK    1  A    between atoms: N_12  and  C_17
REMARK    2  A    between atoms: C_17  and  C_18
REMARK    3  A    between atoms: C_18  and  C_19
REMARK                            x       y       z     vdW  Elec       q    Type
REMARK                         _______ _______ _______ _____ _____    ______ ____
ROOT
ATOM      1  C   UNL     1      -0.018   1.501   0.010  0.00  0.00    +0.000 C 
ATOM      2  C   UNL     1       1.321   2.179   0.001  0.00  0.00    +0.004 C 
ATOM      3  C   UNL     1       2.015   1.827   1.324  0.00  0.00    +0.033 C 
ATOM      4  C   UNL     1       2.227   0.352   1.414  0.00  0.00    -0.042 C 
ATOM      5  C   UNL     1       1.360  -0.769   1.910  0.00  0.00    +0.079 C 
ATOM      6  C   UNL     1      -0.089  -0.554   1.415  0.00  0.00    +0.019 C 
ATOM      7  C   UNL     1       0.002  -0.004   0.002  0.00  0.00    +0.001 C 
ATOM      8  S   UNL     1       2.084  -2.269   1.149  0.00  0.00    -0.098 S 
ATOM      9  C   UNL     1       3.681  -1.565   0.848  0.00  0.00    +0.106 C 
ATOM     10  N   UNL     1       4.833  -2.070   0.592  0.00  0.00    -0.257 NA
ATOM     11  C   UNL     1       5.998  -1.183   0.505  0.00  0.00    +0.252 C 
ATOM     12  N   UNL     1       5.681   0.187   0.148  0.00  0.00    -0.278 N 
ATOM     13  C   UNL     1       4.504   0.799   0.412  0.00  0.00    +0.251 C 
ATOM     14  O   UNL     1       4.337   1.992   0.245  0.00  0.00    -0.270 OA
ATOM     15  C   UNL     1       3.419  -0.100   0.927  0.00  0.00    +0.069 C 
ENDROOT
BRANCH  12  16
ATOM     16  C   UNL     1       6.709   0.964  -0.549  0.00  0.00    +0.118 C 
BRANCH  16  17
ATOM     17  C   UNL     1       6.548   0.783  -2.060  0.00  0.00    +0.099 C 
BRANCH  17  18
ATOM     18  C   UNL     1       7.605   1.582  -2.777  0.00  0.00    +0.178 A 
ATOM     19  N   UNL     1       7.508   2.841  -3.178  0.00  0.00    -0.111 NA
ATOM     20  N   UNL     1       8.621   3.156  -3.748  0.00  0.00    -0.021 NA
ATOM     21  N   UNL     1       9.410   2.138  -3.717  0.00  0.00    -0.021 NA
ATOM     22  N   UNL     1       8.814   1.162  -3.123  0.00  0.00    -0.111 NA
ENDBRANCH  17  18
ENDBRANCH  16  17
ENDBRANCH  12  16
TORSDOF 3
