REMARK  Name = ZINC38573439
REMARK  8 active torsions:
REMARK  status: ('A' for Active; 'I' for Inactive)
REMARK    1  A    between atoms: C_1  and  C_2
REMARK    2  A    between atoms: C_2  and  N_3
REMARK    3  A    between atoms: C_4  and  C_6
REMARK    4  A    between atoms: C_15  and  N_17
REMARK    5  A    between atoms: C_18  and  C_20
REMARK    6  A    between atoms: C_23  and  C_25
REMARK    7  A    between atoms: C_27  and  C_32
REMARK    8  A    between atoms: C_30  and  O_31
REMARK                            x       y       z     vdW  Elec       q    Type
REMARK                         _______ _______ _______ _____ _____    ______ ____
ROOT
ATOM      1  N   UNL     1      -4.352  -0.817   1.369  0.00  0.00    -0.294 N 
ATOM      2  C   UNL     1      -4.580   0.504   1.508  0.00  0.00    +0.261 C 
ATOM      3  O   UNL     1      -4.624   1.221   0.526  0.00  0.00    -0.269 OA
ATOM      4  H   UNL     1      -4.317  -1.388   2.152  0.00  0.00    +0.150 HD
ENDROOT
BRANCH   1  13
ATOM      5  C   UNL     1      -2.981  -2.349   0.018  0.00  0.00    +0.045 C 
ATOM      6  C   UNL     1      -3.215  -3.636   0.018  0.00  0.00    -0.046 C 
ATOM      7  C   UNL     1      -2.151  -4.727  -0.105  0.00  0.00    +0.032 C 
ATOM      8  C   UNL     1      -2.844  -6.049   0.237  0.00  0.00    +0.004 C 
ATOM      9  C   UNL     1      -3.990  -6.354  -0.716  0.00  0.00    +0.002 C 
ATOM     10  C   UNL     1      -4.826  -5.123  -1.056  0.00  0.00    +0.018 C 
ATOM     11  C   UNL     1      -4.683  -4.085   0.059  0.00  0.00    +0.075 C 
ATOM     12  S   UNL     1      -5.541  -2.529  -0.413  0.00  0.00    -0.126 S 
ATOM     13  C   UNL     1      -4.157  -1.390   0.035  0.00  0.00    +0.167 C 
BRANCH   5  15
ATOM     14  N   UNL     1      -1.372  -0.511   0.012  0.00  0.00    -0.312 N 
ATOM     15  C   UNL     1      -1.601  -1.839   0.007  0.00  0.00    +0.243 C 
ATOM     16  O   UNL     1      -0.666  -2.617  -0.006  0.00  0.00    -0.270 OA
ATOM     17  H   UNL     1      -2.118   0.109   0.023  0.00  0.00    +0.149 HD
BRANCH  14  19
ATOM     18  C   UNL     1      -0.019   1.526   0.010  0.00  0.00    +0.024 C 
ATOM     19  C   UNL     1       0.002  -0.004   0.002  0.00  0.00    +0.101 C 
ENDBRANCH  14  19
ENDBRANCH   5  15
ENDBRANCH   1  13
BRANCH   2  20
ATOM     20  C   UNL     1      -4.776   1.077   2.843  0.00  0.00    +0.131 C 
ATOM     21  N   UNL     1      -4.753   0.450   3.990  0.00  0.00    -0.148 NA
ATOM     22  N   UNL     1      -4.954   1.197   5.004  0.00  0.00    -0.153 NA
ATOM     23  C   UNL     1      -5.148   2.463   4.710  0.00  0.00    +0.080 C 
ATOM     24  C   UNL     1      -5.042   2.532   3.195  0.00  0.00    +0.120 C 
BRANCH  23  25
ATOM     25  C   UNL     1      -5.403   3.567   5.638  0.00  0.00    +0.040 A 
ATOM     26  C   UNL     1      -5.595   4.868   5.153  0.00  0.00    +0.016 A 
ATOM     27  C   UNL     1      -5.835   5.899   6.033  0.00  0.00    -0.050 A 
ATOM     28  C   UNL     1      -5.888   5.658   7.397  0.00  0.00    +0.007 A 
ATOM     29  C   UNL     1      -5.701   4.382   7.891  0.00  0.00    +0.046 A 
ATOM     30  C   UNL     1      -5.464   3.328   7.024  0.00  0.00    +0.126 A 
ATOM     31  C   UNL     1      -6.042   7.297   5.510  0.00  0.00    +0.044 C 
BRANCH  30  32
ATOM     32  O   UNL     1      -5.285   2.073   7.507  0.00  0.00    -0.506 OA
ATOM     33  H   UNL     1      -4.365   1.858   7.711  0.00  0.00    +0.292 HD
ENDBRANCH  30  32
ENDBRANCH  23  25
ENDBRANCH   2  20
TORSDOF 6
