REMARK  Name = ZINC46809398
REMARK  12 active torsions:
REMARK  status: ('A' for Active; 'I' for Inactive)
REMARK    1  A    between atoms: C_1  and  C_2
REMARK    2  A    between atoms: C_2  and  C_3
REMARK    3  A    between atoms: C_3  and  C_4
REMARK    4  A    between atoms: C_3  and  C_5
REMARK    5  A    between atoms: C_3  and  C_6
REMARK    6  A    between atoms: N_14  and  C_18
REMARK    7  A    between atoms: C_18  and  C_19
REMARK    8  A    between atoms: N_21  and  C_22
REMARK    9  A    between atoms: C_22  and  C_23
REMARK   10  A    between atoms: C_26  and  C_29
REMARK   11  A    between atoms: C_29  and  N_30
REMARK   12  A    between atoms: C_35  and  C_37
REMARK                            x       y       z     vdW  Elec       q    Type
REMARK                         _______ _______ _______ _____ _____    ______ ____
ROOT
ATOM      1  C   UNL     1       0.401  -8.318   4.871  0.00  0.00    +0.231 C 
ATOM      2  O   UNL     1       1.326  -7.566   5.096  0.00  0.00    -0.274 OA
ATOM      3  N   UNL     1       0.409  -9.566   5.379  0.00  0.00    -0.310 N 
ATOM      4  H   UNL     1      -0.331 -10.168   5.199  0.00  0.00    +0.149 HD
ENDROOT
BRANCH   1   5
ATOM      5  C   UNL     1      -0.757  -7.856   4.025  0.00  0.00    +0.213 C 
BRANCH   5  14
ATOM      6  C   UNL     1       0.763  -2.041   1.233  0.00  0.00    -0.005 C 
ATOM      7  C   UNL     1      -0.673  -2.570   1.242  0.00  0.00    +0.006 C 
ATOM      8  C   UNL     1      -0.651  -4.101   1.222  0.00  0.00    +0.035 C 
ATOM      9  C   UNL     1       0.105  -4.615   2.442  0.00  0.00    +0.113 C 
ATOM     10  C   UNL     1       1.532  -4.078   2.458  0.00  0.00    +0.035 C 
ATOM     11  C   UNL     1       1.503  -2.547   2.473  0.00  0.00    +0.006 C 
ATOM     12  C   UNL     1       0.110  -6.126   2.462  0.00  0.00    +0.247 C 
ATOM     13  O   UNL     1       0.588  -6.870   1.632  0.00  0.00    -0.273 OA
ATOM     14  N   UNL     1      -0.529  -6.473   3.599  0.00  0.00    -0.215 N 
ATOM     15  C   UNL     1      -0.930  -5.397   4.287  0.00  0.00    +0.310 C 
ATOM     16  O   UNL     1      -1.527  -5.455   5.344  0.00  0.00    -0.252 OA
ATOM     17  N   UNL     1      -0.597  -4.244   3.677  0.00  0.00    -0.285 N 
ATOM     18  H   UNL     1      -0.785  -3.345   3.991  0.00  0.00    +0.151 HD
BRANCH   6  19
ATOM     19  C   UNL     1       0.742  -0.511   1.242  0.00  0.00    -0.032 C 
ATOM     20  C   UNL     1       2.178   0.019   1.231  0.00  0.00    +0.011 C 
ATOM     21  C   UNL     1       0.026  -0.018   2.500  0.00  0.00    +0.011 C 
BRANCH  19  23
ATOM     22  C   UNL     1      -0.019   1.526   0.010  0.00  0.00    +0.004 C 
ATOM     23  C   UNL     1       0.002  -0.004   0.002  0.00  0.00    +0.003 C 
ENDBRANCH  19  23
ENDBRANCH   6  19
ENDBRANCH   5  14
ENDBRANCH   1   5
BRANCH   3  24
ATOM     24  C   UNL     1       1.535 -10.015   6.201  0.00  0.00    +0.139 C 
BRANCH  24  25
ATOM     25  C   UNL     1       1.301 -11.438   6.640  0.00  0.00    -0.030 A 
ATOM     26  C   UNL     1       0.629 -11.695   7.821  0.00  0.00    +0.005 A 
ATOM     27  C   UNL     1       0.414 -13.000   8.224  0.00  0.00    +0.002 A 
ATOM     28  C   UNL     1       0.870 -14.047   7.446  0.00  0.00    -0.064 A 
ATOM     29  C   UNL     1       1.541 -13.790   6.265  0.00  0.00    +0.002 A 
ATOM     30  C   UNL     1       1.752 -12.486   5.860  0.00  0.00    +0.005 A 
BRANCH  28  31
ATOM     31  C   UNL     1       0.636 -15.470   7.886  0.00  0.00    -0.043 C 
BRANCH  31  32
ATOM     32  N   UNL     1      -0.642 -15.946   7.342  0.00  0.00    +0.384 N 
ATOM     33  C   UNL     1      -0.564 -15.992   5.877  0.00  0.00    -0.078 C 
ATOM     34  C   UNL     1      -1.919 -16.410   5.302  0.00  0.00    -0.019 C 
ATOM     35  C   UNL     1      -2.289 -17.796   5.838  0.00  0.00    -0.003 C 
ATOM     36  C   UNL     1      -2.295 -17.755   7.369  0.00  0.00    -0.016 C 
ATOM     37  C   UNL     1      -0.926 -17.287   7.868  0.00  0.00    -0.071 C 
ATOM     38  C   UNL     1      -0.928 -17.245   9.397  0.00  0.00    -0.013 C 
ATOM     39  H   UNL     1      -1.380 -15.315   7.618  0.00  0.00    -0.081 HD
ENDBRANCH  31  32
ENDBRANCH  28  31
ENDBRANCH  24  25
ENDBRANCH   3  24
TORSDOF 8
