REMARK  Name = ZINC36597772
REMARK  13 active torsions:
REMARK  status: ('A' for Active; 'I' for Inactive)
REMARK    1  A    between atoms: C_1  and  C_2
REMARK    2  A    between atoms: C_2  and  C_3
REMARK    3  A    between atoms: C_3  and  C_4
REMARK    4  A    between atoms: C_4  and  N_5
REMARK    5  A    between atoms: C_6  and  C_8
REMARK    6  A    between atoms: C_8  and  C_10
REMARK    7  A    between atoms: C_8  and  N_18
REMARK    8  A    between atoms: N_18  and  C_19
REMARK    9  A    between atoms: C_19  and  C_20
REMARK   10  A    between atoms: C_23  and  C_25
REMARK   11  A    between atoms: C_26  and  C_28
REMARK   12  A    between atoms: C_32  and  O_35
REMARK   13  A    between atoms: C_33  and  O_34
REMARK                            x       y       z     vdW  Elec       q    Type
REMARK                         _______ _______ _______ _____ _____    ______ ____
ROOT
ATOM      1  N   UNL     1      -4.201  -5.935   0.488  0.00  0.00    -0.274 N 
ATOM      2  C   UNL     1      -3.818  -6.654  -0.586  0.00  0.00    +0.252 C 
ATOM      3  O   UNL     1      -4.154  -7.818  -0.690  0.00  0.00    -0.270 OA
ENDROOT
BRANCH   2   4
ATOM      4  C   UNL     1      -2.990  -6.029  -1.635  0.00  0.00    +0.082 A 
ATOM      5  C   UNL     1      -2.689  -4.665  -1.573  0.00  0.00    +0.017 A 
ATOM      6  C   UNL     1      -1.915  -4.085  -2.554  0.00  0.00    +0.005 A 
ATOM      7  C   UNL     1      -1.432  -4.846  -3.605  0.00  0.00    +0.049 A 
ATOM      8  C   UNL     1      -1.722  -6.197  -3.681  0.00  0.00    +0.159 A 
ATOM      9  C   UNL     1      -2.497  -6.799  -2.695  0.00  0.00    +0.171 A 
BRANCH   9  10
ATOM     10  O   UNL     1      -2.779  -8.125  -2.762  0.00  0.00    -0.503 OA
ATOM     11  H   UNL     1      -3.588  -8.331  -3.250  0.00  0.00    +0.292 HD
ENDBRANCH   9  10
BRANCH   8  12
ATOM     12  O   UNL     1      -1.244  -6.938  -4.717  0.00  0.00    -0.503 OA
ATOM     13  H   UNL     1      -0.378  -7.335  -4.551  0.00  0.00    +0.292 HD
ENDBRANCH   8  12
ENDBRANCH   2   4
BRANCH   1  14
ATOM     14  C   UNL     1      -3.983  -4.486   0.515  0.00  0.00    +0.196 C 
BRANCH  14  15
ATOM     15  C   UNL     1      -2.525  -4.202   0.767  0.00  0.00    +0.018 A 
ATOM     16  C   UNL     1      -1.747  -5.125   1.442  0.00  0.00    +0.048 A 
ATOM     17  C   UNL     1      -0.408  -4.864   1.673  0.00  0.00    +0.020 A 
ATOM     18  C   UNL     1       0.152  -3.681   1.230  0.00  0.00    +0.003 A 
ATOM     19  C   UNL     1      -0.625  -2.758   0.555  0.00  0.00    +0.020 A 
ATOM     20  C   UNL     1      -1.962  -3.021   0.318  0.00  0.00    +0.048 A 
ATOM     21 CL   UNL     1      -2.937  -1.865  -0.536  0.00  0.00    -0.083 Cl
ATOM     22 CL   UNL     1      -2.450  -6.611   2.000  0.00  0.00    -0.083 Cl
ENDBRANCH  14  15
BRANCH  14  24
ATOM     23  N   UNL     1      -4.500  -2.654   2.095  0.00  0.00    -0.313 N 
ATOM     24  C   UNL     1      -4.811  -3.874   1.616  0.00  0.00    +0.238 C 
ATOM     25  O   UNL     1      -5.758  -4.481   2.070  0.00  0.00    -0.273 OA
ATOM     26  H   UNL     1      -3.742  -2.169   1.731  0.00  0.00    +0.149 HD
BRANCH  23  27
ATOM     27  C   UNL     1      -5.305  -2.059   3.164  0.00  0.00    +0.104 C 
BRANCH  27  28
ATOM     28  C   UNL     1      -4.742  -0.682   3.520  0.00  0.00    +0.018 C 
BRANCH  28  30
ATOM     29  C   UNL     1      -5.020   1.317   4.994  0.00  0.00    +0.004 C 
ATOM     30  C   UNL     1      -5.583  -0.061   4.638  0.00  0.00    -0.002 C 
ENDBRANCH  28  30
ENDBRANCH  27  28
ENDBRANCH  23  27
ENDBRANCH  14  24
ENDBRANCH   1  14
BRANCH   1  31
ATOM     31  C   UNL     1      -4.836  -6.602   1.627  0.00  0.00    +0.183 C 
BRANCH  31  32
ATOM     32  C   UNL     1      -6.300  -6.809   1.336  0.00  0.00    +0.122 A 
ATOM     33  C   UNL     1      -6.840  -7.890   0.746  0.00  0.00    +0.046 A 
ATOM     34  C   UNL     1      -8.233  -7.664   0.673  0.00  0.00    +0.045 A 
ATOM     35  C   UNL     1      -8.462  -6.458   1.222  0.00  0.00    +0.102 A 
ATOM     36  O   UNL     1      -7.288  -5.947   1.628  0.00  0.00    -0.463 OA
ATOM     37  C   UNL     1      -9.808  -5.795   1.364  0.00  0.00    +0.086 C 
ENDBRANCH  31  32
ENDBRANCH   1  31
TORSDOF 11
