REMARK  Name = ZINC01060614
REMARK  11 active torsions:
REMARK  status: ('A' for Active; 'I' for Inactive)
REMARK    1  A    between atoms: C_1  and  O_2
REMARK    2  A    between atoms: O_2  and  C_3
REMARK    3  A    between atoms: C_5  and  C_13
REMARK    4  A    between atoms: C_7  and  O_11
REMARK    5  A    between atoms: C_8  and  O_9
REMARK    6  A    between atoms: O_9  and  C_10
REMARK    7  A    between atoms: O_11  and  C_12
REMARK    8  A    between atoms: C_15  and  C_36
REMARK    9  A    between atoms: C_16  and  N_35
REMARK   10  A    between atoms: N_17  and  C_25
REMARK   11  A    between atoms: C_30  and  C_31
REMARK                            x       y       z     vdW  Elec       q    Type
REMARK                         _______ _______ _______ _____ _____    ______ ____
ROOT
ATOM      1  C   UNL     1      -1.302  -0.778  -0.096  0.00  0.00    +0.098 C 
ATOM      2  C   UNL     1      -1.560  -1.718  -1.236  0.00  0.00    +0.077 C 
ATOM      3  C   UNL     1      -1.302  -3.046  -1.123  0.00  0.00    +0.107 C 
ATOM      4  N   UNL     1      -0.801  -3.555   0.054  0.00  0.00    -0.260 N 
ATOM      5  C   UNL     1      -0.926  -2.853   1.224  0.00  0.00    +0.024 C 
ATOM      6  C   UNL     1      -1.173  -1.526   1.207  0.00  0.00    +0.025 C 
ATOM      7  C   UNL     1      -1.319  -0.801   2.403  0.00  0.00    +0.162 C 
ATOM      8  O   UNL     1      -1.535   0.394   2.353  0.00  0.00    -0.292 OA
ATOM      9  C   UNL     1      -1.214  -1.476   3.743  0.00  0.00    +0.080 C 
ATOM     10  C   UNL     1      -1.645  -2.939   3.600  0.00  0.00    +0.014 C 
ATOM     11  C   UNL     1      -0.775  -3.598   2.527  0.00  0.00    +0.052 C 
ENDROOT
BRANCH   1  14
ATOM     12  C   UNL     1       1.123   2.059  -0.691  0.00  0.00    +0.165 A 
ATOM     13  C   UNL     1      -0.049   1.359  -0.449  0.00  0.00    +0.054 A 
ATOM     14  C   UNL     1      -0.026  -0.021  -0.359  0.00  0.00    -0.028 A 
ATOM     15  C   UNL     1       1.164  -0.707  -0.511  0.00  0.00    +0.054 A 
ATOM     16  C   UNL     1       2.341  -0.014  -0.754  0.00  0.00    +0.165 A 
ATOM     17  C   UNL     1       2.321   1.373  -0.845  0.00  0.00    +0.204 A 
BRANCH  12  19
ATOM     18  C   UNL     1      -0.168   4.055  -0.611  0.00  0.00    +0.277 C 
ATOM     19  O   UNL     1       1.099   3.416  -0.779  0.00  0.00    -0.491 OA
ENDBRANCH  12  19
BRANCH  17  20
ATOM     20  O   UNL     1       3.474   2.057  -1.083  0.00  0.00    -0.488 OA
ATOM     21  C   UNL     1       3.815   2.298  -2.449  0.00  0.00    +0.277 C 
ENDBRANCH  17  20
BRANCH  16  22
ATOM     22  O   UNL     1       3.511  -0.690  -0.902  0.00  0.00    -0.491 OA
ATOM     23  C   UNL     1       3.456  -2.114  -0.796  0.00  0.00    +0.277 C 
ENDBRANCH  16  22
ENDBRANCH   1  14
BRANCH   4  24
ATOM     24  C   UNL     1      -0.160  -4.799   0.056  0.00  0.00    +0.051 A 
ATOM     25  C   UNL     1       1.223  -4.869  -0.052  0.00  0.00    +0.024 A 
ATOM     26  C   UNL     1       1.853  -6.098  -0.051  0.00  0.00    +0.002 A 
ATOM     27  C   UNL     1       1.108  -7.258   0.059  0.00  0.00    +0.001 A 
ATOM     28  C   UNL     1      -0.269  -7.192   0.167  0.00  0.00    +0.014 A 
ATOM     29  C   UNL     1      -0.904  -5.965   0.171  0.00  0.00    +0.076 A 
BRANCH  29  30
ATOM     30  C   UNL     1      -2.404  -5.894   0.295  0.00  0.00    +0.419 C 
ATOM     31  F   UNL     1      -2.915  -7.176   0.522  0.00  0.00    -0.166 F 
ATOM     32  F   UNL     1      -2.744  -5.061   1.366  0.00  0.00    -0.166 F 
ATOM     33  F   UNL     1      -2.946  -5.378  -0.887  0.00  0.00    -0.166 F 
ENDBRANCH  29  30
ENDBRANCH   4  24
BRANCH   3  34
ATOM     34  N   UNL     1      -1.541  -3.885  -2.186  0.00  0.00    -0.345 N 
ATOM     35  H   UNL     1      -1.893  -3.527  -3.016  0.00  0.00    +0.144 HD
ATOM     36  H   UNL     1      -1.357  -4.833  -2.106  0.00  0.00    +0.144 HD
ENDBRANCH   3  34
BRANCH   2  37
ATOM     37  C   UNL     1      -2.089  -1.205  -2.465  0.00  0.00    +0.099 C 
ATOM     38  N   UNL     1      -2.508  -0.799  -3.439  0.00  0.00    -0.191 NA
ENDBRANCH   2  37
TORSDOF 8
