REMARK  Name = ZINC62566488
REMARK  6 active torsions:
REMARK  status: ('A' for Active; 'I' for Inactive)
REMARK    1  A    between atoms: N_10  and  S_13
REMARK    2  A    between atoms: S_13  and  C_16
REMARK    3  A    between atoms: C_16  and  C_17
REMARK    4  A    between atoms: C_17  and  N_18
REMARK    5  A    between atoms: C_19  and  C_21
REMARK    6  A    between atoms: C_22  and  C_23
REMARK                            x       y       z     vdW  Elec       q    Type
REMARK                         _______ _______ _______ _____ _____    ______ ____
ROOT
ATOM      1  S   UNL     1       1.470  -6.171   1.143  0.00  0.00    +0.033 S 
ATOM      2  O   UNL     1       0.194  -6.562   0.654  0.00  0.00    -0.158 OA
ATOM      3  O   UNL     1       2.652  -6.501   0.427  0.00  0.00    -0.158 OA
ENDROOT
BRANCH   1  13
ATOM      4  C   UNL     1       2.370   1.437   0.014  0.00  0.00    +0.005 A 
ATOM      5  C   UNL     1       1.127   2.057   0.003  0.00  0.00    +0.018 A 
ATOM      6  C   UNL     1      -0.015   1.282  -0.017  0.00  0.00    +0.084 A 
ATOM      7  N   UNL     1       0.061  -0.036  -0.024  0.00  0.00    -0.350 N 
ATOM      8  C   UNL     1       1.227  -0.664  -0.014  0.00  0.00    +0.099 A 
ATOM      9  C   UNL     1       2.418   0.054   0.005  0.00  0.00    +0.042 A 
ATOM     10  N   UNL     1       1.260  -2.054  -0.022  0.00  0.00    -0.314 N 
ATOM     11  C   UNL     1       2.538  -2.770  -0.142  0.00  0.00    +0.123 C 
ATOM     12  C   UNL     1       2.671  -3.737   1.041  0.00  0.00    +0.128 C 
ATOM     13  N   UNL     1       1.430  -4.516   1.153  0.00  0.00    -0.178 NA
ATOM     14  C   UNL     1       0.152  -3.799   1.273  0.00  0.00    +0.128 C 
ATOM     15  C   UNL     1       0.020  -2.833   0.096  0.00  0.00    +0.123 C 
ATOM     16  H   UNL     1      -0.757  -0.557  -0.038  0.00  0.00    +0.166 HD
ENDBRANCH   1  13
BRANCH   1  17
ATOM     17  C   UNL     1       1.642  -6.644   2.886  0.00  0.00    +0.204 C 
BRANCH  17  18
ATOM     18  C   UNL     1       1.690  -8.169   2.999  0.00  0.00    +0.128 C 
BRANCH  18  19
ATOM     19  N   UNL     1       1.830  -8.550   4.406  0.00  0.00    -0.310 N 
ATOM     20  C   UNL     1       1.893  -9.852   4.748  0.00  0.00    +0.237 C 
ATOM     21  O   UNL     1       1.835 -10.711   3.888  0.00  0.00    -0.271 OA
ATOM     22  H   UNL     1       1.876  -7.866   5.092  0.00  0.00    +0.149 HD
BRANCH  20  23
ATOM     23  C   UNL     1       2.033 -10.234   6.155  0.00  0.00    +0.068 C 
ATOM     24  C   UNL     1       2.097 -11.536   6.498  0.00  0.00    +0.013 C 
BRANCH  24  25
ATOM     25  C   UNL     1       2.237 -11.919   7.912  0.00  0.00    -0.024 A 
ATOM     26  C   UNL     1       2.298 -10.936   8.904  0.00  0.00    +0.008 A 
ATOM     27  C   UNL     1       2.429 -11.302  10.227  0.00  0.00    +0.002 A 
ATOM     28  C   UNL     1       2.500 -12.640  10.574  0.00  0.00    +0.015 A 
ATOM     29  C   UNL     1       2.440 -13.620   9.598  0.00  0.00    +0.018 A 
ATOM     30  C   UNL     1       2.303 -13.269   8.271  0.00  0.00    +0.023 A 
ATOM     31 BR   UNL     1       2.539 -15.444  10.086  0.00  0.00    -0.050 Br
ENDBRANCH  24  25
ENDBRANCH  20  23
ENDBRANCH  18  19
ENDBRANCH  17  18
ENDBRANCH   1  17
TORSDOF 6
