REMARK  Name = ZINC63141417
REMARK  5 active torsions:
REMARK  status: ('A' for Active; 'I' for Inactive)
REMARK    1  A    between atoms: C_1  and  O_2
REMARK    2  A    between atoms: O_2  and  C_3
REMARK    3  A    between atoms: C_3  and  C_4
REMARK    4  A    between atoms: C_4  and  N_5
REMARK    5  A    between atoms: C_25  and  C_27
REMARK                            x       y       z     vdW  Elec       q    Type
REMARK                         _______ _______ _______ _____ _____    ______ ____
ROOT
ATOM      1  N   UNL     1      -0.767  -2.583  -1.117  0.00  0.00    -0.289 N 
ATOM      2  C   UNL     1      -1.519  -2.708   0.121  0.00  0.00    +0.203 C 
ATOM      3  C   UNL     1      -2.913  -3.187  -0.113  0.00  0.00    +0.234 C 
ATOM      4  O   UNL     1      -3.630  -3.329   0.856  0.00  0.00    -0.274 OA
ATOM      5  N   UNL     1      -3.429  -3.471  -1.314  0.00  0.00    -0.279 N 
ATOM      6  C   UNL     1      -2.672  -3.323  -2.552  0.00  0.00    +0.167 C 
ATOM      7  C   UNL     1      -1.275  -2.850  -2.318  0.00  0.00    +0.237 C 
ATOM      8  O   UNL     1      -0.556  -2.704  -3.284  0.00  0.00    -0.274 OA
ATOM      9  C   UNL     1      -3.395  -2.344  -3.496  0.00  0.00    +0.065 C 
ATOM     10  C   UNL     1      -4.850  -2.743  -3.496  0.00  0.00    -0.034 C 
ATOM     11  C   UNL     1      -5.694  -2.993  -4.489  0.00  0.00    -0.001 A 
ATOM     12  C   UNL     1      -5.554  -2.866  -5.949  0.00  0.00    +0.010 A 
ATOM     13  C   UNL     1      -6.633  -3.237  -6.689  0.00  0.00    +0.001 A 
ATOM     14  C   UNL     1      -7.822  -3.716  -6.129  0.00  0.00    +0.002 A 
ATOM     15  C   UNL     1      -8.040  -3.856  -4.797  0.00  0.00    +0.026 A 
ATOM     16  C   UNL     1      -6.981  -3.490  -3.916  0.00  0.00    +0.043 A 
ATOM     17  N   UNL     1      -6.927  -3.499  -2.617  0.00  0.00    -0.375 N 
ATOM     18  C   UNL     1      -5.632  -2.957  -2.205  0.00  0.00    +0.131 C 
ATOM     19  C   UNL     1      -4.827  -3.956  -1.369  0.00  0.00    +0.133 C 
ATOM     20  H   UNL     1      -7.626  -3.812  -2.022  0.00  0.00    +0.160 HD
ENDROOT
BRANCH  19  21
ATOM     21  C   UNL     1      -5.397  -4.031   0.025  0.00  0.00    -0.024 A 
ATOM     22  C   UNL     1      -5.966  -2.910   0.600  0.00  0.00    +0.005 A 
ATOM     23  C   UNL     1      -6.489  -2.978   1.878  0.00  0.00    +0.001 A 
ATOM     24  C   UNL     1      -6.442  -4.167   2.581  0.00  0.00    +0.015 A 
ATOM     25  C   UNL     1      -5.874  -5.289   2.006  0.00  0.00    +0.018 A 
ATOM     26  C   UNL     1      -5.356  -5.221   0.725  0.00  0.00    +0.020 A 
ATOM     27 BR   UNL     1      -5.810  -6.916   2.967  0.00  0.00    -0.050 Br
ENDBRANCH  19  21
BRANCH   1  28
ATOM     28  C   UNL     1       0.625  -2.133  -1.038  0.00  0.00    +0.136 C 
BRANCH  28  29
ATOM     29  C   UNL     1       0.674  -0.607  -1.131  0.00  0.00    +0.178 C 
BRANCH  29  31
ATOM     30  C   UNL     1       0.018   1.390   0.022  0.00  0.00    +0.194 C 
ATOM     31  O   UNL     1       0.028  -0.039   0.011  0.00  0.00    -0.381 OA
ENDBRANCH  29  31
ENDBRANCH  28  29
ENDBRANCH   1  28
TORSDOF 4
