REMARK  Name = ZINC13500124
REMARK  11 active torsions:
REMARK  status: ('A' for Active; 'I' for Inactive)
REMARK    1  A    between atoms: C_1  and  C_2
REMARK    2  A    between atoms: C_2  and  C_3
REMARK    3  A    between atoms: C_3  and  C_4
REMARK    4  A    between atoms: C_4  and  C_6
REMARK    5  A    between atoms: C_4  and  N_73
REMARK    6  A    between atoms: N_10  and  C_11
REMARK    7  A    between atoms: C_11  and  C_12
REMARK    8  A    between atoms: C_18  and  C_19
REMARK    9  A    between atoms: C_18  and  N_73
REMARK   10  A    between atoms: C_25  and  C_31
REMARK   11  A    between atoms: C_32  and  N_73
REMARK                            x       y       z     vdW  Elec       q    Type
REMARK                         _______ _______ _______ _____ _____    ______ ____
ROOT
ATOM      1  N   UNL     1       5.795   4.486   1.327  0.00  0.00    +0.391 N 
ATOM      2  H   UNL     1       4.880   4.731   1.724  0.00  0.00    -0.080 HD
ENDROOT
BRANCH   1   3
ATOM      3  C   UNL     1       6.408   3.424   2.153  0.00  0.00    -0.067 C 
ATOM      4  C   UNL     1       7.752   2.993   1.562  0.00  0.00    -0.015 C 
ATOM      5  C   UNL     1       8.363   1.894   2.434  0.00  0.00    -0.002 C 
ATOM      6  C   UNL     1       7.416   0.693   2.478  0.00  0.00    -0.000 C 
ATOM      7  C   UNL     1       6.072   1.124   3.069  0.00  0.00    -0.002 C 
ATOM      8  C   UNL     1       5.461   2.223   2.197  0.00  0.00    -0.015 C 
ENDBRANCH   1   3
BRANCH   1   9
ATOM      9  C   UNL     1       6.656   5.688   1.330  0.00  0.00    +0.003 C 
BRANCH   9  10
ATOM     10  C   UNL     1       7.683   5.601   0.231  0.00  0.00    +0.138 A 
ATOM     11  N   UNL     1       8.287   4.516  -0.193  0.00  0.00    -0.115 NA
ATOM     12  N   UNL     1       9.091   4.853  -1.141  0.00  0.00    -0.023 NA
ATOM     13  N   UNL     1       9.016   6.124  -1.334  0.00  0.00    -0.044 NA
ATOM     14  N   UNL     1       8.155   6.620  -0.511  0.00  0.00    -0.228 N 
BRANCH  14  15
ATOM     15  C   UNL     1       7.766   8.028  -0.403  0.00  0.00    +0.178 C 
BRANCH  15  16
ATOM     16  C   UNL     1       8.682   8.734   0.600  0.00  0.00    +0.140 C 
ATOM     17  C   UNL     1       8.208  10.188   0.807  0.00  0.00    +0.035 C 
ATOM     18  C   UNL     1       9.551  10.963   0.896  0.00  0.00    +0.031 C 
ATOM     19  C   UNL     1      10.426  10.149  -0.090  0.00  0.00    +0.160 C 
ATOM     20  O   UNL     1      10.018   8.783   0.086  0.00  0.00    -0.375 OA
ENDBRANCH  15  16
ENDBRANCH  14  15
ENDBRANCH   9  10
BRANCH   9  21
ATOM     21  C   UNL     1       7.364   5.803   2.681  0.00  0.00    -0.008 C 
BRANCH  21  23
ATOM     22  C   UNL     1       7.041   6.257   5.117  0.00  0.00    +0.004 C 
ATOM     23  C   UNL     1       6.327   6.035   3.782  0.00  0.00    -0.005 C 
ENDBRANCH  21  23
ENDBRANCH   9  21
ENDBRANCH   1   9
BRANCH   1  24
ATOM     24  C   UNL     1       5.605   4.004  -0.057  0.00  0.00    -0.036 C 
BRANCH  24  25
ATOM     25  C   UNL     1       4.750   4.995  -0.804  0.00  0.00    +0.001 A 
ATOM     26  C   UNL     1       5.335   5.962  -1.553  0.00  0.00    +0.017 A 
ATOM     27  C   UNL     1       4.477   6.909  -2.267  0.00  0.00    -0.001 A 
ATOM     28  C   UNL     1       5.022   7.927  -3.055  0.00  0.00    +0.010 A 
ATOM     29  C   UNL     1       4.194   8.795  -3.708  0.00  0.00    +0.001 A 
ATOM     30  C   UNL     1       2.815   8.672  -3.601  0.00  0.00    +0.005 A 
ATOM     31  C   UNL     1       2.256   7.680  -2.825  0.00  0.00    -0.026 A 
ATOM     32  C   UNL     1       3.080   6.785  -2.150  0.00  0.00    +0.052 A 
ATOM     33  N   UNL     1       2.547   5.779  -1.372  0.00  0.00    -0.322 N 
ATOM     34  H   UNL     1       1.584   5.695  -1.292  0.00  0.00    +0.169 HD
ATOM     35  C   UNL     1       3.344   4.913  -0.720  0.00  0.00    +0.251 A 
ATOM     36  O   UNL     1       2.839   4.037  -0.041  0.00  0.00    -0.268 OA
ATOM     37  C   UNL     1       0.758   7.562  -2.712  0.00  0.00    +0.046 C 
ENDBRANCH  24  25
ENDBRANCH   1  24
TORSDOF 9
