REMARK  Name = ZINC32536443
REMARK  10 active torsions:
REMARK  status: ('A' for Active; 'I' for Inactive)
REMARK    1  A    between atoms: C_1  and  C_2
REMARK    2  A    between atoms: C_2  and  C_3
REMARK    3  A    between atoms: C_2  and  O_4
REMARK    4  A    between atoms: O_4  and  C_5
REMARK    5  A    between atoms: C_8  and  S_11
REMARK    6  A    between atoms: S_11  and  C_14
REMARK    7  A    between atoms: C_21  and  N_23
REMARK    8  A    between atoms: N_23  and  C_24
REMARK    9  A    between atoms: N_23  and  C_25
REMARK   10  A    between atoms: C_25  and  C_26
REMARK                            x       y       z     vdW  Elec       q    Type
REMARK                         _______ _______ _______ _____ _____    ______ ____
ROOT
ATOM      1  C   UNL     1       2.702   3.294   0.156  0.00  0.00    +0.145 C 
ATOM      2  C   UNL     1       3.021   4.659   0.824  0.00  0.00    +0.190 C 
ATOM      3  S   UNL     1       1.794   4.618   2.203  0.00  0.00    -0.031 S 
ATOM      4  O   UNL     1       1.343   5.939   2.467  0.00  0.00    -0.174 OA
ATOM      5  O   UNL     1       2.310   3.825   3.264  0.00  0.00    -0.174 OA
ATOM      6  C   UNL     1       0.461   3.684   1.342  0.00  0.00    +0.152 C 
ATOM      7  C   UNL     1       1.194   3.048   0.145  0.00  0.00    -0.021 C 
ENDROOT
BRANCH   1   8
ATOM      8  S   UNL     1       3.321   3.306  -1.549  0.00  0.00    -0.000 S 
ATOM      9  O   UNL     1       3.219   2.007  -2.116  0.00  0.00    -0.169 OA
ATOM     10  O   UNL     1       2.821   4.441  -2.243  0.00  0.00    -0.169 OA
BRANCH   8  14
ATOM     11  C   UNL     1       7.771   4.053  -1.166  0.00  0.00    +0.121 A 
ATOM     12  C   UNL     1       7.281   2.755  -1.163  0.00  0.00    +0.047 A 
ATOM     13  C   UNL     1       5.923   2.529  -1.280  0.00  0.00    +0.030 A 
ATOM     14  C   UNL     1       5.052   3.597  -1.400  0.00  0.00    +0.089 A 
ATOM     15  C   UNL     1       5.538   4.891  -1.409  0.00  0.00    +0.030 A 
ATOM     16  C   UNL     1       6.895   5.122  -1.286  0.00  0.00    +0.047 A 
BRANCH  11  17
ATOM     17  O   UNL     1       9.106   4.277  -1.052  0.00  0.00    -0.489 OA
BRANCH  17  19
ATOM     18  C   UNL     1       9.425   6.178   0.406  0.00  0.00    +0.051 C 
ATOM     19  C   UNL     1       9.536   5.639  -1.022  0.00  0.00    +0.167 C 
ATOM     20  C   UNL     1      10.990   5.726  -1.489  0.00  0.00    +0.051 C 
ENDBRANCH  17  19
ENDBRANCH  11  17
ENDBRANCH   8  14
ENDBRANCH   1   8
BRANCH   7  21
ATOM     21  N   UNL     1       0.954   1.598   0.162  0.00  0.00    +0.385 N 
ATOM     22  C   UNL     1       1.334   1.018   1.457  0.00  0.00    -0.095 C 
ATOM     23  H   UNL     1       1.587   1.141  -0.612  0.00  0.00    -0.081 HD
BRANCH  21  24
ATOM     24  C   UNL     1      -0.446   1.293  -0.161  0.00  0.00    -0.043 C 
BRANCH  24  25
ATOM     25  C   UNL     1      -0.600  -0.191  -0.375  0.00  0.00    -0.064 A 
ATOM     26  C   UNL     1      -0.439  -0.728  -1.638  0.00  0.00    +0.002 A 
ATOM     27  C   UNL     1      -0.575  -2.089  -1.834  0.00  0.00    +0.000 A 
ATOM     28  C   UNL     1      -0.882  -2.913  -0.767  0.00  0.00    +0.000 A 
ATOM     29  C   UNL     1      -1.050  -2.376   0.495  0.00  0.00    +0.000 A 
ATOM     30  C   UNL     1      -0.908  -1.015   0.692  0.00  0.00    +0.002 A 
ENDBRANCH  24  25
ENDBRANCH  21  24
ENDBRANCH   7  21
TORSDOF 7
