REMARK  Name = ZINC20158876
REMARK  11 active torsions:
REMARK  status: ('A' for Active; 'I' for Inactive)
REMARK    1  A    between atoms: C_1  and  C_2
REMARK    2  A    between atoms: C_2  and  C_21
REMARK    3  A    between atoms: N_3  and  N_4
REMARK    4  A    between atoms: C_5  and  C_7
REMARK    5  A    between atoms: C_10  and  C_13
REMARK    6  A    between atoms: C_13  and  S_14
REMARK    7  A    between atoms: S_14  and  C_15
REMARK    8  A    between atoms: N_19  and  C_20
REMARK    9  A    between atoms: C_24  and  O_27
REMARK   10  A    between atoms: O_27  and  C_28
REMARK   11  A    between atoms: C_28  and  C_29
REMARK                            x       y       z     vdW  Elec       q    Type
REMARK                         _______ _______ _______ _____ _____    ______ ____
ROOT
ATOM      1  C   UNL     1       0.002  -0.004   0.002  0.00  0.00    +0.068 C 
ATOM      2  C   UNL     1      -0.018   1.503   0.010  0.00  0.00    +0.063 C 
ATOM      3  N   UNL     1       1.097   2.167   0.003  0.00  0.00    -0.184 NA
ENDROOT
BRANCH   2   4
ATOM      4  C   UNL     1      -1.305   2.222   0.020  0.00  0.00    -0.002 A 
ATOM      5  C   UNL     1      -2.507   1.509   0.016  0.00  0.00    +0.013 A 
ATOM      6  C   UNL     1      -3.707   2.186   0.032  0.00  0.00    +0.046 A 
ATOM      7  C   UNL     1      -3.723   3.575   0.039  0.00  0.00    +0.121 A 
ATOM      8  C   UNL     1      -2.531   4.288   0.037  0.00  0.00    +0.046 A 
ATOM      9  C   UNL     1      -1.326   3.620   0.028  0.00  0.00    +0.013 A 
BRANCH   7  10
ATOM     10  O   UNL     1      -4.909   4.238   0.048  0.00  0.00    -0.487 OA
BRANCH  10  11
ATOM     11  C   UNL     1      -6.097   3.444   0.049  0.00  0.00    +0.265 C 
BRANCH  11  12
ATOM     12  C   UNL     1      -7.304   4.346   0.060  0.00  0.00    -0.003 A 
ATOM     13  C   UNL     1      -7.148   5.698   0.072  0.00  0.00    +0.007 A 
ATOM     14  C   UNL     1      -8.253   6.547   0.075  0.00  0.00    +0.001 A 
ATOM     15  C   UNL     1      -9.520   6.050   0.079  0.00  0.00    +0.008 A 
ATOM     16  C   UNL     1      -9.720   4.659   0.073  0.00  0.00    -0.018 A 
ATOM     17  C   UNL     1      -8.597   3.795   0.063  0.00  0.00    -0.011 A 
ATOM     18  C   UNL     1      -8.798   2.404   0.057  0.00  0.00    +0.009 A 
ATOM     19  C   UNL     1     -10.064   1.907   0.062  0.00  0.00    +0.001 A 
ATOM     20  C   UNL     1     -11.169   2.756   0.072  0.00  0.00    +0.001 A 
ATOM     21  C   UNL     1     -11.013   4.108   0.077  0.00  0.00    +0.008 A 
ENDBRANCH  11  12
ENDBRANCH  10  11
ENDBRANCH   7  10
ENDBRANCH   2   4
BRANCH   3  22
ATOM     22  N   UNL     1       2.320   1.483  -0.012  0.00  0.00    -0.203 N 
ATOM     23  C   UNL     1       3.477   2.173  -0.019  0.00  0.00    +0.263 C 
ATOM     24  O   UNL     1       3.461   3.389  -0.013  0.00  0.00    -0.268 OA
ATOM     25  H   UNL     1       2.334   0.383  -0.018  0.00  0.00    +0.178 HD
BRANCH  23  26
ATOM     26  C   UNL     1       4.767   1.451  -0.036  0.00  0.00    +0.038 A 
ATOM     27  C   UNL     1       4.790   0.056  -0.037  0.00  0.00    +0.013 A 
ATOM     28  C   UNL     1       5.997  -0.612  -0.058  0.00  0.00    +0.005 A 
ATOM     29  C   UNL     1       7.184   0.100  -0.066  0.00  0.00    -0.037 A 
ATOM     30  C   UNL     1       7.169   1.483  -0.058  0.00  0.00    +0.005 A 
ATOM     31  C   UNL     1       5.968   2.163  -0.043  0.00  0.00    +0.013 A 
BRANCH  29  32
ATOM     32  C   UNL     1       8.499  -0.636  -0.082  0.00  0.00    +0.112 C 
BRANCH  32  33
ATOM     33  S   UNL     1       9.041  -0.940   1.619  0.00  0.00    -0.081 S 
BRANCH  33  34
ATOM     34  C   UNL     1      10.555  -1.787   1.310  0.00  0.00    +0.191 A 
ATOM     35  N   UNL     1      11.065  -2.071   0.134  0.00  0.00    -0.123 NA
ATOM     36  N   UNL     1      12.179  -2.695   0.281  0.00  0.00    -0.137 NA
ATOM     37  C   UNL     1      12.445  -2.844   1.548  0.00  0.00    +0.225 A 
ATOM     38  N   UNL     1      11.423  -2.266   2.249  0.00  0.00    -0.312 N 
ATOM     39  C   UNL     1      11.286  -2.182   3.705  0.00  0.00    +0.152 C 
ENDBRANCH  33  34
ENDBRANCH  32  33
ENDBRANCH  29  32
ENDBRANCH  23  26
ENDBRANCH   3  22
TORSDOF 9
