REMARK  Name = ZINC63175958
REMARK  4 active torsions:
REMARK  status: ('A' for Active; 'I' for Inactive)
REMARK    1  A    between atoms: C_5  and  S_6
REMARK    2  A    between atoms: S_6  and  N_9
REMARK    3  A    between atoms: N_9  and  C_10
REMARK    4  A    between atoms: C_15  and  N_17
REMARK                            x       y       z     vdW  Elec       q    Type
REMARK                         _______ _______ _______ _____ _____    ______ ____
ROOT
ATOM      1  N   UNL     1      -1.744  -1.437  -1.570  0.00  0.00    -0.188 NA
ATOM      2  H   UNL     1      -2.606  -1.159  -1.918  0.00  0.00    +0.148 HD
ENDROOT
BRANCH   1   3
ATOM      3  C   UNL     1      -0.789  -2.127  -2.442  0.00  0.00    +0.062 C 
ATOM      4  C   UNL     1       0.002  -1.099  -3.276  0.00  0.00    +0.019 C 
ATOM      5  C   UNL     1       0.176  -1.782  -4.655  0.00  0.00    -0.000 C 
ATOM      6  C   UNL     1      -1.180  -2.504  -4.852  0.00  0.00    -0.015 C 
ATOM      7  C   UNL     1      -1.541  -3.021  -3.443  0.00  0.00    -0.056 C 
BRANCH   7   8
ATOM      8  N   UNL     1      -2.990  -2.915  -3.223  0.00  0.00    +0.381 N 
ATOM      9  H   UNL     1      -3.280  -1.957  -3.352  0.00  0.00    -0.090 HD
ATOM     10  H   UNL     1      -3.474  -3.505  -3.884  0.00  0.00    -0.090 HD
ATOM     11  H   UNL     1      -3.210  -3.210  -2.284  0.00  0.00    -0.090 HD
ENDBRANCH   7   8
ENDBRANCH   1   3
BRANCH   1  12
ATOM     12  S   UNL     1      -1.352  -1.132   0.010  0.00  0.00    +0.065 S 
ATOM     13  O   UNL     1      -0.861  -2.352   0.549  0.00  0.00    -0.153 OA
ATOM     14  O   UNL     1      -2.455  -0.438   0.576  0.00  0.00    -0.153 OA
BRANCH  12  19
ATOM     15  C   UNL     1      -0.016   1.351   0.009  0.00  0.00    +0.037 A 
ATOM     16  C   UNL     1       1.183   2.038   0.002  0.00  0.00    +0.025 A 
ATOM     17  C   UNL     1       2.343   1.335  -0.013  0.00  0.00    +0.057 A 
ATOM     18  S   UNL     1       1.753  -0.350  -0.017  0.00  0.00    -0.062 S 
ATOM     19  C   UNL     1       0.002  -0.004   0.002  0.00  0.00    +0.143 A 
ATOM     20 BR   UNL     1       4.123   1.974  -0.027  0.00  0.00    -0.043 Br
ENDBRANCH  12  19
ENDBRANCH   1  12
TORSDOF 4
