REMARK  Name = ZINC12080110
REMARK  7 active torsions:
REMARK  status: ('A' for Active; 'I' for Inactive)
REMARK    1  A    between atoms: C_1  and  C_2
REMARK    2  A    between atoms: C_3  and  C_20
REMARK    3  A    between atoms: N_7  and  C_8
REMARK    4  A    between atoms: C_8  and  C_9
REMARK    5  A    between atoms: C_13  and  O_15
REMARK    6  A    between atoms: O_15  and  C_16
REMARK    7  A    between atoms: N_23  and  C_25
REMARK                            x       y       z     vdW  Elec       q    Type
REMARK                         _______ _______ _______ _____ _____    ______ ____
ROOT
ATOM      1  C   UNL     1      -4.949  -0.230   0.025  0.00  0.00    +0.067 C 
ATOM      2  C   UNL     1      -5.616   1.121   0.036  0.00  0.00    +0.057 A 
ATOM      3  C   UNL     1      -4.875   2.272   0.039  0.00  0.00    +0.063 A 
ATOM      4  S   UNL     1      -6.172   3.501   0.062  0.00  0.00    -0.051 S 
ATOM      5  C   UNL     1      -7.521   2.408   0.055  0.00  0.00    +0.159 A 
ATOM      6  N   UNL     1      -6.928   1.228   0.044  0.00  0.00    -0.229 NA
ATOM      7  N   UNL     1      -8.875   2.699   0.064  0.00  0.00    -0.319 N 
ATOM      8  H   UNL     1      -9.172   3.622   0.072  0.00  0.00    +0.148 HD
ENDROOT
BRANCH   3   9
ATOM      9  C   UNL     1      -3.408   2.449   0.033  0.00  0.00    +0.101 A 
ATOM     10  C   UNL     1      -2.721   3.682   0.036  0.00  0.00    +0.050 A 
ATOM     11  C   UNL     1      -1.397   3.419   0.033  0.00  0.00    +0.115 A 
ATOM     12  N   UNL     1      -1.238   2.070   0.019  0.00  0.00    -0.239 N 
ATOM     13  N   UNL     1      -2.511   1.483   0.022  0.00  0.00    -0.166 NA
BRANCH  12  14
ATOM     14  C   UNL     1      -0.017   1.385   0.010  0.00  0.00    +0.068 A 
ATOM     15  C   UNL     1       0.002  -0.004   0.002  0.00  0.00    +0.028 A 
ATOM     16  C   UNL     1       1.208  -0.678  -0.013  0.00  0.00    +0.005 A 
ATOM     17  C   UNL     1       2.396   0.028  -0.021  0.00  0.00    +0.038 A 
ATOM     18  C   UNL     1       2.382   1.413  -0.014  0.00  0.00    +0.125 A 
ATOM     19  C   UNL     1       1.177   2.093   0.002  0.00  0.00    +0.066 A 
ATOM     20  F   UNL     1       3.545   2.100  -0.021  0.00  0.00    -0.205 F 
ENDBRANCH  12  14
ENDBRANCH   3   9
BRANCH   7  21
ATOM     21  C   UNL     1      -9.858   1.612   0.062  0.00  0.00    +0.139 C 
BRANCH  21  22
ATOM     22  C   UNL     1     -11.248   2.193   0.074  0.00  0.00    -0.023 A 
ATOM     23  C   UNL     1     -11.880   2.445   1.278  0.00  0.00    +0.055 A 
ATOM     24  C   UNL     1     -13.157   2.984   1.293  0.00  0.00    +0.170 A 
ATOM     25  C   UNL     1     -13.807   3.260   0.095  0.00  0.00    +0.208 A 
ATOM     26  C   UNL     1     -13.171   3.000  -1.112  0.00  0.00    +0.166 A 
ATOM     27  C   UNL     1     -11.891   2.466  -1.119  0.00  0.00    +0.054 A 
ATOM     28  O   UNL     1     -15.041   3.774   0.376  0.00  0.00    -0.449 OA
ATOM     29  C   UNL     1     -14.980   4.189   1.753  0.00  0.00    +0.467 C 
ATOM     30  O   UNL     1     -13.983   3.323   2.326  0.00  0.00    -0.452 OA
BRANCH  26  31
ATOM     31  O   UNL     1     -13.802   3.269  -2.286  0.00  0.00    -0.491 OA
ATOM     32  C   UNL     1     -13.088   2.976  -3.489  0.00  0.00    +0.277 C 
ENDBRANCH  26  31
ENDBRANCH  21  22
ENDBRANCH   7  21
TORSDOF 5
