REMARK  Name = ZINC22942812
REMARK  12 active torsions:
REMARK  status: ('A' for Active; 'I' for Inactive)
REMARK    1  A    between atoms: C_1  and  C_2
REMARK    2  A    between atoms: C_5  and  C_8
REMARK    3  A    between atoms: C_8  and  C_10
REMARK    4  A    between atoms: C_10  and  C_11
REMARK    5  A    between atoms: C_11  and  C_13
REMARK    6  A    between atoms: C_11  and  N_19
REMARK    7  A    between atoms: N_22  and  C_25
REMARK    8  A    between atoms: C_25  and  C_27
REMARK    9  A    between atoms: C_25  and  C_37
REMARK   10  A    between atoms: C_27  and  C_28
REMARK   11  A    between atoms: C_28  and  C_30
REMARK   12  A    between atoms: C_33  and  C_36
REMARK                            x       y       z     vdW  Elec       q    Type
REMARK                         _______ _______ _______ _____ _____    ______ ____
ROOT
ATOM      1  N   UNL     1      -1.678  -0.088   2.192  0.00  0.00    +0.386 N 
ATOM      2  C   UNL     1      -1.686  -0.319   3.643  0.00  0.00    -0.062 C 
ATOM      3  C   UNL     1      -2.905   0.372   4.260  0.00  0.00    +0.066 C 
ATOM      4  N   UNL     1      -4.129  -0.152   3.639  0.00  0.00    -0.299 NA
ATOM      5  C   UNL     1      -4.121   0.079   2.188  0.00  0.00    +0.066 C 
ATOM      6  C   UNL     1      -2.902  -0.612   1.571  0.00  0.00    -0.062 C 
ATOM      7  H   UNL     1      -1.649   0.999   2.021  0.00  0.00    -0.081 HD
ENDROOT
BRANCH   1   8
ATOM      8  C   UNL     1      -0.481  -0.672   1.572  0.00  0.00    -0.030 C 
BRANCH   8   9
ATOM      9  C   UNL     1      -0.790  -2.072   1.107  0.00  0.00    -0.061 A 
ATOM     10  C   UNL     1      -1.397  -2.968   1.967  0.00  0.00    +0.002 A 
ATOM     11  C   UNL     1      -1.684  -4.251   1.539  0.00  0.00    +0.000 A 
ATOM     12  C   UNL     1      -1.355  -4.641   0.255  0.00  0.00    +0.000 A 
ATOM     13  C   UNL     1      -0.743  -3.747  -0.604  0.00  0.00    +0.000 A 
ATOM     14  C   UNL     1      -0.460  -2.463  -0.177  0.00  0.00    +0.002 A 
ENDBRANCH   8   9
BRANCH   8  15
ATOM     15  C   UNL     1       0.655  -0.714   2.596  0.00  0.00    +0.069 C 
BRANCH  15  16
ATOM     16  C   UNL     1       1.046   0.693   2.969  0.00  0.00    +0.162 C 
ATOM     17  O   UNL     1       0.476   1.636   2.461  0.00  0.00    -0.292 OA
BRANCH  16  22
ATOM     18  C   UNL     1       5.257   1.592   6.778  0.00  0.00    +0.044 C 
ATOM     19  C   UNL     1       4.153   1.356   5.779  0.00  0.00    -0.050 A 
ATOM     20  C   UNL     1       3.501   2.434   5.207  0.00  0.00    +0.004 A 
ATOM     21  C   UNL     1       2.490   2.227   4.293  0.00  0.00    +0.011 A 
ATOM     22  C   UNL     1       2.124   0.923   3.944  0.00  0.00    +0.017 A 
ATOM     23  C   UNL     1       2.784  -0.161   4.531  0.00  0.00    +0.011 A 
ATOM     24  C   UNL     1       3.796   0.063   5.439  0.00  0.00    +0.004 A 
ENDBRANCH  16  22
ENDBRANCH  15  16
ENDBRANCH   8  15
ENDBRANCH   1   8
BRANCH   4  25
ATOM     25  C   UNL     1      -5.325   0.432   4.259  0.00  0.00    +0.094 C 
BRANCH  25  26
ATOM     26  C   UNL     1      -5.196   1.934   4.284  0.00  0.00    -0.030 A 
ATOM     27  C   UNL     1      -4.319   2.537   5.166  0.00  0.00    +0.005 A 
ATOM     28  C   UNL     1      -4.197   3.914   5.186  0.00  0.00    +0.000 A 
ATOM     29  C   UNL     1      -4.957   4.688   4.329  0.00  0.00    +0.000 A 
ATOM     30  C   UNL     1      -5.837   4.085   3.450  0.00  0.00    +0.000 A 
ATOM     31  C   UNL     1      -5.957   2.708   3.427  0.00  0.00    +0.005 A 
ENDBRANCH  25  26
BRANCH  25  32
ATOM     32  C   UNL     1      -5.467  -0.091   5.689  0.00  0.00    +0.103 C 
BRANCH  32  33
ATOM     33  C   UNL     1      -5.719  -1.576   5.658  0.00  0.00    +0.165 C 
ATOM     34  O   UNL     1      -5.780  -2.159   4.596  0.00  0.00    -0.292 OA
BRANCH  33  35
ATOM     35  C   UNL     1      -5.892  -2.320   6.916  0.00  0.00    +0.017 A 
ATOM     36  C   UNL     1      -5.816  -1.653   8.143  0.00  0.00    +0.011 A 
ATOM     37  C   UNL     1      -5.985  -2.356   9.317  0.00  0.00    +0.004 A 
ATOM     38  C   UNL     1      -6.217  -3.720   9.284  0.00  0.00    -0.050 A 
ATOM     39  C   UNL     1      -6.287  -4.388   8.075  0.00  0.00    +0.004 A 
ATOM     40  C   UNL     1      -6.127  -3.699   6.891  0.00  0.00    +0.011 A 
ATOM     41  C   UNL     1      -6.394  -4.481  10.573  0.00  0.00    +0.044 C 
ENDBRANCH  33  35
ENDBRANCH  32  33
ENDBRANCH  25  32
ENDBRANCH   4  25
TORSDOF 10
