REMARK  Name = ZINC33906115
REMARK  3 active torsions:
REMARK  status: ('A' for Active; 'I' for Inactive)
REMARK    1  A    between atoms: C_6  and  S_7
REMARK    2  A    between atoms: S_7  and  N_10
REMARK    3  A    between atoms: C_14  and  C_16
REMARK                            x       y       z     vdW  Elec       q    Type
REMARK                         _______ _______ _______ _____ _____    ______ ____
ROOT
ATOM      1  S   UNL     1      -1.628  -2.274   0.497  0.00  0.00    +0.062 S 
ATOM      2  O   UNL     1      -1.559  -1.095   1.288  0.00  0.00    -0.153 OA
ATOM      3  O   UNL     1      -0.564  -3.214   0.436  0.00  0.00    -0.153 OA
ENDROOT
BRANCH   1   9
ATOM      4  C   UNL     1      -3.183  -4.504   0.741  0.00  0.00    +0.029 A 
ATOM      5  C   UNL     1      -4.300  -5.199   1.163  0.00  0.00    +0.016 A 
ATOM      6  C   UNL     1      -5.288  -4.550   1.882  0.00  0.00    +0.013 A 
ATOM      7  C   UNL     1      -5.157  -3.205   2.177  0.00  0.00    +0.016 A 
ATOM      8  C   UNL     1      -4.040  -2.510   1.754  0.00  0.00    +0.029 A 
ATOM      9  C   UNL     1      -3.053  -3.160   1.036  0.00  0.00    +0.106 A 
ATOM     10  I   UNL     1      -6.981  -5.604   2.522  0.00  0.00    -0.044 I 
ENDBRANCH   1   9
BRANCH   1  11
ATOM     11  N   UNL     1      -1.916  -1.783  -1.058  0.00  0.00    -0.165 NA
ATOM     12  C   UNL     1      -2.637  -0.560  -1.454  0.00  0.00    +0.110 C 
ATOM     13  C   UNL     1      -2.115  -0.234  -2.876  0.00  0.00    +0.019 C 
ATOM     14  C   UNL     1      -1.956  -1.654  -3.482  0.00  0.00    +0.031 C 
ATOM     15  C   UNL     1      -1.488  -2.493  -2.273  0.00  0.00    +0.165 C 
BRANCH  15  16
ATOM     16  C   UNL     1       0.013  -2.625  -2.288  0.00  0.00    +0.229 C 
ATOM     17  O   UNL     1       0.698  -1.829  -1.682  0.00  0.00    -0.274 OA
ATOM     18  N   UNL     1       0.594  -3.629  -2.975  0.00  0.00    -0.328 N 
ATOM     19  H   UNL     1       0.045  -4.266  -3.460  0.00  0.00    +0.145 HD
ATOM     20  H   UNL     1       1.560  -3.714  -2.985  0.00  0.00    +0.145 HD
ENDBRANCH  15  16
ENDBRANCH   1  11
TORSDOF 3
