REMARK  Name = ZINC38621155
REMARK  10 active torsions:
REMARK  status: ('A' for Active; 'I' for Inactive)
REMARK    1  A    between atoms: C_1  and  C_2
REMARK    2  A    between atoms: C_4  and  C_40
REMARK    3  A    between atoms: C_5  and  N_9
REMARK    4  A    between atoms: C_6  and  C_8
REMARK    5  A    between atoms: C_10  and  C_12
REMARK    6  A    between atoms: N_14  and  C_15
REMARK    7  A    between atoms: C_15  and  C_16
REMARK    8  A    between atoms: C_16  and  C_18
REMARK    9  A    between atoms: C_16  and  N_27
REMARK   10  A    between atoms: N_30  and  C_33
REMARK                            x       y       z     vdW  Elec       q    Type
REMARK                         _______ _______ _______ _____ _____    ______ ____
ROOT
ATOM      1  C   UNL     1       1.283  -8.860   3.564  0.00  0.00    +0.104 C 
ENDROOT
BRANCH   1   2
ATOM      2  C   UNL     1       1.519 -10.348   3.570  0.00  0.00    -0.025 A 
ATOM      3  C   UNL     1       2.719 -10.858   3.111  0.00  0.00    +0.009 A 
ATOM      4  C   UNL     1       2.941 -12.223   3.115  0.00  0.00    +0.050 A 
ATOM      5  C   UNL     1       1.959 -13.083   3.579  0.00  0.00    +0.166 A 
ATOM      6  C   UNL     1       0.750 -12.570   4.041  0.00  0.00    +0.167 A 
ATOM      7  C   UNL     1       0.537 -11.201   4.039  0.00  0.00    +0.054 A 
ATOM      8  O   UNL     1      -0.042 -13.608   4.438  0.00  0.00    -0.453 OA
ATOM      9  C   UNL     1       0.534 -14.783   3.837  0.00  0.00    +0.466 C 
ATOM     10  O   UNL     1       1.925 -14.444   3.687  0.00  0.00    -0.453 OA
ENDBRANCH   1   2
BRANCH   1  11
ATOM     11  N   UNL     1       2.513  -8.167   3.969  0.00  0.00    -0.291 NA
ATOM     12  C   UNL     1       2.982  -8.647   5.276  0.00  0.00    +0.104 C 
ATOM     13  C   UNL     1       4.355  -8.037   5.578  0.00  0.00    +0.120 C 
ATOM     14  N   UNL     1       4.254  -6.575   5.451  0.00  0.00    -0.325 N 
ATOM     15  C   UNL     1       3.666  -6.022   4.222  0.00  0.00    +0.120 C 
ATOM     16  C   UNL     1       2.321  -6.711   3.973  0.00  0.00    +0.104 C 
BRANCH  14  17
ATOM     17  C   UNL     1       4.707  -5.734   6.472  0.00  0.00    +0.065 A 
ATOM     18  C   UNL     1       6.019  -5.280   6.470  0.00  0.00    +0.026 A 
ATOM     19  C   UNL     1       6.463  -4.448   7.480  0.00  0.00    +0.002 A 
ATOM     20  C   UNL     1       5.603  -4.067   8.493  0.00  0.00    +0.003 A 
ATOM     21  C   UNL     1       4.295  -4.517   8.501  0.00  0.00    +0.040 A 
ATOM     22  C   UNL     1       3.842  -5.345   7.490  0.00  0.00    +0.144 A 
ATOM     23  F   UNL     1       2.563  -5.779   7.494  0.00  0.00    -0.204 F 
ENDBRANCH  14  17
ENDBRANCH   1  11
BRANCH   1  24
ATOM     24  C   UNL     1       0.885  -8.412   2.156  0.00  0.00    +0.128 C 
BRANCH  24  27
ATOM     25  C   UNL     1      -0.990  -8.701   0.627  0.00  0.00    +0.299 C 
ATOM     26  O   UNL     1      -0.467  -7.900  -0.120  0.00  0.00    -0.265 OA
ATOM     27  N   UNL     1      -0.394  -9.026   1.791  0.00  0.00    -0.306 N 
ATOM     28  H   UNL     1      -0.813  -9.666   2.388  0.00  0.00    +0.149 HD
BRANCH  25  30
ATOM     29  N   UNL     1      -2.890  -9.001  -0.909  0.00  0.00    -0.277 N 
ATOM     30  C   UNL     1      -2.295  -9.326   0.256  0.00  0.00    +0.303 C 
ATOM     31  O   UNL     1      -2.818 -10.127   1.002  0.00  0.00    -0.265 OA
ATOM     32  H   UNL     1      -2.436  -8.423  -1.541  0.00  0.00    +0.155 HD
BRANCH  29  37
ATOM     33  C   UNL     1      -8.053 -11.016  -2.113  0.00  0.00    +0.044 C 
ATOM     34  C   UNL     1      -6.681 -10.480  -1.793  0.00  0.00    -0.050 A 
ATOM     35  C   UNL     1      -6.458  -9.116  -1.784  0.00  0.00    +0.008 A 
ATOM     36  C   UNL     1      -5.202  -8.622  -1.491  0.00  0.00    -0.029 A 
ATOM     37  C   UNL     1      -4.162  -9.498  -1.205  0.00  0.00    +0.040 A 
ATOM     38  C   UNL     1      -4.390 -10.868  -1.215  0.00  0.00    -0.029 A 
ATOM     39  C   UNL     1      -5.650 -11.355  -1.504  0.00  0.00    +0.008 A 
ATOM     40  C   UNL     1      -3.265 -11.822  -0.906  0.00  0.00    +0.045 C 
ATOM     41  C   UNL     1      -4.960  -7.134  -1.482  0.00  0.00    +0.045 C 
ENDBRANCH  29  37
ENDBRANCH  25  30
ENDBRANCH  24  27
ENDBRANCH   1  24
TORSDOF 7
