REMARK  Name = ZINC02336037
REMARK  12 active torsions:
REMARK  status: ('A' for Active; 'I' for Inactive)
REMARK    1  A    between atoms: C_1  and  N_61
REMARK    2  A    between atoms: C_2  and  N_61
REMARK    3  A    between atoms: C_3  and  C_4
REMARK    4  A    between atoms: C_3  and  N_61
REMARK    5  A    between atoms: C_5  and  C_15
REMARK    6  A    between atoms: N_17  and  N_18
REMARK    7  A    between atoms: C_19  and  C_20
REMARK    8  A    between atoms: C_24  and  O_35
REMARK    9  A    between atoms: C_25  and  O_26
REMARK   10  A    between atoms: O_26  and  C_27
REMARK   11  A    between atoms: C_27  and  C_28
REMARK   12  A    between atoms: O_35  and  C_36
REMARK                            x       y       z     vdW  Elec       q    Type
REMARK                         _______ _______ _______ _____ _____    ______ ____
ROOT
ATOM      1  C   UNL     1      -3.719   7.173   0.167  0.00  0.00    +0.285 C 
ATOM      2  O   UNL     1      -2.687   7.792  -0.009  0.00  0.00    -0.267 OA
ATOM      3  N   UNL     1      -3.702   5.826   0.192  0.00  0.00    -0.202 N 
ATOM      4  H   UNL     1      -4.534   5.332   0.259  0.00  0.00    +0.178 HD
ENDROOT
BRANCH   1   6
ATOM      5  C   UNL     1      -5.160   9.250   0.252  0.00  0.00    +0.063 A 
ATOM      6  C   UNL     1      -4.990   7.898   0.354  0.00  0.00    +0.170 A 
ATOM      7  N   UNL     1      -6.178   7.340   0.647  0.00  0.00    -0.124 NA
ATOM      8  N   UNL     1      -7.074   8.259   0.743  0.00  0.00    -0.058 NA
ATOM      9  N   UNL     1      -6.467   9.498   0.494  0.00  0.00    -0.194 N 
ATOM     10  C   UNL     1      -7.093  10.750   0.496  0.00  0.00    +0.240 A 
ATOM     11  C   UNL     1      -8.513  10.998   0.760  0.00  0.00    +0.206 A 
ATOM     12  N   UNL     1      -8.727  12.283   0.675  0.00  0.00    -0.032 NA
ATOM     13  O   UNL     1      -7.495  12.908   0.361  0.00  0.00    -0.239 OA
ATOM     14  N   UNL     1      -6.511  11.893   0.268  0.00  0.00    -0.027 NA
ATOM     15  N   UNL     1      -9.468  10.031   1.052  0.00  0.00    -0.337 N 
ATOM     16  H   UNL     1      -9.214   9.096   1.093  0.00  0.00    +0.144 HD
ATOM     17  H   UNL     1     -10.389  10.292   1.213  0.00  0.00    +0.144 HD
BRANCH   5  18
ATOM     18  C   UNL     1      -4.097  10.268  -0.068  0.00  0.00    -0.021 C 
BRANCH  18  21
ATOM     19  C   UNL     1      -2.171  11.414   0.850  0.00  0.00    -0.096 C 
ATOM     20  C   UNL     1      -4.231  11.303   2.117  0.00  0.00    -0.096 C 
ATOM     21  N   UNL     1      -3.353  10.586   1.169  0.00  0.00    +0.380 N 
ATOM     22  H   UNL     1      -3.039   9.710   1.604  0.00  0.00    -0.082 HD
ENDBRANCH  18  21
ENDBRANCH   5  18
ENDBRANCH   1   6
BRANCH   3  23
ATOM     23  N   UNL     1      -2.483   5.139   0.120  0.00  0.00    -0.187 NA
ATOM     24  C   UNL     1      -2.458   3.847   0.241  0.00  0.00    +0.142 C 
BRANCH  24  25
ATOM     25  C   UNL     1      -1.168   3.135   0.277  0.00  0.00    +0.040 A 
ATOM     26  C   UNL     1       0.031   3.854   0.286  0.00  0.00    +0.013 A 
ATOM     27  C   UNL     1       1.236   3.185   0.315  0.00  0.00    +0.004 A 
ATOM     28  C   UNL     1       1.266   1.801   0.344  0.00  0.00    +0.049 A 
ATOM     29  C   UNL     1       0.085   1.075   0.340  0.00  0.00    +0.162 A 
ATOM     30  C   UNL     1      -1.137   1.736   0.306  0.00  0.00    +0.171 A 
BRANCH  29  31
ATOM     31  O   UNL     1       0.122  -0.284   0.368  0.00  0.00    -0.491 OA
ATOM     32  C   UNL     1       1.413  -0.897   0.401  0.00  0.00    +0.277 C 
ENDBRANCH  29  31
BRANCH  30  33
ATOM     33  O   UNL     1      -2.297   1.028   0.302  0.00  0.00    -0.483 OA
BRANCH  33  34
ATOM     34  C   UNL     1      -2.814   0.621   1.571  0.00  0.00    +0.264 C 
BRANCH  34  35
ATOM     35  C   UNL     1      -4.026  -0.250   1.363  0.00  0.00    -0.010 A 
ATOM     36  C   UNL     1      -5.271   0.327   1.196  0.00  0.00    +0.010 A 
ATOM     37  C   UNL     1      -6.382  -0.471   1.001  0.00  0.00    +0.039 A 
ATOM     38  C   UNL     1      -6.250  -1.849   0.984  0.00  0.00    +0.123 A 
ATOM     39  C   UNL     1      -5.003  -2.426   1.157  0.00  0.00    +0.039 A 
ATOM     40  C   UNL     1      -3.893  -1.626   1.346  0.00  0.00    +0.010 A 
ATOM     41  F   UNL     1      -7.337  -2.630   0.798  0.00  0.00    -0.205 F 
ENDBRANCH  34  35
ENDBRANCH  33  34
ENDBRANCH  30  33
ENDBRANCH  24  25
ENDBRANCH   3  23
TORSDOF 9
