REMARK  Name = ZINC11846915
REMARK  8 active torsions:
REMARK  status: ('A' for Active; 'I' for Inactive)
REMARK    1  A    between atoms: C_1  and  N_2
REMARK    2  A    between atoms: C_6  and  C_7
REMARK    3  A    between atoms: C_7  and  C_9
REMARK    4  A    between atoms: C_7  and  N_48
REMARK    5  A    between atoms: C_9  and  N_10
REMARK    6  A    between atoms: N_10  and  S_11
REMARK    7  A    between atoms: S_11  and  C_14
REMARK    8  A    between atoms: C_18  and  N_20
REMARK                            x       y       z     vdW  Elec       q    Type
REMARK                         _______ _______ _______ _____ _____    ______ ____
ROOT
ATOM      1  C   UNL     1      -1.327   6.039  -2.280  0.00  0.00    +0.096 C 
ENDROOT
BRANCH   1   2
ATOM      2  N   UNL     1      -2.361   6.755  -1.529  0.00  0.00    -0.191 NA
ATOM      3  H   UNL     1      -2.732   7.580  -1.879  0.00  0.00    +0.148 HD
BRANCH   2   4
ATOM      4  S   UNL     1      -2.898   6.155  -0.081  0.00  0.00    +0.058 S 
ATOM      5  O   UNL     1      -3.192   4.782  -0.295  0.00  0.00    -0.153 OA
ATOM      6  O   UNL     1      -3.866   7.075   0.406  0.00  0.00    -0.153 OA
BRANCH   4   7
ATOM      7  C   UNL     1      -1.541   6.211   1.041  0.00  0.00    +0.107 A 
ATOM      8  C   UNL     1      -1.332   7.335   1.818  0.00  0.00    +0.028 A 
ATOM      9  C   UNL     1      -0.267   7.379   2.698  0.00  0.00    +0.004 A 
ATOM     10  C   UNL     1       0.589   6.298   2.802  0.00  0.00    +0.033 A 
ATOM     11  C   UNL     1       0.383   5.177   2.021  0.00  0.00    +0.128 A 
ATOM     12  C   UNL     1      -0.685   5.131   1.144  0.00  0.00    +0.061 A 
BRANCH  11  13
ATOM     13  N   UNL     1       1.304   4.022   2.127  0.00  0.00    +0.056 N 
ATOM     14  O   UNL     1       2.242   4.061   2.902  0.00  0.00    -0.126 OA
ATOM     15  O   UNL     1       1.123   3.034   1.439  0.00  0.00    -0.126 OA
ENDBRANCH  11  13
ENDBRANCH   4   7
ENDBRANCH   2   4
ENDBRANCH   1   2
BRANCH   1  16
ATOM     16  C   UNL     1      -1.276   6.573  -3.713  0.00  0.00    -0.005 C 
BRANCH  16  22
ATOM     17  C   UNL     1      -2.423   3.738  -4.225  0.00  0.00    +0.148 C 
ATOM     18  N   UNL     1      -3.060   4.991  -4.637  0.00  0.00    -0.355 N 
ATOM     19  C   UNL     1      -4.245   5.098  -5.302  0.00  0.00    +0.085 A 
ATOM     20  C   UNL     1      -4.499   6.407  -5.503  0.00  0.00    +0.019 A 
ATOM     21  C   UNL     1      -3.435   7.135  -4.936  0.00  0.00    +0.021 A 
ATOM     22  C   UNL     1      -2.566   6.243  -4.418  0.00  0.00    +0.006 A 
ENDBRANCH  16  22
BRANCH  16  27
ATOM     23  C   UNL     1       0.065   8.405  -2.832  0.00  0.00    -0.078 C 
ATOM     24  C   UNL     1       0.426   9.827  -3.327  0.00  0.00    -0.020 C 
ATOM     25  C   UNL     1       0.189   9.733  -4.852  0.00  0.00    -0.020 C 
ATOM     26  C   UNL     1      -0.779   8.549  -5.036  0.00  0.00    -0.078 C 
ATOM     27  N   UNL     1      -1.077   8.053  -3.691  0.00  0.00    +0.386 N 
ATOM     28  H   UNL     1      -1.929   8.503  -3.337  0.00  0.00    -0.081 HD
ENDBRANCH  16  27
ENDBRANCH   1  16
TORSDOF 7
