REMARK  Name = ZINC47963810
REMARK  8 active torsions:
REMARK  status: ('A' for Active; 'I' for Inactive)
REMARK    1  A    between atoms: C_1  and  C_2
REMARK    2  A    between atoms: C_7  and  N_26
REMARK    3  A    between atoms: C_12  and  C_14
REMARK    4  A    between atoms: N_16  and  C_17
REMARK    5  A    between atoms: C_17  and  C_18
REMARK    6  A    between atoms: C_18  and  N_23
REMARK    7  A    between atoms: N_23  and  C_24
REMARK    8  A    between atoms: N_23  and  C_25
REMARK                            x       y       z     vdW  Elec       q    Type
REMARK                         _______ _______ _______ _____ _____    ______ ____
ROOT
ATOM      1  C   UNL     1       1.733  -2.860   1.219  0.00  0.00    +0.029 C 
ATOM      2  C   UNL     1       1.867  -1.430   0.692  0.00  0.00    +0.083 C 
ATOM      3  C   UNL     1       1.909  -1.430  -0.845  0.00  0.00    +0.059 C 
ATOM      4  C   UNL     1       0.702  -0.618  -1.258  0.00  0.00    -0.022 A 
ATOM      5  C   UNL     1       0.224  -0.276  -2.508  0.00  0.00    +0.038 A 
ATOM      6  C   UNL     1      -0.921   0.490  -2.629  0.00  0.00    +0.127 A 
ATOM      7  C   UNL     1      -1.588   0.914  -1.494  0.00  0.00    +0.034 A 
ATOM      8  C   UNL     1      -1.115   0.576  -0.244  0.00  0.00    +0.026 A 
ATOM      9  C   UNL     1       0.041  -0.198  -0.114  0.00  0.00    +0.040 A 
ATOM     10  N   UNL     1       0.681  -0.645   1.046  0.00  0.00    -0.260 N 
ATOM     11  C   UNL     1       0.270  -0.392   2.304  0.00  0.00    +0.306 C 
ATOM     12  O   UNL     1      -0.788   0.171   2.495  0.00  0.00    -0.265 OA
ENDROOT
BRANCH  11  13
ATOM     13  C   UNL     1       1.116  -0.805   3.464  0.00  0.00    +0.299 C 
ATOM     14  O   UNL     1       2.224  -1.262   3.274  0.00  0.00    -0.265 OA
ATOM     15  N   UNL     1       0.649  -0.669   4.721  0.00  0.00    -0.309 N 
ATOM     16  H   UNL     1      -0.236  -0.303   4.872  0.00  0.00    +0.149 HD
BRANCH  15  17
ATOM     17  C   UNL     1       1.479  -1.073   5.858  0.00  0.00    +0.093 C 
BRANCH  17  18
ATOM     18  C   UNL     1       0.772  -0.703   7.163  0.00  0.00    -0.050 C 
ATOM     19  C   UNL     1       0.515   0.818   7.211  0.00  0.00    -0.010 C 
ATOM     20  C   UNL     1       0.738   1.195   8.696  0.00  0.00    -0.001 C 
ATOM     21  C   UNL     1       1.935   0.298   9.100  0.00  0.00    -0.001 C 
ATOM     22  C   UNL     1       1.675  -1.033   8.364  0.00  0.00    -0.010 C 
BRANCH  18  23
ATOM     23  N   UNL     1      -0.498  -1.433   7.272  0.00  0.00    +0.381 N 
ATOM     24  C   UNL     1      -0.227  -2.873   7.373  0.00  0.00    -0.096 C 
ATOM     25  C   UNL     1      -1.219  -0.985   8.471  0.00  0.00    -0.096 C 
ATOM     26  H   UNL     1      -1.060  -1.253   6.454  0.00  0.00    -0.082 HD
ENDBRANCH  18  23
ENDBRANCH  17  18
ENDBRANCH  15  17
ENDBRANCH  11  13
BRANCH   6  27
ATOM     27  N   UNL     1      -1.431   0.855  -3.970  0.00  0.00    +0.056 N 
ATOM     28  O   UNL     1      -0.847   0.483  -4.961  0.00  0.00    -0.126 OA
ATOM     29  O   UNL     1      -2.432   1.525  -4.074  0.00  0.00    -0.126 OA
ENDBRANCH   6  27
TORSDOF 5
