REMARK  Name = ZINC09408868
REMARK  8 active torsions:
REMARK  status: ('A' for Active; 'I' for Inactive)
REMARK    1  A    between atoms: C_1  and  C_2
REMARK    2  A    between atoms: C_2  and  O_32
REMARK    3  A    between atoms: C_6  and  O_10
REMARK    4  A    between atoms: C_11  and  C_25
REMARK    5  A    between atoms: C_13  and  C_15
REMARK    6  A    between atoms: C_15  and  O_17
REMARK    7  A    between atoms: O_17  and  C_18
REMARK    8  A    between atoms: C_18  and  C_19
REMARK                            x       y       z     vdW  Elec       q    Type
REMARK                         _______ _______ _______ _____ _____    ______ ____
ROOT
ATOM      1  C   UNL     1       4.782   3.155  -3.987  0.00  0.00    +0.042 C 
ATOM      2  C   UNL     1       3.640   2.989  -2.983  0.00  0.00    +0.082 C 
ATOM      3  C   UNL     1       4.221   2.787  -1.578  0.00  0.00    +0.090 C 
ATOM      4  C   UNL     1       3.100   2.381  -0.653  0.00  0.00    +0.046 A 
ATOM      5  C   UNL     1       1.895   1.921  -1.075  0.00  0.00    +0.044 A 
ATOM      6  C   UNL     1       1.117   1.651   0.054  0.00  0.00    +0.235 A 
ATOM      7  N   UNL     1       1.832   1.943   1.117  0.00  0.00    -0.136 NA
ATOM      8  N   UNL     1       3.088   2.399   0.690  0.00  0.00    -0.278 N 
ATOM      9  H   UNL     1       3.841   2.687   1.281  0.00  0.00    +0.189 HD
ATOM     10  C   UNL     1       1.514   1.750  -2.525  0.00  0.00    +0.072 C 
ATOM     11  C   UNL     1       2.795   1.771  -3.367  0.00  0.00    +0.141 C 
ENDROOT
BRANCH  10  12
ATOM     12  C   UNL     1       0.805   0.433  -2.711  0.00  0.00    -0.038 A 
ATOM     13  C   UNL     1       1.214  -0.679  -1.999  0.00  0.00    +0.004 A 
ATOM     14  C   UNL     1       0.565  -1.887  -2.169  0.00  0.00    +0.001 A 
ATOM     15  C   UNL     1      -0.495  -1.984  -3.052  0.00  0.00    +0.015 A 
ATOM     16  C   UNL     1      -0.904  -0.872  -3.764  0.00  0.00    +0.018 A 
ATOM     17  C   UNL     1      -0.257   0.339  -3.590  0.00  0.00    +0.019 A 
ATOM     18 BR   UNL     1      -2.354  -1.003  -4.972  0.00  0.00    -0.050 Br
ENDBRANCH  10  12
BRANCH   6  19
ATOM     19  O   UNL     1      -0.157   1.175   0.053  0.00  0.00    -0.491 OA
ATOM     20  H   UNL     1      -0.475   1.073   0.995  0.00  0.00    +0.294 HD
ENDBRANCH   6  19
BRANCH  11  21
ATOM     21  C   UNL     1       3.584   0.512  -3.112  0.00  0.00    +0.314 C 
ATOM     22  O   UNL     1       3.879   0.202  -1.982  0.00  0.00    -0.250 OA
BRANCH  21  23
ATOM     23  O   UNL     1       3.959  -0.265  -4.141  0.00  0.00    -0.460 OA
BRANCH  23  24
ATOM     24  C   UNL     1       4.615  -1.518  -3.815  0.00  0.00    +0.267 C 
BRANCH  24  25
ATOM     25  C   UNL     1       4.851  -2.305  -5.079  0.00  0.00    -0.010 A 
ATOM     26  C   UNL     1       3.854  -3.118  -5.583  0.00  0.00    +0.007 A 
ATOM     27  C   UNL     1       4.069  -3.835  -6.745  0.00  0.00    +0.000 A 
ATOM     28  C   UNL     1       5.285  -3.748  -7.396  0.00  0.00    +0.000 A 
ATOM     29  C   UNL     1       6.284  -2.939  -6.889  0.00  0.00    +0.000 A 
ATOM     30  C   UNL     1       6.067  -2.217  -5.730  0.00  0.00    +0.007 A 
ENDBRANCH  24  25
ENDBRANCH  23  24
ENDBRANCH  21  23
ENDBRANCH  11  21
BRANCH   2  31
ATOM     31  O   UNL     1       2.821   4.159  -2.995  0.00  0.00    -0.388 OA
ATOM     32  H   UNL     1       3.291   4.971  -2.761  0.00  0.00    +0.210 HD
ENDBRANCH   2  31
TORSDOF 7
