REMARK  Name = ZINC09510413
REMARK  8 active torsions:
REMARK  status: ('A' for Active; 'I' for Inactive)
REMARK    1  A    between atoms: C_1  and  C_2
REMARK    2  A    between atoms: C_2  and  C_3
REMARK    3  A    between atoms: C_6  and  N_9
REMARK    4  A    between atoms: C_14  and  C_34
REMARK    5  A    between atoms: C_16  and  C_21
REMARK    6  A    between atoms: C_16  and  C_32
REMARK    7  A    between atoms: C_21  and  C_22
REMARK    8  A    between atoms: C_39  and  O_40
REMARK                            x       y       z     vdW  Elec       q    Type
REMARK                         _______ _______ _______ _____ _____    ______ ____
ROOT
ATOM      1  N   UNL     1       1.988   1.393   1.737  0.00  0.00    -0.210 N 
ATOM      2  C   UNL     1       0.682   1.599   1.368  0.00  0.00    +0.229 C 
ATOM      3  O   UNL     1      -0.209   2.075   2.038  0.00  0.00    -0.275 OA
ATOM      4  C   UNL     1       0.602   1.118  -0.009  0.00  0.00    +0.077 C 
ATOM      5  C   UNL     1      -0.248   1.495  -1.168  0.00  0.00    -0.023 C 
ATOM      6  C   UNL     1       1.991   0.866  -1.864  0.00  0.00    +0.052 C 
ATOM      7  C   UNL     1       2.029   1.560  -0.523  0.00  0.00    +0.086 C 
ATOM      8  C   UNL     1       2.803   1.138   0.665  0.00  0.00    +0.229 C 
ATOM      9  O   UNL     1       3.920   0.667   0.686  0.00  0.00    -0.275 OA
ATOM     10  N   UNL     1       0.624   1.214  -2.355  0.00  0.00    +0.396 N 
ATOM     11  H   UNL     1       0.672   2.046  -2.955  0.00  0.00    -0.083 HD
ATOM     12  H   UNL     1       0.237   0.428  -2.891  0.00  0.00    -0.083 HD
ENDROOT
BRANCH   1  16
ATOM     13  C   UNL     1       3.327   1.527   5.682  0.00  0.00    -0.048 A 
ATOM     14  C   UNL     1       1.991   1.747   5.399  0.00  0.00    +0.005 A 
ATOM     15  C   UNL     1       1.545   1.703   4.093  0.00  0.00    +0.024 A 
ATOM     16  C   UNL     1       2.438   1.438   3.064  0.00  0.00    +0.044 A 
ATOM     17  C   UNL     1       3.777   1.212   3.352  0.00  0.00    +0.024 A 
ATOM     18  C   UNL     1       4.219   1.262   4.660  0.00  0.00    +0.005 A 
BRANCH  13  20
ATOM     19  C   UNL     1       3.712   0.180   7.728  0.00  0.00    +0.009 C 
ATOM     20  C   UNL     1       3.811   1.575   7.109  0.00  0.00    +0.032 C 
ENDBRANCH  13  20
ENDBRANCH   1  16
BRANCH   5  21
ATOM     21  C   UNL     1      -0.620   2.954  -1.094  0.00  0.00    -0.019 A 
ATOM     22  C   UNL     1       0.158   3.899  -1.733  0.00  0.00    +0.005 A 
ATOM     23  C   UNL     1      -0.186   5.237  -1.670  0.00  0.00    +0.000 A 
ATOM     24  C   UNL     1      -1.303   5.633  -0.958  0.00  0.00    +0.004 A 
ATOM     25  C   UNL     1      -2.082   4.692  -0.313  0.00  0.00    +0.045 A 
ATOM     26  C   UNL     1      -1.742   3.348  -0.380  0.00  0.00    +0.118 A 
BRANCH  26  27
ATOM     27  O   UNL     1      -2.507   2.420   0.254  0.00  0.00    -0.507 OA
ATOM     28  H   UNL     1      -2.286   2.299   1.187  0.00  0.00    +0.292 HD
ENDBRANCH  26  27
ENDBRANCH   5  21
BRANCH   6  29
ATOM     29  C   UNL     1       3.055   1.412  -2.781  0.00  0.00    +0.347 C 
ATOM     30  O   UNL     1       4.046   1.925  -2.318  0.00  0.00    -0.248 OA
ATOM     31  O   UNL     1       2.901   1.329  -4.112  0.00  0.00    -0.248 OA
ENDBRANCH   6  29
BRANCH   6  32
ATOM     32  C   UNL     1       2.145  -0.647  -1.697  0.00  0.00    +0.037 C 
BRANCH  32  33
ATOM     33  C   UNL     1       2.134  -1.306  -3.052  0.00  0.00    -0.023 A 
ATOM     34  C   UNL     1       1.070  -1.841  -3.672  0.00  0.00    +0.087 A 
ATOM     35  N   UNL     1       1.444  -2.346  -4.887  0.00  0.00    -0.360 N 
ATOM     36  H   UNL     1       0.848  -2.782  -5.516  0.00  0.00    +0.165 HD
ATOM     37  C   UNL     1       2.791  -2.144  -5.085  0.00  0.00    +0.047 A 
ATOM     38  C   UNL     1       3.282  -1.478  -3.946  0.00  0.00    +0.003 A 
ATOM     39  C   UNL     1       4.635  -1.144  -3.864  0.00  0.00    +0.010 A 
ATOM     40  C   UNL     1       5.475  -1.458  -4.895  0.00  0.00    +0.001 A 
ATOM     41  C   UNL     1       4.995  -2.109  -6.022  0.00  0.00    +0.002 A 
ATOM     42  C   UNL     1       3.664  -2.452  -6.122  0.00  0.00    +0.026 A 
ENDBRANCH  32  33
ENDBRANCH   6  32
TORSDOF 7
