REMARK  Name = ZINC54304603
REMARK  5 active torsions:
REMARK  status: ('A' for Active; 'I' for Inactive)
REMARK    1  A    between atoms: C_1  and  C_2
REMARK    2  A    between atoms: C_2  and  C_4
REMARK    3  A    between atoms: C_2  and  N_10
REMARK    4  A    between atoms: C_17  and  C_20
REMARK    5  A    between atoms: C_20  and  C_21
REMARK                            x       y       z     vdW  Elec       q    Type
REMARK                         _______ _______ _______ _____ _____    ______ ____
ROOT
ATOM      1  N   UNL     1      -1.372  -0.512   0.012  0.00  0.00    -0.292 N 
ATOM      2  C   UNL     1      -2.051  -0.643  -1.145  0.00  0.00    +0.303 C 
ATOM      3  O   UNL     1      -1.557  -0.255  -2.186  0.00  0.00    -0.253 OA
ATOM      4  N   UNL     1      -3.277  -1.203  -1.147  0.00  0.00    -0.285 N 
ATOM      5  C   UNL     1      -3.935  -1.569   0.115  0.00  0.00    +0.109 C 
ATOM      6  C   UNL     1      -4.353  -3.041   0.043  0.00  0.00    +0.019 C 
ATOM      7  C   UNL     1      -5.214  -3.263  -1.202  0.00  0.00    +0.007 C 
ATOM      8  C   UNL     1      -4.398  -2.931  -2.454  0.00  0.00    +0.017 C 
ATOM      9  C   UNL     1      -3.983  -1.453  -2.411  0.00  0.00    +0.113 C 
ATOM     10  H   UNL     1      -1.794  -0.753   0.852  0.00  0.00    +0.151 HD
ENDROOT
BRANCH   1  12
ATOM     11  C   UNL     1      -0.016   1.524   0.010  0.00  0.00    +0.033 C 
ATOM     12  C   UNL     1       0.003  -0.006   0.002  0.00  0.00    +0.108 C 
BRANCH  12  13
ATOM     13  C   UNL     1       0.732  -0.506   1.222  0.00  0.00    +0.011 A 
ATOM     14  C   UNL     1       2.010  -0.943   1.334  0.00  0.00    +0.014 A 
ATOM     15  C   UNL     1       2.471  -1.360   2.569  0.00  0.00    +0.028 A 
ATOM     16  C   UNL     1       1.629  -1.319   3.632  0.00  0.00    +0.078 A 
ATOM     17  S   UNL     1       0.137  -0.670   2.898  0.00  0.00    -0.080 S 
ATOM     18 CL   UNL     1       1.928  -1.775   5.281  0.00  0.00    -0.076 Cl
ENDBRANCH  12  13
ENDBRANCH   1  12
BRANCH   8  19
ATOM     19  C   UNL     1      -5.249  -3.185  -3.700  0.00  0.00    +0.130 C 
BRANCH  19  20
ATOM     20  C   UNL     1      -4.408  -2.977  -4.934  0.00  0.00    +0.356 C 
ATOM     21  O   UNL     1      -3.237  -2.655  -4.826  0.00  0.00    -0.246 OA
ATOM     22  O   UNL     1      -4.899  -3.130  -6.039  0.00  0.00    -0.246 OA
ENDBRANCH  19  20
ENDBRANCH   8  19
TORSDOF 4
