REMARK  Name = ZINC05207838
REMARK  6 active torsions:
REMARK  status: ('A' for Active; 'I' for Inactive)
REMARK    1  A    between atoms: C_1  and  C_2
REMARK    2  A    between atoms: C_2  and  C_30
REMARK    3  A    between atoms: C_6  and  S_16
REMARK    4  A    between atoms: C_8  and  C_10
REMARK    5  A    between atoms: S_16  and  C_17
REMARK    6  A    between atoms: C_17  and  C_18
REMARK                            x       y       z     vdW  Elec       q    Type
REMARK                         _______ _______ _______ _____ _____    ______ ____
ROOT
ATOM      1  C   UNL     1      -0.255  -2.503   1.889  0.00  0.00    +0.041 C 
ATOM      2  C   UNL     1      -0.031  -2.753   0.396  0.00  0.00    +0.070 C 
ATOM      3  C   UNL     1       1.310  -2.150  -0.029  0.00  0.00    +0.090 C 
ATOM      4  C   UNL     1       1.219  -0.647  -0.014  0.00  0.00    +0.054 A 
ATOM      5  C   UNL     1       0.002  -0.004   0.002  0.00  0.00    +0.031 A 
ATOM      6  C   UNL     1      -0.017   1.395   0.010  0.00  0.00    +0.107 A 
ATOM      7  N   UNL     1       1.137   2.055   0.002  0.00  0.00    -0.221 NA
ATOM      8  C   UNL     1       2.288   1.398  -0.011  0.00  0.00    +0.161 A 
ATOM      9  N   UNL     1       2.333   0.074  -0.018  0.00  0.00    -0.232 NA
ATOM     10  C   UNL     1      -1.296  -0.764   0.015  0.00  0.00    +0.200 C 
ATOM     11  O   UNL     1      -1.073  -2.124  -0.358  0.00  0.00    -0.369 OA
ATOM     12  C   UNL     1      -0.033  -4.258   0.121  0.00  0.00    +0.041 C 
ENDROOT
BRANCH   8  13
ATOM     13  C   UNL     1       3.558   2.165  -0.017  0.00  0.00    +0.019 A 
ATOM     14  C   UNL     1       4.779   1.494  -0.025  0.00  0.00    +0.011 A 
ATOM     15  C   UNL     1       5.958   2.213  -0.036  0.00  0.00    +0.001 A 
ATOM     16  C   UNL     1       5.928   3.596  -0.028  0.00  0.00    +0.000 A 
ATOM     17  C   UNL     1       4.718   4.266  -0.015  0.00  0.00    +0.001 A 
ATOM     18  C   UNL     1       3.533   3.558  -0.009  0.00  0.00    +0.011 A 
ENDBRANCH   8  13
BRANCH   6  19
ATOM     19  S   UNL     1      -1.547   2.269   0.022  0.00  0.00    -0.098 S 
BRANCH  19  20
ATOM     20  C   UNL     1      -0.936   3.972   0.028  0.00  0.00    +0.150 C 
BRANCH  20  21
ATOM     21  C   UNL     1      -2.104   4.925   0.039  0.00  0.00    +0.118 A 
ATOM     22  N   UNL     1      -2.703   5.411   1.159  0.00  0.00    -0.341 N 
ATOM     23  H   UNL     1      -2.450   5.203   2.104  0.00  0.00    +0.167 HD
ATOM     24  C   UNL     1      -3.724   6.246   0.750  0.00  0.00    +0.066 A 
ATOM     25  C   UNL     1      -4.668   7.016   1.415  0.00  0.00    +0.028 A 
ATOM     26  C   UNL     1      -5.576   7.758   0.691  0.00  0.00    +0.002 A 
ATOM     27  C   UNL     1      -5.552   7.741  -0.697  0.00  0.00    +0.002 A 
ATOM     28  C   UNL     1      -4.629   6.990  -1.368  0.00  0.00    +0.030 A 
ATOM     29  C   UNL     1      -3.699   6.228  -0.654  0.00  0.00    +0.089 A 
ATOM     30  N   UNL     1      -2.683   5.406  -1.022  0.00  0.00    -0.232 NA
ENDBRANCH  20  21
ENDBRANCH  19  20
ENDBRANCH   6  19
TORSDOF 4
