REMARK  Name = ZINC20849926
REMARK  7 active torsions:
REMARK  status: ('A' for Active; 'I' for Inactive)
REMARK    1  A    between atoms: C_1  and  C_2
REMARK    2  A    between atoms: C_2  and  C_35
REMARK    3  A    between atoms: C_6  and  C_25
REMARK    4  A    between atoms: C_11  and  S_13
REMARK    5  A    between atoms: S_13  and  C_14
REMARK    6  A    between atoms: C_14  and  C_15
REMARK    7  A    between atoms: C_18  and  N_21
REMARK                            x       y       z     vdW  Elec       q    Type
REMARK                         _______ _______ _______ _____ _____    ______ ____
ROOT
ATOM      1  C   UNL     1     -11.109   7.201   0.091  0.00  0.00    +0.011 C 
ATOM      2  C   UNL     1     -10.352   8.510   0.320  0.00  0.00    -0.023 C 
ATOM      3  C   UNL     1      -8.955   8.209   0.867  0.00  0.00    +0.058 C 
ATOM      4  C   UNL     1      -8.183   7.385  -0.136  0.00  0.00    +0.020 C 
ATOM      5  C   UNL     1      -8.406   7.518  -1.461  0.00  0.00    +0.041 C 
ATOM      6  C   UNL     1      -7.648   6.707  -2.489  0.00  0.00    +0.177 C 
ATOM      7  N   UNL     1      -6.492   6.070  -1.870  0.00  0.00    -0.220 N 
ATOM      8  C   UNL     1      -6.322   5.978  -0.528  0.00  0.00    +0.219 A 
ATOM      9  N   UNL     1      -5.203   5.344  -0.303  0.00  0.00    -0.187 NA
ATOM     10  C   UNL     1      -4.625   5.028  -1.471  0.00  0.00    +0.211 A 
ATOM     11  N   UNL     1      -5.387   5.455  -2.456  0.00  0.00    -0.141 NA
ATOM     12  N   UNL     1      -7.248   6.506   0.356  0.00  0.00    -0.287 N 
ATOM     13  C   UNL     1      -9.367   8.425  -1.944  0.00  0.00    +0.164 C 
ATOM     14  O   UNL     1      -9.528   8.537  -3.143  0.00  0.00    -0.292 OA
ATOM     15  C   UNL     1     -10.198   9.258  -1.009  0.00  0.00    +0.086 C 
ATOM     16  C   UNL     1     -11.119   9.382   1.317  0.00  0.00    +0.011 C 
ATOM     17  H   UNL     1      -7.251   6.241   1.424  0.00  0.00    +0.155 HD
ENDROOT
BRANCH   6  18
ATOM     18  C   UNL     1      -8.556   5.648  -3.059  0.00  0.00    -0.000 A 
ATOM     19  C   UNL     1      -9.102   4.686  -2.230  0.00  0.00    +0.007 A 
ATOM     20  C   UNL     1      -9.940   3.718  -2.752  0.00  0.00    +0.000 A 
ATOM     21  C   UNL     1     -10.223   3.705  -4.105  0.00  0.00    +0.001 A 
ATOM     22  C   UNL     1      -9.674   4.663  -4.936  0.00  0.00    +0.020 A 
ATOM     23  C   UNL     1      -8.840   5.636  -4.413  0.00  0.00    +0.046 A 
ATOM     24 CL   UNL     1      -8.150   6.840  -5.456  0.00  0.00    -0.083 Cl
ENDBRANCH   6  18
BRANCH  10  25
ATOM     25  S   UNL     1      -3.096   4.173  -1.658  0.00  0.00    -0.080 S 
BRANCH  25  26
ATOM     26  C   UNL     1      -2.553   3.869   0.045  0.00  0.00    +0.112 C 
BRANCH  26  27
ATOM     27  C   UNL     1      -1.238   3.133   0.029  0.00  0.00    -0.037 A 
ATOM     28  C   UNL     1      -1.219   1.751   0.017  0.00  0.00    +0.007 A 
ATOM     29  C   UNL     1      -0.013   1.076   0.008  0.00  0.00    +0.033 A 
ATOM     30  C   UNL     1       1.175   1.783   0.000  0.00  0.00    +0.126 A 
ATOM     31  C   UNL     1       1.156   3.165   0.008  0.00  0.00    +0.033 A 
ATOM     32  C   UNL     1      -0.050   3.840   0.022  0.00  0.00    +0.007 A 
BRANCH  30  33
ATOM     33  N   UNL     1       2.467   1.061  -0.015  0.00  0.00    +0.056 N 
ATOM     34  O   UNL     1       2.483  -0.157  -0.022  0.00  0.00    -0.126 OA
ATOM     35  O   UNL     1       3.513   1.684  -0.022  0.00  0.00    -0.126 OA
ENDBRANCH  30  33
ENDBRANCH  26  27
ENDBRANCH  25  26
ENDBRANCH  10  25
TORSDOF 5
