REMARK  Name = ZINC12368971
REMARK  12 active torsions:
REMARK  status: ('A' for Active; 'I' for Inactive)
REMARK    1  A    between atoms: C_1  and  C_2
REMARK    2  A    between atoms: C_3  and  C_15
REMARK    3  A    between atoms: C_15  and  O_17
REMARK    4  A    between atoms: O_17  and  N_18
REMARK    5  A    between atoms: N_18  and  C_19
REMARK    6  A    between atoms: C_19  and  C_21
REMARK    7  A    between atoms: C_19  and  N_50
REMARK    8  A    between atoms: C_24  and  O_27
REMARK    9  A    between atoms: O_27  and  S_28
REMARK   10  A    between atoms: S_28  and  N_31
REMARK   11  A    between atoms: N_31  and  C_32
REMARK   12  A    between atoms: N_31  and  C_33
REMARK                            x       y       z     vdW  Elec       q    Type
REMARK                         _______ _______ _______ _____ _____    ______ ____
ROOT
ATOM      1  N   UNL     1      -1.184  -0.514   0.703  0.00  0.00    -0.162 NA
ATOM      2  H   UNL     1      -1.018  -0.576   1.696  0.00  0.00    +0.166 HD
ENDROOT
BRANCH   1   3
ATOM      3  O   UNL     1      -1.554  -1.666   0.218  0.00  0.00    -0.367 OA
BRANCH   3   4
ATOM      4  C   UNL     1      -2.636  -2.246   0.776  0.00  0.00    +0.362 C 
ATOM      5  O   UNL     1      -3.219  -1.694   1.689  0.00  0.00    -0.243 OA
BRANCH   4   8
ATOM      6  C   UNL     1      -1.731  -5.042   1.808  0.00  0.00    +0.087 C 
ATOM      7  C   UNL     1      -2.732  -4.778   0.714  0.00  0.00    +0.117 A 
ATOM      8  C   UNL     1      -3.111  -3.545   0.280  0.00  0.00    +0.112 A 
ATOM      9  C   UNL     1      -4.094  -3.783  -0.796  0.00  0.00    +0.076 A 
ATOM     10  C   UNL     1      -4.210  -5.177  -0.895  0.00  0.00    +0.177 A 
ATOM     11  O   UNL     1      -3.385  -5.721   0.024  0.00  0.00    -0.456 OA
ATOM     12  C   UNL     1      -5.076  -5.724  -1.836  0.00  0.00    +0.204 A 
ATOM     13  C   UNL     1      -5.811  -4.895  -2.662  0.00  0.00    +0.200 A 
ATOM     14  C   UNL     1      -5.694  -3.514  -2.563  0.00  0.00    +0.197 A 
ATOM     15  C   UNL     1      -4.839  -2.955  -1.632  0.00  0.00    +0.173 A 
ATOM     16  F   UNL     1      -4.725  -1.612  -1.534  0.00  0.00    -0.202 F 
ATOM     17  F   UNL     1      -6.419  -2.716  -3.377  0.00  0.00    -0.199 F 
ATOM     18  F   UNL     1      -6.650  -5.432  -3.575  0.00  0.00    -0.199 F 
ATOM     19  F   UNL     1      -5.198  -7.065  -1.942  0.00  0.00    -0.198 F 
ENDBRANCH   4   8
ENDBRANCH   3   4
ENDBRANCH   1   3
BRANCH   1  20
ATOM     20  C   UNL     1       0.002  -0.004   0.002  0.00  0.00    +0.063 C 
BRANCH  20  21
ATOM     21  C   UNL     1      -0.018   1.503   0.010  0.00  0.00    -0.045 A 
ATOM     22  C   UNL     1      -1.226   2.177   0.020  0.00  0.00    +0.007 A 
ATOM     23  C   UNL     1      -1.247   3.558   0.033  0.00  0.00    +0.049 A 
ATOM     24  C   UNL     1      -0.056   4.269   0.025  0.00  0.00    +0.158 A 
ATOM     25  C   UNL     1       1.154   3.591   0.010  0.00  0.00    +0.049 A 
ATOM     26  C   UNL     1       1.170   2.209   0.003  0.00  0.00    +0.007 A 
BRANCH  24  27
ATOM     27  O   UNL     1      -0.074   5.628   0.032  0.00  0.00    -0.334 OA
BRANCH  27  28
ATOM     28  S   UNL     1      -0.097   6.253  -1.356  0.00  0.00    +0.194 S 
ATOM     29  O   UNL     1       0.096   7.649  -1.175  0.00  0.00    -0.119 OA
ATOM     30  O   UNL     1       0.761   5.465  -2.170  0.00  0.00    -0.119 OA
BRANCH  28  31
ATOM     31  N   UNL     1      -1.628   6.061  -1.955  0.00  0.00    -0.153 NA
ATOM     32  C   UNL     1      -2.644   7.088  -1.713  0.00  0.00    +0.134 C 
ATOM     33  C   UNL     1      -1.967   4.863  -2.728  0.00  0.00    +0.134 C 
ENDBRANCH  28  31
ENDBRANCH  27  28
ENDBRANCH  24  27
ENDBRANCH  20  21
BRANCH  20  36
ATOM     34  H   UNL     1       2.044  -0.198   0.180  0.00  0.00    -0.087 HD
ATOM     35  H   UNL     1       1.243  -0.162   1.637  0.00  0.00    -0.087 HD
ATOM     36  N   UNL     1       1.211  -0.506   0.679  0.00  0.00    +0.393 N 
ATOM     37  H   UNL     1       1.189  -1.532   0.692  0.00  0.00    -0.087 HD
ENDBRANCH  20  36
ENDBRANCH   1  20
TORSDOF 9
