REMARK  Name = ZINC40089255
REMARK  11 active torsions:
REMARK  status: ('A' for Active; 'I' for Inactive)
REMARK    1  A    between atoms: C_1  and  C_2
REMARK    2  A    between atoms: C_4  and  C_15
REMARK    3  A    between atoms: C_6  and  S_9
REMARK    4  A    between atoms: C_7  and  C_8
REMARK    5  A    between atoms: S_9  and  N_12
REMARK    6  A    between atoms: N_12  and  C_13
REMARK    7  A    between atoms: N_12  and  C_14
REMARK    8  A    between atoms: N_17  and  C_18
REMARK    9  A    between atoms: C_18  and  C_19
REMARK   10  A    between atoms: C_19  and  C_21
REMARK   11  A    between atoms: C_19  and  N_28
REMARK                            x       y       z     vdW  Elec       q    Type
REMARK                         _______ _______ _______ _____ _____    ______ ____
ROOT
ATOM      1  C   UNL     1       0.199  -4.542  -2.393  0.00  0.00    +0.244 C 
ATOM      2  O   UNL     1       0.096  -5.725  -2.137  0.00  0.00    -0.270 OA
ATOM      3  N   UNL     1       0.262  -4.132  -3.676  0.00  0.00    -0.313 N 
ATOM      4  H   UNL     1       0.344  -3.187  -3.880  0.00  0.00    +0.149 HD
ENDROOT
BRANCH   1   8
ATOM      5  C   UNL     1       0.551   0.198  -0.871  0.00  0.00    +0.044 C 
ATOM      6  C   UNL     1       0.423  -1.271  -0.560  0.00  0.00    -0.045 A 
ATOM      7  C   UNL     1       0.372  -2.191  -1.587  0.00  0.00    +0.016 A 
ATOM      8  C   UNL     1       0.255  -3.551  -1.297  0.00  0.00    +0.039 A 
ATOM      9  C   UNL     1       0.189  -3.971   0.032  0.00  0.00    +0.041 A 
ATOM     10  C   UNL     1       0.240  -3.042   1.050  0.00  0.00    +0.109 A 
ATOM     11  C   UNL     1       0.363  -1.695   0.756  0.00  0.00    -0.021 A 
ATOM     12  C   UNL     1       0.424  -0.685   1.873  0.00  0.00    +0.046 C 
BRANCH  10  13
ATOM     13  S   UNL     1       0.157  -3.570   2.729  0.00  0.00    +0.061 S 
ATOM     14  O   UNL     1      -0.024  -4.980   2.702  0.00  0.00    -0.153 OA
ATOM     15  O   UNL     1       1.245  -2.954   3.403  0.00  0.00    -0.153 OA
BRANCH  13  16
ATOM     16  N   UNL     1      -1.226  -2.928   3.376  0.00  0.00    -0.183 NA
ATOM     17  C   UNL     1      -2.511  -3.600   3.171  0.00  0.00    +0.131 C 
ATOM     18  C   UNL     1      -1.163  -1.689   4.154  0.00  0.00    +0.131 C 
ENDBRANCH  13  16
ENDBRANCH  10  13
ENDBRANCH   1   8
BRANCH   3  19
ATOM     19  C   UNL     1       0.207  -5.114  -4.761  0.00  0.00    +0.094 C 
BRANCH  19  20
ATOM     20  C   UNL     1       0.393  -4.402  -6.103  0.00  0.00    -0.020 C 
BRANCH  20  21
ATOM     21  C   UNL     1      -0.793  -3.510  -6.367  0.00  0.00    -0.058 A 
ATOM     22  C   UNL     1      -1.970  -4.051  -6.850  0.00  0.00    +0.002 A 
ATOM     23  C   UNL     1      -3.058  -3.234  -7.092  0.00  0.00    +0.002 A 
ATOM     24  C   UNL     1      -2.970  -1.876  -6.852  0.00  0.00    +0.020 A 
ATOM     25  C   UNL     1      -1.793  -1.334  -6.368  0.00  0.00    +0.041 A 
ATOM     26  C   UNL     1      -0.706  -2.153  -6.120  0.00  0.00    +0.022 A 
ATOM     27 CL   UNL     1      -1.681   0.372  -6.066  0.00  0.00    -0.084 Cl
ENDBRANCH  20  21
BRANCH  20  28
ATOM     28  N   UNL     1       0.504  -5.399  -7.176  0.00  0.00    +0.385 N 
ATOM     29  C   UNL     1       0.680  -4.724  -8.487  0.00  0.00    -0.078 C 
ATOM     30  C   UNL     1       1.328  -5.822  -9.367  0.00  0.00    -0.020 C 
ATOM     31  C   UNL     1       2.276  -6.542  -8.380  0.00  0.00    -0.020 C 
ATOM     32  C   UNL     1       1.716  -6.224  -6.981  0.00  0.00    -0.078 C 
ATOM     33  H   UNL     1      -0.317  -5.985  -7.192  0.00  0.00    -0.081 HD
ENDBRANCH  20  28
ENDBRANCH  19  20
ENDBRANCH   3  19
TORSDOF 7
