REMARK  Name = ZINC46874691
REMARK  8 active torsions:
REMARK  status: ('A' for Active; 'I' for Inactive)
REMARK    1  A    between atoms: C_1  and  C_2
REMARK    2  A    between atoms: C_2  and  C_3
REMARK    3  A    between atoms: C_2  and  C_4
REMARK    4  A    between atoms: C_2  and  C_23
REMARK    5  A    between atoms: C_4  and  N_5
REMARK    6  A    between atoms: N_8  and  N_9
REMARK    7  A    between atoms: C_10  and  C_12
REMARK    8  A    between atoms: C_12  and  C_13
REMARK                            x       y       z     vdW  Elec       q    Type
REMARK                         _______ _______ _______ _____ _____    ______ ____
ROOT
ATOM      1  N   UNL     1      -2.119  -0.061   1.218  0.00  0.00    -0.297 N 
ATOM      2  C   UNL     1      -3.403  -0.406   1.442  0.00  0.00    +0.316 C 
ATOM      3  O   UNL     1      -3.992  -1.108   0.643  0.00  0.00    -0.251 OA
ATOM      4  N   UNL     1      -4.034   0.029   2.551  0.00  0.00    -0.218 N 
ATOM      5  H   UNL     1      -1.649   0.499   1.855  0.00  0.00    +0.150 HD
ATOM      6  H   UNL     1      -4.957  -0.219   2.712  0.00  0.00    +0.174 HD
ENDROOT
BRANCH   4   7
ATOM      7  N   UNL     1      -3.355   0.839   3.471  0.00  0.00    -0.233 N 
ATOM      8  C   UNL     1      -3.986   1.274   4.580  0.00  0.00    +0.234 C 
ATOM      9  O   UNL     1      -5.141   0.964   4.781  0.00  0.00    -0.274 OA
ATOM     10  H   UNL     1      -2.431   1.087   3.310  0.00  0.00    +0.173 HD
BRANCH   8  11
ATOM     11  C   UNL     1      -3.256   2.144   5.569  0.00  0.00    +0.134 C 
BRANCH  11  12
ATOM     12  C   UNL     1      -4.178   2.490   6.710  0.00  0.00    -0.014 A 
ATOM     13  C   UNL     1      -4.929   3.596   6.823  0.00  0.00    +0.087 A 
ATOM     14  N   UNL     1      -5.636   3.563   7.994  0.00  0.00    -0.360 N 
ATOM     15  H   UNL     1      -6.248   4.253   8.295  0.00  0.00    +0.165 HD
ATOM     16  C   UNL     1      -5.350   2.405   8.681  0.00  0.00    +0.047 A 
ATOM     17  C   UNL     1      -4.428   1.679   7.904  0.00  0.00    +0.003 A 
ATOM     18  C   UNL     1      -3.958   0.444   8.355  0.00  0.00    +0.010 A 
ATOM     19  C   UNL     1      -4.398  -0.055   9.549  0.00  0.00    +0.001 A 
ATOM     20  C   UNL     1      -5.310   0.655  10.316  0.00  0.00    +0.002 A 
ATOM     21  C   UNL     1      -5.781   1.880   9.895  0.00  0.00    +0.026 A 
ENDBRANCH  11  12
ENDBRANCH   8  11
ENDBRANCH   4   7
BRANCH   1  22
ATOM     22  C   UNL     1      -1.433  -0.534   0.013  0.00  0.00    +0.116 C 
BRANCH  22  24
ATOM     23  C   UNL     1      -0.019   1.526   0.010  0.00  0.00    +0.017 C 
ATOM     24  C   UNL     1       0.002  -0.004   0.002  0.00  0.00    +0.006 C 
ATOM     25  C   UNL     1       0.742  -0.511   1.242  0.00  0.00    +0.017 C 
BRANCH  24  26
ATOM     26  C   UNL     1       0.707  -0.490  -1.238  0.00  0.00    -0.040 A 
ATOM     27  C   UNL     1       0.036  -1.284  -2.148  0.00  0.00    +0.004 A 
ATOM     28  C   UNL     1       0.683  -1.730  -3.286  0.00  0.00    +0.000 A 
ATOM     29  C   UNL     1       2.001  -1.381  -3.513  0.00  0.00    +0.000 A 
ATOM     30  C   UNL     1       2.672  -0.586  -2.603  0.00  0.00    +0.000 A 
ATOM     31  C   UNL     1       2.024  -0.137  -1.467  0.00  0.00    +0.004 A 
ENDBRANCH  24  26
ENDBRANCH  22  24
ENDBRANCH   1  22
TORSDOF 6
