REMARK  Name = ZINC38672767
REMARK  8 active torsions:
REMARK  status: ('A' for Active; 'I' for Inactive)
REMARK    1  A    between atoms: C_1  and  N_2
REMARK    2  A    between atoms: N_5  and  C_8
REMARK    3  A    between atoms: C_8  and  C_10
REMARK    4  A    between atoms: C_8  and  C_22
REMARK    5  A    between atoms: C_10  and  N_11
REMARK    6  A    between atoms: C_12  and  C_14
REMARK    7  A    between atoms: C_14  and  N_15
REMARK    8  A    between atoms: N_31  and  C_32
REMARK                            x       y       z     vdW  Elec       q    Type
REMARK                         _______ _______ _______ _____ _____    ______ ____
ROOT
ATOM      1  C   UNL     1       1.470  -3.956  -0.035  0.00  0.00    +0.104 C 
ENDROOT
BRANCH   1   2
ATOM      2  C   UNL     1       2.221  -4.369   1.204  0.00  0.00    -0.028 A 
ATOM      3  C   UNL     1       1.978  -3.727   2.405  0.00  0.00    +0.007 A 
ATOM      4  C   UNL     1       2.668  -4.105   3.539  0.00  0.00    +0.024 A 
ATOM      5  C   UNL     1       3.605  -5.130   3.475  0.00  0.00    +0.033 A 
ATOM      6  C   UNL     1       3.846  -5.776   2.272  0.00  0.00    -0.026 A 
ATOM      7  C   UNL     1       3.147  -5.392   1.140  0.00  0.00    +0.010 A 
ATOM      8  C   UNL     1       4.846  -6.897   2.167  0.00  0.00    +0.038 C 
ATOM      9  C   UNL     1       5.837  -6.841   3.330  0.00  0.00    +0.024 C 
ATOM     10  C   UNL     1       5.053  -6.754   4.646  0.00  0.00    +0.105 C 
ATOM     11  N   UNL     1       4.297  -5.495   4.636  0.00  0.00    -0.333 N 
ATOM     12  C   UNL     1       4.267  -4.634   5.821  0.00  0.00    +0.129 C 
ENDBRANCH   1   2
BRANCH   1  17
ATOM     13  C   UNL     1       4.303   0.807  -1.049  0.00  0.00    -0.096 C 
ATOM     14  N   UNL     1       3.829  -0.484  -0.535  0.00  0.00    +0.379 N 
ATOM     15  C   UNL     1       2.474  -0.326   0.010  0.00  0.00    -0.064 C 
ATOM     16  C   UNL     1       1.987  -1.667   0.564  0.00  0.00    +0.066 C 
ATOM     17  N   UNL     1       1.986  -2.667  -0.513  0.00  0.00    -0.297 NA
ATOM     18  C   UNL     1       3.332  -2.818  -1.086  0.00  0.00    +0.066 C 
ATOM     19  C   UNL     1       3.808  -1.468  -1.625  0.00  0.00    -0.064 C 
ATOM     20  H   UNL     1       4.449  -0.804   0.194  0.00  0.00    -0.082 HD
ENDBRANCH   1  17
BRANCH   1  21
ATOM     21  C   UNL     1      -0.018  -3.819   0.293  0.00  0.00    +0.127 C 
BRANCH  21  22
ATOM     22  N   UNL     1      -0.736  -3.335  -0.888  0.00  0.00    -0.312 N 
ATOM     23  C   UNL     1      -2.079  -3.227  -0.863  0.00  0.00    +0.231 C 
ATOM     24  O   UNL     1      -2.694  -3.531   0.137  0.00  0.00    -0.274 OA
ATOM     25  H   UNL     1      -0.245  -3.091  -1.688  0.00  0.00    +0.149 HD
BRANCH  23  26
ATOM     26  C   UNL     1      -2.818  -2.728  -2.079  0.00  0.00    +0.212 C 
BRANCH  26  27
ATOM     27  N   UNL     1      -4.256  -2.702  -1.800  0.00  0.00    -0.233 N 
ATOM     28  C   UNL     1      -5.058  -3.748  -2.034  0.00  0.00    +0.223 C 
ATOM     29  O   UNL     1      -4.706  -4.814  -2.492  0.00  0.00    -0.275 OA
ATOM     30  C   UNL     1      -6.473  -3.389  -1.637  0.00  0.00    +0.105 C 
ATOM     31  C   UNL     1      -6.348  -1.939  -1.127  0.00  0.00    +0.105 C 
ATOM     32  C   UNL     1      -4.875  -1.633  -1.284  0.00  0.00    +0.223 C 
ATOM     33  O   UNL     1      -4.340  -0.585  -0.992  0.00  0.00    -0.275 OA
ENDBRANCH  26  27
ENDBRANCH  23  26
ENDBRANCH  21  22
ENDBRANCH   1  21
TORSDOF 6
