REMARK  Name = ZINC39664438
REMARK  6 active torsions:
REMARK  status: ('A' for Active; 'I' for Inactive)
REMARK    1  A    between atoms: C_4  and  C_7
REMARK    2  A    between atoms: C_7  and  C_9
REMARK    3  A    between atoms: C_7  and  N_37
REMARK    4  A    between atoms: C_9  and  N_10
REMARK    5  A    between atoms: C_11  and  C_13
REMARK    6  A    between atoms: C_24  and  C_26
REMARK                            x       y       z     vdW  Elec       q    Type
REMARK                         _______ _______ _______ _____ _____    ______ ____
ROOT
ATOM      1  C   UNL     1       7.353  -3.227  -3.006  0.00  0.00    +0.100 C 
ATOM      2  C   UNL     1       7.290  -4.598  -2.298  0.00  0.00    +0.121 C 
ATOM      3  N   UNL     1       6.900  -5.552  -3.363  0.00  0.00    -0.297 N 
ATOM      4  C   UNL     1       7.650  -5.097  -4.559  0.00  0.00    +0.115 C 
ATOM      5  C   UNL     1       7.593  -3.558  -4.489  0.00  0.00    -0.004 C 
ATOM      6  C   UNL     1       8.915  -2.958  -4.957  0.00  0.00    -0.010 C 
ATOM      7  C   UNL     1       9.103  -3.251  -6.448  0.00  0.00    -0.082 C 
ATOM      8  N   UNL     1       7.986  -2.675  -7.207  0.00  0.00    +0.379 N 
ATOM      9  C   UNL     1       6.729  -3.324  -6.816  0.00  0.00    -0.082 C 
ATOM     10  C   UNL     1       6.440  -3.034  -5.340  0.00  0.00    -0.010 C 
ATOM     11  C   UNL     1       6.055  -6.598  -3.267  0.00  0.00    +0.260 C 
ATOM     12  O   UNL     1       5.836  -7.292  -4.237  0.00  0.00    -0.271 OA
ATOM     13  H   UNL     1       7.926  -1.686  -7.017  0.00  0.00    -0.086 HD
ATOM     14  H   UNL     1       8.143  -2.816  -8.194  0.00  0.00    -0.086 HD
ENDROOT
BRANCH  11  15
ATOM     15  C   UNL     1       5.382  -6.904  -1.954  0.00  0.00    +0.296 C 
ATOM     16  C   UNL     1       6.434  -7.326  -0.919  0.00  0.00    +0.283 C 
ATOM     17  O   UNL     1       5.760  -7.622   0.309  0.00  0.00    -0.484 OA
ATOM     18  C   UNL     1       4.647  -8.400   0.224  0.00  0.00    +0.162 A 
ATOM     19  C   UNL     1       4.160  -9.020   1.365  0.00  0.00    +0.049 A 
ATOM     20  C   UNL     1       3.029  -9.810   1.295  0.00  0.00    +0.004 A 
ATOM     21  C   UNL     1       2.379  -9.985   0.087  0.00  0.00    +0.004 A 
ATOM     22  C   UNL     1       2.859  -9.371  -1.054  0.00  0.00    +0.049 A 
ATOM     23  C   UNL     1       3.995  -8.578  -0.991  0.00  0.00    +0.163 A 
ATOM     24  O   UNL     1       4.460  -7.986  -2.125  0.00  0.00    -0.473 OA
ENDBRANCH  11  15
BRANCH   1  26
ATOM     25  N   UNL     1       6.029  -1.142  -2.867  0.00  0.00    -0.313 N 
ATOM     26  C   UNL     1       6.049  -2.489  -2.838  0.00  0.00    +0.218 C 
ATOM     27  O   UNL     1       5.019  -3.108  -2.676  0.00  0.00    -0.275 OA
ATOM     28  H   UNL     1       6.853  -0.647  -2.997  0.00  0.00    +0.149 HD
BRANCH  25  29
ATOM     29  C   UNL     1       4.762  -0.425  -2.703  0.00  0.00    +0.127 C 
BRANCH  29  30
ATOM     30  C   UNL     1       5.015   1.082  -2.775  0.00  0.00    +0.104 C 
BRANCH  30  34
ATOM     31  C   UNL     1       1.384   3.176  -1.953  0.00  0.00    +0.000 A 
ATOM     32  C   UNL     1       2.168   3.549  -3.029  0.00  0.00    +0.000 A 
ATOM     33  C   UNL     1       3.344   2.871  -3.295  0.00  0.00    +0.005 A 
ATOM     34  C   UNL     1       3.735   1.821  -2.485  0.00  0.00    -0.029 A 
ATOM     35  C   UNL     1       2.951   1.450  -1.409  0.00  0.00    +0.005 A 
ATOM     36  C   UNL     1       1.775   2.127  -1.143  0.00  0.00    +0.000 A 
ENDBRANCH  30  34
BRANCH  30  37
ATOM     37  N   UNL     1       6.032   1.456  -1.783  0.00  0.00    -0.290 NA
ATOM     38  C   UNL     1       5.548   1.214  -0.416  0.00  0.00    +0.113 C 
ATOM     39  C   UNL     1       6.658   1.559   0.581  0.00  0.00    +0.175 C 
ATOM     40  O   UNL     1       7.064   2.916   0.382  0.00  0.00    -0.377 OA
ATOM     41  C   UNL     1       7.542   3.186  -0.938  0.00  0.00    +0.175 C 
ATOM     42  C   UNL     1       6.442   2.857  -1.950  0.00  0.00    +0.113 C 
ENDBRANCH  30  37
ENDBRANCH  29  30
ENDBRANCH  25  29
ENDBRANCH   1  26
TORSDOF 6
