REMARK  Name = ZINC12919102
REMARK  6 active torsions:
REMARK  status: ('A' for Active; 'I' for Inactive)
REMARK    1  A    between atoms: C_1  and  C_2
REMARK    2  A    between atoms: C_15  and  C_17
REMARK    3  A    between atoms: C_17  and  C_19
REMARK    4  A    between atoms: C_17  and  S_20
REMARK    5  A    between atoms: S_20  and  C_21
REMARK    6  A    between atoms: N_25  and  C_26
REMARK                            x       y       z     vdW  Elec       q    Type
REMARK                         _______ _______ _______ _____ _____    ______ ____
ROOT
ATOM      1  C   UNL     1       2.984   2.497  -1.977  0.00  0.00    +0.008 C 
ATOM      2  C   UNL     1       1.676   1.738  -1.742  0.00  0.00    -0.009 C 
ATOM      3  C   UNL     1       0.905   2.383  -0.588  0.00  0.00    +0.008 C 
ATOM      4  C   UNL     1      -0.504   1.794  -0.511  0.00  0.00    +0.037 C 
ATOM      5  C   UNL     1      -0.401   0.272  -0.460  0.00  0.00    -0.023 A 
ATOM      6  C   UNL     1       0.732  -0.355  -0.857  0.00  0.00    -0.004 A 
ATOM      7  S   UNL     1       0.409  -2.086  -0.630  0.00  0.00    -0.073 S 
ATOM      8  C   UNL     1      -1.238  -1.966  -0.008  0.00  0.00    +0.116 A 
ATOM      9  C   UNL     1      -1.485  -0.576   0.004  0.00  0.00    +0.075 A 
ATOM     10  C   UNL     1      -2.773  -0.147   0.470  0.00  0.00    +0.260 A 
ATOM     11  O   UNL     1      -3.086   1.030   0.519  0.00  0.00    -0.267 OA
ATOM     12  N   UNL     1      -3.618  -1.134   0.851  0.00  0.00    -0.309 N 
ATOM     13  H   UNL     1      -4.500  -0.889   1.173  0.00  0.00    +0.170 HD
ATOM     14  C   UNL     1      -3.290  -2.447   0.804  0.00  0.00    +0.124 A 
ATOM     15  N   UNL     1      -2.121  -2.879   0.384  0.00  0.00    -0.225 NA
ATOM     16  C   UNL     1       1.986   0.280  -1.374  0.00  0.00    +0.046 C 
ENDROOT
BRANCH  14  17
ATOM     17  C   UNL     1      -4.312  -3.460   1.254  0.00  0.00    +0.117 C 
ATOM     18  C   UNL     1      -4.065  -3.816   2.721  0.00  0.00    +0.027 C 
BRANCH  17  19
ATOM     19  S   UNL     1      -4.169  -4.955   0.237  0.00  0.00    -0.075 S 
BRANCH  19  20
ATOM     20  C   UNL     1      -5.505  -5.968   0.778  0.00  0.00    +0.194 A 
ATOM     21  N   UNL     1      -6.377  -5.662   1.708  0.00  0.00    -0.121 NA
ATOM     22  N   UNL     1      -7.271  -6.733   1.833  0.00  0.00    -0.113 NA
ATOM     23  C   UNL     1      -6.917  -7.659   0.975  0.00  0.00    +0.215 A 
ATOM     24  N   UNL     1      -5.819  -7.208   0.297  0.00  0.00    -0.288 N 
ATOM     25  N   UNL     1      -7.548  -8.881   0.786  0.00  0.00    -0.328 N 
ATOM     26  H   UNL     1      -8.279  -9.145   1.367  0.00  0.00    +0.145 HD
ATOM     27  H   UNL     1      -7.260  -9.470   0.072  0.00  0.00    +0.145 HD
BRANCH  24  28
ATOM     28  C   UNL     1      -5.103  -7.930  -0.758  0.00  0.00    +0.093 C 
ATOM     29  C   UNL     1      -3.684  -7.466  -1.092  0.00  0.00    +0.027 C 
ATOM     30  C   UNL     1      -4.832  -7.183  -2.065  0.00  0.00    +0.027 C 
ENDBRANCH  24  28
ENDBRANCH  19  20
ENDBRANCH  17  19
ENDBRANCH  14  17
TORSDOF 4
