REMARK  Name = ZINC62012200
REMARK  8 active torsions:
REMARK  status: ('A' for Active; 'I' for Inactive)
REMARK    1  A    between atoms: C_1  and  C_2
REMARK    2  A    between atoms: C_2  and  C_4
REMARK    3  A    between atoms: C_2  and  N_11
REMARK    4  A    between atoms: N_11  and  C_12
REMARK    5  A    between atoms: N_11  and  C_13
REMARK    6  A    between atoms: C_13  and  C_14
REMARK    7  A    between atoms: C_17  and  O_21
REMARK    8  A    between atoms: C_18  and  N_20
REMARK                            x       y       z     vdW  Elec       q    Type
REMARK                         _______ _______ _______ _____ _____    ______ ____
ROOT
ATOM      1  N   UNL     1      -1.376  -0.512   0.012  0.00  0.00    +0.385 N 
ATOM      2  C   UNL     1      -2.064  -0.039   1.221  0.00  0.00    -0.095 C 
ATOM      3  H   UNL     1      -1.864  -0.178  -0.805  0.00  0.00    -0.081 HD
ENDROOT
BRANCH   1   5
ATOM      4  C   UNL     1      -0.019   1.526   0.010  0.00  0.00    -0.008 C 
ATOM      5  C   UNL     1       0.002  -0.004   0.002  0.00  0.00    -0.041 C 
BRANCH   5   6
ATOM      6  C   UNL     1       0.707  -0.490  -1.238  0.00  0.00    -0.061 A 
ATOM      7  C   UNL     1       0.037  -0.521  -2.447  0.00  0.00    +0.003 A 
ATOM      8  C   UNL     1       0.684  -0.967  -3.584  0.00  0.00    +0.020 A 
ATOM      9  C   UNL     1       2.002  -1.382  -3.513  0.00  0.00    +0.041 A 
ATOM     10  C   UNL     1       2.672  -1.350  -2.303  0.00  0.00    +0.020 A 
ATOM     11  C   UNL     1       2.026  -0.899  -1.167  0.00  0.00    +0.003 A 
ATOM     12 CL   UNL     1       2.814  -1.942  -4.941  0.00  0.00    -0.084 Cl
ENDBRANCH   5   6
ENDBRANCH   1   5
BRANCH   1  13
ATOM     13  C   UNL     1      -1.356  -1.981   0.004  0.00  0.00    -0.043 C 
BRANCH  13  14
ATOM     14  C   UNL     1      -2.766  -2.502  -0.109  0.00  0.00    -0.062 A 
ATOM     15  C   UNL     1      -3.506  -2.743   1.034  0.00  0.00    +0.005 A 
ATOM     16  C   UNL     1      -4.800  -3.221   0.936  0.00  0.00    +0.047 A 
ATOM     17  C   UNL     1      -5.358  -3.459  -0.308  0.00  0.00    +0.137 A 
ATOM     18  C   UNL     1      -4.613  -3.217  -1.460  0.00  0.00    +0.067 A 
ATOM     19  C   UNL     1      -3.318  -2.733  -1.355  0.00  0.00    +0.028 A 
BRANCH  18  20
ATOM     20  N   UNL     1      -5.173  -3.456  -2.721  0.00  0.00    -0.355 N 
ATOM     21  H   UNL     1      -6.080  -3.792  -2.793  0.00  0.00    +0.142 HD
ATOM     22  H   UNL     1      -4.653  -3.287  -3.522  0.00  0.00    +0.142 HD
ENDBRANCH  18  20
BRANCH  17  23
ATOM     23  O   UNL     1      -6.631  -3.929  -0.406  0.00  0.00    -0.505 OA
ATOM     24  H   UNL     1      -7.303  -3.236  -0.456  0.00  0.00    +0.292 HD
ENDBRANCH  17  23
ENDBRANCH  13  14
ENDBRANCH   1  13
TORSDOF 6
