REMARK  Name = ZINC01771582
REMARK  11 active torsions:
REMARK  status: ('A' for Active; 'I' for Inactive)
REMARK    1  A    between atoms: C_1  and  C_2
REMARK    2  A    between atoms: C_2  and  C_3
REMARK    3  A    between atoms: C_3  and  O_4
REMARK    4  A    between atoms: O_4  and  C_5
REMARK    5  A    between atoms: C_8  and  C_13
REMARK    6  A    between atoms: C_10  and  O_11
REMARK    7  A    between atoms: O_11  and  C_12
REMARK    8  A    between atoms: C_14  and  C_15
REMARK    9  A    between atoms: N_17  and  C_18
REMARK   10  A    between atoms: C_19  and  C_29
REMARK   11  A    between atoms: C_24  and  C_28
REMARK                            x       y       z     vdW  Elec       q    Type
REMARK                         _______ _______ _______ _____ _____    ______ ____
ROOT
ATOM      1  C   UNL     1      -3.365   0.278   3.543  0.00  0.00    +0.241 C 
ATOM      2  O   UNL     1      -4.398  -0.335   3.340  0.00  0.00    -0.270 OA
ATOM      3  N   UNL     1      -2.634   0.728   2.504  0.00  0.00    -0.276 N 
ATOM      4  H   UNL     1      -1.811   1.215   2.666  0.00  0.00    +0.156 HD
ENDROOT
BRANCH   3   5
ATOM      5  C   UNL     1      -3.057   0.494   1.206  0.00  0.00    +0.085 A 
ATOM      6  C   UNL     1      -2.447   0.874   0.018  0.00  0.00    +0.068 A 
ATOM      7  C   UNL     1      -3.100   0.495  -1.223  0.00  0.00    -0.023 A 
ATOM      8  C   UNL     1      -4.253  -0.194  -1.079  0.00  0.00    -0.004 A 
ATOM      9  S   UNL     1      -4.477  -0.341   0.671  0.00  0.00    -0.077 S 
ATOM     10  C   UNL     1      -5.137  -0.713  -2.171  0.00  0.00    +0.046 C 
ATOM     11  C   UNL     1      -4.351  -0.675  -3.489  0.00  0.00    -0.009 C 
ATOM     12  C   UNL     1      -3.685   0.698  -3.627  0.00  0.00    +0.008 C 
ATOM     13  C   UNL     1      -2.555   0.832  -2.605  0.00  0.00    +0.037 C 
ATOM     14  C   UNL     1      -5.306  -0.901  -4.663  0.00  0.00    +0.008 C 
BRANCH   6  15
ATOM     15  C   UNL     1      -1.187   1.624   0.017  0.00  0.00    +0.244 C 
ATOM     16  O   UNL     1      -1.204   2.841   0.023  0.00  0.00    -0.270 OA
ATOM     17  N   UNL     1      -0.011   0.966   0.007  0.00  0.00    -0.325 N 
ATOM     18  H   UNL     1       0.002  -0.004   0.002  0.00  0.00    +0.145 HD
ATOM     19  H   UNL     1       0.822   1.462   0.002  0.00  0.00    +0.145 HD
ENDBRANCH   6  15
ENDBRANCH   3   5
BRANCH   1  21
ATOM     20  C   UNL     1      -3.652   0.073   5.953  0.00  0.00    +0.013 C 
ATOM     21  C   UNL     1      -2.919   0.524   4.912  0.00  0.00    +0.068 C 
BRANCH  20  25
ATOM     22  C   UNL     1      -2.350   0.793   9.929  0.00  0.00    +0.162 A 
ATOM     23  C   UNL     1      -1.598   1.256   8.858  0.00  0.00    +0.050 A 
ATOM     24  C   UNL     1      -2.013   1.020   7.566  0.00  0.00    +0.012 A 
ATOM     25  C   UNL     1      -3.203   0.322   7.330  0.00  0.00    -0.021 A 
ATOM     26  C   UNL     1      -3.961  -0.145   8.411  0.00  0.00    +0.057 A 
ATOM     27  C   UNL     1      -3.534   0.091   9.702  0.00  0.00    +0.162 A 
BRANCH  27  28
ATOM     28  O   UNL     1      -4.268  -0.360  10.754  0.00  0.00    -0.491 OA
ATOM     29  C   UNL     1      -5.470  -1.071  10.449  0.00  0.00    +0.277 C 
ENDBRANCH  27  28
BRANCH  22  30
ATOM     30  O   UNL     1      -1.933   1.024  11.200  0.00  0.00    -0.488 OA
BRANCH  30  31
ATOM     31  C   UNL     1      -0.712   1.749  11.360  0.00  0.00    +0.229 C 
BRANCH  31  33
ATOM     32  C   UNL     1       0.901   2.686  13.022  0.00  0.00    +0.007 C 
ATOM     33  C   UNL     1      -0.406   1.910  12.851  0.00  0.00    +0.038 C 
ENDBRANCH  31  33
ENDBRANCH  30  31
ENDBRANCH  22  30
ENDBRANCH  20  25
ENDBRANCH   1  21
TORSDOF 8
