REMARK  Name = ZINC35000094
REMARK  8 active torsions:
REMARK  status: ('A' for Active; 'I' for Inactive)
REMARK    1  A    between atoms: C_1  and  C_2
REMARK    2  A    between atoms: N_11  and  C_12
REMARK    3  A    between atoms: C_12  and  C_13
REMARK    4  A    between atoms: C_19  and  C_21
REMARK    5  A    between atoms: C_21  and  C_23
REMARK    6  A    between atoms: C_21  and  N_34
REMARK    7  A    between atoms: C_23  and  C_24
REMARK    8  A    between atoms: C_35  and  C_37
REMARK                            x       y       z     vdW  Elec       q    Type
REMARK                         _______ _______ _______ _____ _____    ______ ____
ROOT
ATOM      1  C   UNL     1       0.269  -4.192  -2.056  0.00  0.00    +0.163 C 
ENDROOT
BRANCH   1  12
ATOM      2  C   UNL     1      -0.529   1.593  -0.066  0.00  0.00    +0.030 C 
ATOM      3  C   UNL     1      -0.510   0.063  -0.094  0.00  0.00    +0.092 C 
ATOM      4  C   UNL     1       0.216  -0.420  -1.355  0.00  0.00    +0.130 C 
ATOM      5  N   UNL     1       0.453  -1.865  -1.236  0.00  0.00    -0.297 N 
ATOM      6  C   UNL     1       1.170  -2.371  -0.058  0.00  0.00    +0.127 C 
ATOM      7  C   UNL     1       0.443  -1.888   1.203  0.00  0.00    +0.128 C 
ATOM      8  N   UNL     1       0.203  -0.443   1.087  0.00  0.00    -0.280 N 
ATOM      9  C   UNL     1       0.635   0.404   2.043  0.00  0.00    +0.303 C 
ATOM     10  O   UNL     1       0.353   1.585   1.981  0.00  0.00    -0.253 OA
ATOM     11  N   UNL     1       1.378  -0.059   3.067  0.00  0.00    -0.295 N 
ATOM     12  C   UNL     1       0.019  -2.712  -2.191  0.00  0.00    +0.236 C 
ATOM     13  O   UNL     1      -0.571  -2.283  -3.160  0.00  0.00    -0.274 OA
ATOM     14  H   UNL     1       1.666  -0.985   3.078  0.00  0.00    +0.151 HD
BRANCH  11  15
ATOM     15  C   UNL     1       1.752   0.838   4.164  0.00  0.00    +0.141 C 
BRANCH  15  16
ATOM     16  C   UNL     1       2.576   0.080   5.173  0.00  0.00    -0.030 A 
ATOM     17  C   UNL     1       1.956  -0.575   6.220  0.00  0.00    +0.005 A 
ATOM     18  C   UNL     1       2.711  -1.270   7.146  0.00  0.00    +0.000 A 
ATOM     19  C   UNL     1       4.088  -1.311   7.024  0.00  0.00    +0.000 A 
ATOM     20  C   UNL     1       4.708  -0.656   5.976  0.00  0.00    +0.000 A 
ATOM     21  C   UNL     1       3.952   0.035   5.048  0.00  0.00    +0.005 A 
ENDBRANCH  15  16
ENDBRANCH  11  15
ENDBRANCH   1  12
BRANCH   1  22
ATOM     22  N   UNL     1      -0.667  -4.925  -2.912  0.00  0.00    -0.303 N 
ATOM     23  C   UNL     1      -1.929  -5.149  -2.495  0.00  0.00    +0.217 C 
ATOM     24  O   UNL     1      -2.317  -4.666  -1.453  0.00  0.00    -0.275 OA
ATOM     25  H   UNL     1      -0.378  -5.250  -3.779  0.00  0.00    +0.149 HD
BRANCH  23  26
ATOM     26  C   UNL     1      -2.857  -5.998  -3.324  0.00  0.00    +0.075 C 
ATOM     27  C   UNL     1      -3.015  -5.388  -4.733  0.00  0.00    +0.013 C 
ATOM     28  C   UNL     1      -4.501  -5.642  -5.091  0.00  0.00    +0.001 C 
ATOM     29  C   UNL     1      -5.222  -5.417  -3.739  0.00  0.00    +0.001 C 
ATOM     30  C   UNL     1      -4.260  -6.016  -2.693  0.00  0.00    +0.013 C 
ENDBRANCH  23  26
ENDBRANCH   1  22
BRANCH   1  31
ATOM     31  C   UNL     1       1.704  -4.508  -2.481  0.00  0.00    +0.069 C 
BRANCH  31  32
ATOM     32  C   UNL     1       1.994  -5.965  -2.227  0.00  0.00    -0.020 A 
ATOM     33  C   UNL     1       2.526  -6.491  -1.112  0.00  0.00    +0.087 A 
ATOM     34  N   UNL     1       2.641  -7.848  -1.245  0.00  0.00    -0.360 N 
ATOM     35  H   UNL     1       2.999  -8.446  -0.570  0.00  0.00    +0.165 HD
ATOM     36  C   UNL     1       2.174  -8.238  -2.480  0.00  0.00    +0.047 A 
ATOM     37  C   UNL     1       1.742  -7.077  -3.147  0.00  0.00    +0.003 A 
ATOM     38  C   UNL     1       1.208  -7.170  -4.433  0.00  0.00    +0.010 A 
ATOM     39  C   UNL     1       1.104  -8.391  -5.038  0.00  0.00    +0.001 A 
ATOM     40  C   UNL     1       1.524  -9.540  -4.383  0.00  0.00    +0.002 A 
ATOM     41  C   UNL     1       2.063  -9.470  -3.117  0.00  0.00    +0.026 A 
ENDBRANCH  31  32
ENDBRANCH   1  31
TORSDOF 7
