REMARK  Name = ZINC15958445
REMARK  7 active torsions:
REMARK  status: ('A' for Active; 'I' for Inactive)
REMARK    1  A    between atoms: C_1  and  C_2
REMARK    2  A    between atoms: C_4  and  C_33
REMARK    3  A    between atoms: C_13  and  C_16
REMARK    4  A    between atoms: C_16  and  C_17
REMARK    5  A    between atoms: C_17  and  S_18
REMARK    6  A    between atoms: S_18  and  C_19
REMARK    7  A    between atoms: N_22  and  C_25
REMARK                            x       y       z     vdW  Elec       q    Type
REMARK                         _______ _______ _______ _____ _____    ______ ____
ROOT
ATOM      1  C   UNL     1      -0.018   1.503   0.010  0.00  0.00    +0.044 C 
ATOM      2  C   UNL     1       0.002  -0.004   0.002  0.00  0.00    -0.050 A 
ATOM      3  C   UNL     1       0.006  -0.691  -1.199  0.00  0.00    +0.008 A 
ATOM      4  C   UNL     1       0.026  -2.070  -1.212  0.00  0.00    -0.029 A 
ATOM      5  C   UNL     1       0.043  -2.782  -0.015  0.00  0.00    +0.042 A 
ATOM      6  C   UNL     1       0.038  -2.081   1.187  0.00  0.00    +0.004 A 
ATOM      7  C   UNL     1       0.023  -0.704   1.195  0.00  0.00    +0.011 A 
ATOM      8  C   UNL     1       0.059  -3.122   2.270  0.00  0.00    +0.136 C 
ATOM      9  C   UNL     1       1.285  -2.962   3.178  0.00  0.00    +0.122 C 
ATOM     10  C   UNL     1       0.754  -2.190   4.418  0.00  0.00    +0.107 C 
ATOM     11  C   UNL     1      -0.738  -1.934   4.117  0.00  0.00    +0.068 C 
ATOM     12  N   UNL     1      -1.116  -3.009   3.152  0.00  0.00    -0.295 NA
ATOM     13  C   UNL     1       0.888  -3.194   5.539  0.00  0.00    +0.227 C 
ATOM     14  O   UNL     1       0.572  -3.001   6.694  0.00  0.00    -0.275 OA
ATOM     15  N   UNL     1       1.410  -4.329   5.059  0.00  0.00    -0.238 N 
ATOM     16  C   UNL     1       1.683  -4.311   3.735  0.00  0.00    +0.228 C 
ATOM     17  O   UNL     1       2.165  -5.219   3.092  0.00  0.00    -0.275 OA
ATOM     18  C   UNL     1       0.078  -4.440   1.545  0.00  0.00    +0.243 C 
ATOM     19  O   UNL     1       0.101  -5.543   2.049  0.00  0.00    -0.273 OA
ATOM     20  N   UNL     1       0.065  -4.157   0.228  0.00  0.00    -0.283 N 
ATOM     21  C   UNL     1       0.029  -2.808  -2.526  0.00  0.00    +0.045 C 
ATOM     22  H   UNL     1      -1.938  -2.746   2.628  0.00  0.00    +0.123 HD
ATOM     23  H   UNL     1       0.070  -4.831  -0.470  0.00  0.00    +0.155 HD
ENDROOT
BRANCH  15  24
ATOM     24  C   UNL     1       1.671  -5.499   5.902  0.00  0.00    +0.084 C 
ATOM     25  C   UNL     1       0.371  -5.949   6.599  0.00  0.00    +0.023 C 
ATOM     26  C   UNL     1       0.832  -6.405   8.005  0.00  0.00    +0.002 C 
ATOM     27  C   UNL     1       1.933  -5.374   8.355  0.00  0.00    +0.002 C 
ATOM     28  C   UNL     1       2.665  -5.133   7.018  0.00  0.00    +0.023 C 
ENDBRANCH  15  24
BRANCH  11  29
ATOM     29  C   UNL     1      -1.569  -2.068   5.395  0.00  0.00    +0.030 C 
BRANCH  29  30
ATOM     30  C   UNL     1      -3.022  -1.690   5.101  0.00  0.00    +0.070 C 
BRANCH  30  31
ATOM     31  S   UNL     1      -4.006  -1.849   6.616  0.00  0.00    -0.164 S 
ATOM     32  C   UNL     1      -5.680  -1.371   6.104  0.00  0.00    +0.084 C 
ENDBRANCH  30  31
ENDBRANCH  29  30
ENDBRANCH  11  29
TORSDOF 4
