REMARK  Name = ZINC62824508
REMARK  6 active torsions:
REMARK  status: ('A' for Active; 'I' for Inactive)
REMARK    1  A    between atoms: C_1  and  C_2
REMARK    2  A    between atoms: C_2  and  C_4
REMARK    3  A    between atoms: C_2  and  N_18
REMARK    4  A    between atoms: C_4  and  C_5
REMARK    5  A    between atoms: N_7  and  C_8
REMARK    6  A    between atoms: C_13  and  C_14
REMARK                            x       y       z     vdW  Elec       q    Type
REMARK                         _______ _______ _______ _____ _____    ______ ____
ROOT
ATOM      1  C   UNL     1       0.659  -2.014   1.298  0.00  0.00    +0.216 C 
ATOM      2  O   UNL     1       0.077  -2.622   0.424  0.00  0.00    -0.276 OA
ATOM      3  N   UNL     1       1.240  -2.685   2.312  0.00  0.00    -0.285 N 
ATOM      4  H   UNL     1       1.773  -2.207   2.967  0.00  0.00    +0.155 HD
ENDROOT
BRANCH   3   5
ATOM      5  C   UNL     1       1.074  -4.062   2.421  0.00  0.00    +0.048 A 
ATOM      6  C   UNL     1      -0.041  -4.677   1.867  0.00  0.00    +0.025 A 
ATOM      7  C   UNL     1      -0.204  -6.043   1.976  0.00  0.00    +0.016 A 
ATOM      8  C   UNL     1       0.742  -6.813   2.637  0.00  0.00    +0.014 A 
ATOM      9  C   UNL     1       1.855  -6.221   3.193  0.00  0.00    +0.031 A 
ATOM     10  C   UNL     1       2.037  -4.839   3.086  0.00  0.00    +0.085 A 
ATOM     11  I   UNL     1       0.476  -8.885   2.791  0.00  0.00    -0.044 I 
BRANCH  10  12
ATOM     12  C   UNL     1       3.227  -4.201   3.672  0.00  0.00    +0.388 C 
ATOM     13  O   UNL     1       4.107  -4.889   4.170  0.00  0.00    -0.241 OA
ATOM     14  O   UNL     1       3.335  -2.982   3.660  0.00  0.00    -0.241 OA
ENDBRANCH  10  12
ENDBRANCH   3   5
BRANCH   1  15
ATOM     15  C   UNL     1       0.733  -0.510   1.249  0.00  0.00    +0.080 C 
BRANCH  15  17
ATOM     16  C   UNL     1      -0.034   1.526   0.020  0.00  0.00    -0.014 C 
ATOM     17  C   UNL     1      -0.001  -0.003   0.005  0.00  0.00    -0.070 C 
BRANCH  17  18
ATOM     18  N   UNL     1       0.701  -0.466  -1.200  0.00  0.00    +0.380 N 
ATOM     19  H   UNL     1       0.723  -1.475  -1.209  0.00  0.00    -0.090 HD
ATOM     20  H   UNL     1       0.217  -0.132  -2.020  0.00  0.00    -0.090 HD
ATOM     21  H   UNL     1       1.645  -0.110  -1.197  0.00  0.00    -0.090 HD
ENDBRANCH  17  18
ENDBRANCH  15  17
ENDBRANCH   1  15
TORSDOF 5
