REMARK  Name = ZINC05724747
REMARK  10 active torsions:
REMARK  status: ('A' for Active; 'I' for Inactive)
REMARK    1  A    between atoms: C_1  and  C_2
REMARK    2  A    between atoms: C_4  and  C_29
REMARK    3  A    between atoms: C_5  and  S_9
REMARK    4  A    between atoms: C_6  and  C_8
REMARK    5  A    between atoms: S_9  and  N_12
REMARK    6  A    between atoms: C_14  and  C_21
REMARK    7  A    between atoms: C_22  and  C_23
REMARK    8  A    between atoms: N_25  and  C_26
REMARK    9  A    between atoms: N_25  and  O_27
REMARK   10  A    between atoms: O_27  and  C_28
REMARK                            x       y       z     vdW  Elec       q    Type
REMARK                         _______ _______ _______ _____ _____    ______ ____
ROOT
ATOM      1  N   UNL     1      -0.445   5.103   0.176  0.00  0.00    -0.218 N 
ATOM      2  C   UNL     1      -1.796   5.020   0.257  0.00  0.00    +0.121 A 
ATOM      3  C   UNL     1      -2.183   3.712   0.175  0.00  0.00    +0.002 A 
ATOM      4  C   UNL     1      -0.947   2.919   0.031  0.00  0.00    +0.009 A 
ATOM      5  C   UNL     1       0.108   3.846   0.038  0.00  0.00    +0.073 A 
ATOM      6  C   UNL     1       1.417   3.391  -0.083  0.00  0.00    +0.028 A 
ATOM      7  C   UNL     1       1.666   2.041  -0.209  0.00  0.00    +0.002 A 
ATOM      8  C   UNL     1       0.623   1.127  -0.216  0.00  0.00    +0.001 A 
ATOM      9  C   UNL     1      -0.681   1.560  -0.103  0.00  0.00    +0.010 A 
ENDROOT
BRANCH   1  10
ATOM     10  S   UNL     1       0.420   6.514   0.236  0.00  0.00    +0.085 S 
ATOM     11  O   UNL     1       1.320   6.486  -0.863  0.00  0.00    -0.148 OA
ATOM     12  O   UNL     1      -0.522   7.561   0.423  0.00  0.00    -0.148 OA
BRANCH  10  17
ATOM     13  C   UNL     1       3.798   6.324   5.232  0.00  0.00    +0.044 C 
ATOM     14  C   UNL     1       2.955   6.371   3.984  0.00  0.00    -0.050 A 
ATOM     15  C   UNL     1       1.576   6.408   4.083  0.00  0.00    +0.008 A 
ATOM     16  C   UNL     1       0.802   6.452   2.938  0.00  0.00    -0.023 A 
ATOM     17  C   UNL     1       1.407   6.459   1.695  0.00  0.00    +0.117 A 
ATOM     18  C   UNL     1       2.785   6.416   1.597  0.00  0.00    -0.023 A 
ATOM     19  C   UNL     1       3.559   6.378   2.741  0.00  0.00    +0.008 A 
ATOM     20  C   UNL     1       3.444   6.417   0.241  0.00  0.00    +0.046 C 
ATOM     21  C   UNL     1      -0.700   6.492   3.046  0.00  0.00    +0.046 C 
ENDBRANCH  10  17
ENDBRANCH   1  10
BRANCH   3  22
ATOM     22  C   UNL     1      -3.553   3.199   0.221  0.00  0.00    +0.015 C 
ATOM     23  C   UNL     1      -4.593   4.055   0.358  0.00  0.00    +0.070 C 
BRANCH  23  24
ATOM     24  C   UNL     1      -5.917   3.559   0.402  0.00  0.00    +0.262 C 
ATOM     25  O   UNL     1      -6.122   2.362   0.317  0.00  0.00    -0.269 OA
ATOM     26  N   UNL     1      -6.952   4.412   0.538  0.00  0.00    -0.181 N 
ATOM     27  C   UNL     1      -8.323   3.898   0.584  0.00  0.00    +0.167 C 
BRANCH  26  28
ATOM     28  O   UNL     1      -6.714   5.804   0.637  0.00  0.00    -0.280 OA
ATOM     29  C   UNL     1      -6.700   6.482  -0.620  0.00  0.00    +0.227 C 
ENDBRANCH  26  28
ENDBRANCH  23  24
ENDBRANCH   3  22
TORSDOF 5
