REMARK  Name = ZINC36579409
REMARK  13 active torsions:
REMARK  status: ('A' for Active; 'I' for Inactive)
REMARK    1  A    between atoms: C_1  and  C_2
REMARK    2  A    between atoms: C_2  and  C_3
REMARK    3  A    between atoms: C_2  and  C_4
REMARK    4  A    between atoms: C_2  and  N_5
REMARK    5  A    between atoms: N_5  and  C_6
REMARK    6  A    between atoms: C_6  and  C_8
REMARK    7  A    between atoms: C_6  and  C_15
REMARK    8  A    between atoms: C_12  and  O_14
REMARK    9  A    between atoms: N_17  and  C_18
REMARK   10  A    between atoms: C_24  and  C_26
REMARK   11  A    between atoms: C_32  and  O_34
REMARK   12  A    between atoms: O_34  and  C_35
REMARK   13  A    between atoms: C_35  and  C_36
REMARK                            x       y       z     vdW  Elec       q    Type
REMARK                         _______ _______ _______ _____ _____    ______ ____
ROOT
ATOM      1  N   UNL     1       1.404  -0.511  -0.928  0.00  0.00    -0.279 N 
ATOM      2  C   UNL     1       1.887  -1.764  -1.045  0.00  0.00    +0.238 C 
ATOM      3  O   UNL     1       3.068  -1.942  -1.251  0.00  0.00    -0.274 OA
ENDROOT
BRANCH   2   4
ATOM      4  C   UNL     1       0.958  -2.944  -0.921  0.00  0.00    +0.165 C 
ATOM      5  C   UNL     1       0.911  -3.423   0.545  0.00  0.00    +0.033 C 
ATOM      6  C   UNL     1       0.854  -4.967   0.405  0.00  0.00    +0.021 C 
ATOM      7  C   UNL     1       1.750  -5.200  -0.837  0.00  0.00    +0.112 C 
ATOM      8  N   UNL     1       1.458  -4.062  -1.733  0.00  0.00    -0.256 N 
ATOM      9  C   UNL     1       1.622  -4.050  -3.071  0.00  0.00    +0.404 C 
ATOM     10  O   UNL     1       1.347  -3.052  -3.708  0.00  0.00    -0.226 OA
BRANCH   9  11
ATOM     11  O   UNL     1       2.091  -5.143  -3.702  0.00  0.00    -0.445 OA
BRANCH  11  12
ATOM     12  C   UNL     1       2.239  -5.059  -5.121  0.00  0.00    +0.269 C 
BRANCH  12  13
ATOM     13  C   UNL     1       2.772  -6.367  -5.648  0.00  0.00    -0.010 A 
ATOM     14  C   UNL     1       4.136  -6.569  -5.744  0.00  0.00    +0.007 A 
ATOM     15  C   UNL     1       4.624  -7.769  -6.228  0.00  0.00    +0.000 A 
ATOM     16  C   UNL     1       3.748  -8.766  -6.615  0.00  0.00    +0.000 A 
ATOM     17  C   UNL     1       2.384  -8.563  -6.519  0.00  0.00    +0.000 A 
ATOM     18  C   UNL     1       1.896  -7.365  -6.031  0.00  0.00    +0.007 A 
ENDBRANCH  12  13
ENDBRANCH  11  12
ENDBRANCH   9  11
ENDBRANCH   2   4
BRANCH   1  20
ATOM     19  C   UNL     1      -0.837  -0.824  -1.856  0.00  0.00    +0.031 C 
ATOM     20  C   UNL     1      -0.023  -0.296  -0.673  0.00  0.00    +0.030 C 
ATOM     21  C   UNL     1      -0.290   1.200  -0.497  0.00  0.00    +0.031 C 
ATOM     22  C   UNL     1      -0.431  -1.041   0.599  0.00  0.00    +0.031 C 
ENDBRANCH   1  20
BRANCH   1  23
ATOM     23  C   UNL     1       2.306   0.636  -1.056  0.00  0.00    +0.193 C 
BRANCH  23  24
ATOM     24  C   UNL     1       2.826   0.712  -2.468  0.00  0.00    -0.015 A 
ATOM     25  C   UNL     1       2.830  -0.419  -3.264  0.00  0.00    +0.006 A 
ATOM     26  C   UNL     1       3.306  -0.353  -4.560  0.00  0.00    +0.004 A 
ATOM     27  C   UNL     1       3.780   0.843  -5.063  0.00  0.00    +0.045 A 
ATOM     28  C   UNL     1       3.778   1.979  -4.267  0.00  0.00    +0.117 A 
ATOM     29  C   UNL     1       3.293   1.911  -2.968  0.00  0.00    +0.051 A 
BRANCH  28  30
ATOM     30  O   UNL     1       4.244   3.157  -4.759  0.00  0.00    -0.507 OA
ATOM     31  H   UNL     1       3.568   3.698  -5.190  0.00  0.00    +0.292 HD
ENDBRANCH  28  30
ENDBRANCH  23  24
BRANCH  23  32
ATOM     32  C   UNL     1       3.462   0.475  -0.103  0.00  0.00    +0.238 C 
ATOM     33  O   UNL     1       3.494  -0.470   0.658  0.00  0.00    -0.273 OA
ATOM     34  N   UNL     1       4.460   1.380  -0.095  0.00  0.00    -0.311 N 
ATOM     35  H   UNL     1       4.435   2.135  -0.703  0.00  0.00    +0.149 HD
BRANCH  34  36
ATOM     36  C   UNL     1       5.584   1.223   0.832  0.00  0.00    +0.073 C 
ATOM     37  C   UNL     1       5.218   1.833   2.186  0.00  0.00    +0.022 C 
ATOM     38  C   UNL     1       6.392   1.670   3.154  0.00  0.00    +0.002 C 
ATOM     39  C   UNL     1       7.622   2.383   2.589  0.00  0.00    +0.000 C 
ATOM     40  C   UNL     1       7.988   1.772   1.234  0.00  0.00    +0.002 C 
ATOM     41  C   UNL     1       6.814   1.936   0.267  0.00  0.00    +0.022 C 
ENDBRANCH  34  36
ENDBRANCH  23  32
ENDBRANCH   1  23
TORSDOF 10
