REMARK  Name = ZINC48923374
REMARK  10 active torsions:
REMARK  status: ('A' for Active; 'I' for Inactive)
REMARK    1  A    between atoms: C_1  and  C_2
REMARK    2  A    between atoms: C_3  and  C_19
REMARK    3  A    between atoms: C_7  and  C_8
REMARK    4  A    between atoms: N_9  and  O_10
REMARK    5  A    between atoms: N_12  and  C_13
REMARK    6  A    between atoms: N_12  and  C_14
REMARK    7  A    between atoms: C_14  and  C_15
REMARK    8  A    between atoms: C_15  and  C_16
REMARK    9  A    between atoms: C_16  and  C_17
REMARK   10  A    between atoms: C_16  and  C_18
REMARK                            x       y       z     vdW  Elec       q    Type
REMARK                         _______ _______ _______ _____ _____    ______ ____
ROOT
ATOM      1  C   UNL     1       0.093   1.500   0.049  0.00  0.00    +0.046 C 
ATOM      2  C   UNL     1       0.056  -0.006   0.020  0.00  0.00    -0.016 A 
ATOM      3  C   UNL     1      -0.051  -0.695  -1.177  0.00  0.00    +0.035 A 
ATOM      4  N   UNL     1      -0.083  -2.013  -1.182  0.00  0.00    -0.280 N 
ATOM      5  N   UNL     1      -0.017  -2.711  -0.107  0.00  0.00    -0.158 NA
ATOM      6  C   UNL     1       0.088  -2.154   1.091  0.00  0.00    +0.152 A 
ATOM      7  C   UNL     1       0.135  -0.752   1.201  0.00  0.00    +0.064 A 
ATOM      8  N   UNL     1       0.156  -2.947   2.226  0.00  0.00    -0.316 N 
ATOM      9  C   UNL     1       1.457  -3.396   2.729  0.00  0.00    +0.130 C 
ATOM     10  C   UNL     1      -0.133   0.064  -2.476  0.00  0.00    +0.065 C 
ATOM     11  H   UNL     1      -0.159  -2.474  -2.032  0.00  0.00    +0.189 HD
ENDROOT
BRANCH   7  12
ATOM     12  C   UNL     1       0.257  -0.091   2.518  0.00  0.00    +0.166 C 
ATOM     13  N   UNL     1      -0.810   0.183   3.210  0.00  0.00    -0.071 NA
ATOM     14  N   UNL     1       1.507   0.236   3.015  0.00  0.00    -0.340 N 
ATOM     15  H   UNL     1       2.303   0.032   2.500  0.00  0.00    +0.144 HD
ATOM     16  H   UNL     1       1.587   0.669   3.880  0.00  0.00    +0.144 HD
BRANCH  13  17
ATOM     17  O   UNL     1      -0.693   0.816   4.471  0.00  0.00    -0.408 OA
ATOM     18  H   UNL     1      -1.540   0.978   4.910  0.00  0.00    +0.328 HD
ENDBRANCH  13  17
ENDBRANCH   7  12
BRANCH   8  19
ATOM     19  C   UNL     1      -1.073  -3.335   2.923  0.00  0.00    +0.106 C 
BRANCH  19  20
ATOM     20  C   UNL     1      -1.591  -4.654   2.345  0.00  0.00    +0.022 C 
BRANCH  20  21
ATOM     21  C   UNL     1      -2.874  -5.060   3.073  0.00  0.00    -0.016 C 
ATOM     22  C   UNL     1      -3.461  -6.310   2.414  0.00  0.00    +0.007 C 
ATOM     23  C   UNL     1      -2.556  -5.358   4.539  0.00  0.00    +0.007 C 
ENDBRANCH  20  21
ENDBRANCH  19  20
ENDBRANCH   8  19
TORSDOF 5
