REMARK  Name = ZINC63237045
REMARK  11 active torsions:
REMARK  status: ('A' for Active; 'I' for Inactive)
REMARK    1  A    between atoms: C_1  and  C_2
REMARK    2  A    between atoms: C_5  and  C_8
REMARK    3  A    between atoms: C_8  and  N_9
REMARK    4  A    between atoms: C_11  and  C_16
REMARK    5  A    between atoms: N_18  and  C_19
REMARK    6  A    between atoms: C_19  and  C_20
REMARK    7  A    between atoms: C_20  and  C_22
REMARK    8  A    between atoms: C_20  and  C_31
REMARK    9  A    between atoms: C_25  and  N_28
REMARK   10  A    between atoms: N_28  and  C_29
REMARK   11  A    between atoms: N_28  and  C_30
REMARK                            x       y       z     vdW  Elec       q    Type
REMARK                         _______ _______ _______ _____ _____    ______ ____
ROOT
ATOM      1  C   UNL     1       8.195  -6.687  -1.590  0.00  0.00    +0.064 C 
ENDROOT
BRANCH   1   2
ATOM      2  C   UNL     1       7.911  -8.125  -1.943  0.00  0.00    -0.033 C 
ATOM      3  C   UNL     1       7.798  -9.165  -1.087  0.00  0.00    -0.000 A 
ATOM      4  C   UNL     1       7.902  -9.267   0.374  0.00  0.00    +0.010 A 
ATOM      5  C   UNL     1       7.737 -10.475   0.961  0.00  0.00    +0.001 A 
ATOM      6  C   UNL     1       7.471 -11.628   0.211  0.00  0.00    +0.002 A 
ATOM      7  C   UNL     1       7.361 -11.614  -1.135  0.00  0.00    +0.026 A 
ATOM      8  C   UNL     1       7.516 -10.398  -1.856  0.00  0.00    +0.043 A 
ATOM      9  N   UNL     1       7.457 -10.130  -3.138  0.00  0.00    -0.380 N 
ATOM     10  C   UNL     1       7.689  -8.694  -3.326  0.00  0.00    +0.145 C 
ATOM     11  H   UNL     1       7.284 -10.773  -3.843  0.00  0.00    +0.160 HD
ENDBRANCH   1   2
BRANCH   1  12
ATOM     12  C   UNL     1       9.467  -6.246  -2.266  0.00  0.00    -0.039 A 
ATOM     13  C   UNL     1       9.561  -6.271  -3.645  0.00  0.00    +0.006 A 
ATOM     14  C   UNL     1      10.725  -5.867  -4.268  0.00  0.00    +0.023 A 
ATOM     15  C   UNL     1      11.804  -5.434  -3.507  0.00  0.00    +0.029 A 
ATOM     16  C   UNL     1      11.707  -5.410  -2.121  0.00  0.00    +0.023 A 
ATOM     17  C   UNL     1      10.537  -5.810  -1.505  0.00  0.00    +0.006 A 
BRANCH  15  18
ATOM     18  N   UNL     1      12.983  -5.026  -4.133  0.00  0.00    -0.336 N 
ATOM     19  C   UNL     1      13.084  -5.052  -5.595  0.00  0.00    +0.129 C 
ATOM     20  C   UNL     1      14.120  -4.570  -3.329  0.00  0.00    +0.129 C 
ENDBRANCH  15  18
ENDBRANCH   1  12
BRANCH   1  21
ATOM     21  C   UNL     1       7.035  -5.808  -2.061  0.00  0.00    +0.116 C 
BRANCH  21  24
ATOM     22  C   UNL     1       4.668  -5.509  -1.565  0.00  0.00    +0.218 C 
ATOM     23  O   UNL     1       4.633  -4.635  -2.405  0.00  0.00    -0.275 OA
ATOM     24  N   UNL     1       5.823  -6.158  -1.317  0.00  0.00    -0.314 N 
ATOM     25  H   UNL     1       5.851  -6.857  -0.645  0.00  0.00    +0.149 HD
BRANCH  22  28
ATOM     26  N   UNL     1       1.447  -4.746  -0.032  0.00  0.00    -0.296 N 
ATOM     27  C   UNL     1       2.226  -5.000  -1.249  0.00  0.00    +0.121 C 
ATOM     28  C   UNL     1       3.421  -5.869  -0.800  0.00  0.00    +0.101 C 
ATOM     29  C   UNL     1       3.554  -5.477   0.690  0.00  0.00    +0.110 C 
ATOM     30  C   UNL     1       2.171  -4.995   1.073  0.00  0.00    +0.217 C 
ATOM     31  O   UNL     1       1.774  -4.856   2.210  0.00  0.00    -0.276 OA
BRANCH  26  32
ATOM     32  C   UNL     1       0.059  -4.275  -0.021  0.00  0.00    +0.142 C 
BRANCH  32  37
ATOM     33  C   UNL     1      -0.018   1.503   0.010  0.00  0.00    +0.044 C 
ATOM     34  C   UNL     1       0.002  -0.004   0.002  0.00  0.00    -0.050 A 
ATOM     35  C   UNL     1       0.006  -0.689  -1.199  0.00  0.00    +0.003 A 
ATOM     36  C   UNL     1       0.025  -2.071  -1.206  0.00  0.00    +0.005 A 
ATOM     37  C   UNL     1       0.040  -2.768  -0.013  0.00  0.00    -0.030 A 
ATOM     38  C   UNL     1       0.037  -2.084   1.188  0.00  0.00    +0.005 A 
ATOM     39  C   UNL     1       0.023  -0.702   1.195  0.00  0.00    +0.003 A 
ENDBRANCH  32  37
ENDBRANCH  26  32
ENDBRANCH  22  28
ENDBRANCH  21  24
ENDBRANCH   1  21
TORSDOF 8
