REMARK  Name = ZINC15957476
REMARK  4 active torsions:
REMARK  status: ('A' for Active; 'I' for Inactive)
REMARK    1  A    between atoms: C_1  and  C_2
REMARK    2  A    between atoms: C_2  and  C_4
REMARK    3  A    between atoms: C_2  and  O_31
REMARK    4  A    between atoms: N_12  and  C_15
REMARK                            x       y       z     vdW  Elec       q    Type
REMARK                         _______ _______ _______ _____ _____    ______ ____
ROOT
ATOM      1  C   UNL     1       0.742  -0.511   1.242  0.00  0.00    +0.096 C 
ATOM      2  C   UNL     1       0.918  -2.043   1.173  0.00  0.00    +0.109 C 
ATOM      3  C   UNL     1       2.323  -2.309   1.784  0.00  0.00    +0.123 C 
ATOM      4  C   UNL     1       2.012  -3.069   3.053  0.00  0.00    +0.228 C 
ATOM      5  O   UNL     1       2.835  -3.470   3.848  0.00  0.00    -0.275 OA
ATOM      6  N   UNL     1       0.688  -3.229   3.163  0.00  0.00    -0.238 N 
ATOM      7  C   UNL     1      -0.033  -2.696   2.150  0.00  0.00    +0.228 C 
ATOM      8  O   UNL     1      -1.240  -2.728   2.037  0.00  0.00    -0.275 OA
ATOM      9  C   UNL     1       2.872  -0.917   2.115  0.00  0.00    +0.136 C 
ATOM     10  N   UNL     1       2.126   0.033   1.277  0.00  0.00    -0.293 NA
ATOM     11  C   UNL     1       2.700  -0.585   3.570  0.00  0.00    +0.003 A 
ATOM     12  C   UNL     1       1.605  -0.490   4.399  0.00  0.00    +0.008 A 
ATOM     13  C   UNL     1       1.770  -0.154   5.731  0.00  0.00    +0.000 A 
ATOM     14  C   UNL     1       3.038   0.085   6.228  0.00  0.00    +0.002 A 
ATOM     15  C   UNL     1       4.139  -0.010   5.402  0.00  0.00    +0.023 A 
ATOM     16  C   UNL     1       3.981  -0.347   4.060  0.00  0.00    +0.039 A 
ATOM     17  N   UNL     1       4.924  -0.503   3.042  0.00  0.00    -0.283 N 
ATOM     18  C   UNL     1       4.354  -0.838   1.868  0.00  0.00    +0.243 C 
ATOM     19  O   UNL     1       4.925  -1.039   0.817  0.00  0.00    -0.273 OA
ATOM     20  H   UNL     1       2.523   0.071   0.350  0.00  0.00    +0.124 HD
ATOM     21  H   UNL     1       5.879  -0.383   3.165  0.00  0.00    +0.155 HD
ENDROOT
BRANCH   6  22
ATOM     22  C   UNL     1       0.066  -3.932   4.288  0.00  0.00    +0.084 C 
ATOM     23  C   UNL     1      -0.792  -5.104   3.769  0.00  0.00    +0.023 C 
ATOM     24  C   UNL     1      -2.020  -5.123   4.713  0.00  0.00    +0.002 C 
ATOM     25  C   UNL     1      -2.294  -3.617   4.948  0.00  0.00    +0.002 C 
ATOM     26  C   UNL     1      -0.889  -2.986   5.037  0.00  0.00    +0.023 C 
ENDBRANCH   6  22
BRANCH   1  28
ATOM     27  C   UNL     1      -0.019   1.526   0.010  0.00  0.00    +0.039 C 
ATOM     28  C   UNL     1       0.002  -0.004   0.002  0.00  0.00    +0.129 C 
BRANCH  28  29
ATOM     29  O   UNL     1       0.671  -0.465  -1.174  0.00  0.00    -0.390 OA
ATOM     30  H   UNL     1       0.256  -0.181  -1.999  0.00  0.00    +0.210 HD
ENDBRANCH  28  29
ENDBRANCH   1  28
TORSDOF 3
