REMARK  Name = ZINC35380072
REMARK  3 active torsions:
REMARK  status: ('A' for Active; 'I' for Inactive)
REMARK    1  A    between atoms: C_9  and  C_15
REMARK    2  A    between atoms: C_15  and  C_17
REMARK    3  A    between atoms: C_15  and  N_23
REMARK                            x       y       z     vdW  Elec       q    Type
REMARK                         _______ _______ _______ _____ _____    ______ ____
ROOT
ATOM      1  C   UNL     1      -0.017   1.374   0.010  0.00  0.00    +0.001 A 
ATOM      2  C   UNL     1       1.171   2.089   0.002  0.00  0.00    +0.002 A 
ATOM      3  C   UNL     1       2.384   1.433  -0.013  0.00  0.00    +0.026 A 
ATOM      4  C   UNL     1       2.423   0.042  -0.021  0.00  0.00    +0.047 A 
ATOM      5  C   UNL     1       1.220  -0.680  -0.013  0.00  0.00    +0.007 A 
ATOM      6  C   UNL     1       0.002  -0.004   0.002  0.00  0.00    +0.010 A 
ATOM      7  C   UNL     1       1.589  -2.107  -0.025  0.00  0.00    +0.008 A 
ATOM      8  C   UNL     1       0.850  -3.288  -0.024  0.00  0.00    +0.013 A 
ATOM      9  C   UNL     1       1.501  -4.503  -0.037  0.00  0.00    -0.054 A 
ATOM     10  C   UNL     1       2.886  -4.553  -0.050  0.00  0.00    +0.004 A 
ATOM     11  C   UNL     1       3.629  -3.393  -0.050  0.00  0.00    +0.026 A 
ATOM     12  C   UNL     1       2.990  -2.156  -0.038  0.00  0.00    +0.047 A 
ATOM     13  N   UNL     1       3.472  -0.859  -0.036  0.00  0.00    -0.354 N 
ATOM     14  H   UNL     1       4.412  -0.617  -0.044  0.00  0.00    +0.166 HD
ENDROOT
BRANCH   9  15
ATOM     15  C   UNL     1       0.703  -5.782  -0.036  0.00  0.00    +0.023 C 
BRANCH  15  16
ATOM     16  C   UNL     1       0.660  -6.346   1.361  0.00  0.00    +0.096 A 
ATOM     17  C   UNL     1      -0.365  -6.232   2.224  0.00  0.00    +0.044 A 
ATOM     18  C   UNL     1       0.018  -6.905   3.407  0.00  0.00    +0.057 A 
ATOM     19  C   UNL     1       1.256  -7.390   3.196  0.00  0.00    +0.170 A 
ATOM     20  O   UNL     1       1.637  -7.054   1.952  0.00  0.00    -0.454 OA
ATOM     21 BR   UNL     1       2.281  -8.384   4.436  0.00  0.00    -0.008 Br
ENDBRANCH  15  16
BRANCH  15  22
ATOM     22  N   UNL     1       1.336  -6.754  -0.938  0.00  0.00    +0.387 N 
ATOM     23  H   UNL     1       2.276  -6.943  -0.622  0.00  0.00    -0.089 HD
ATOM     24  H   UNL     1       0.802  -7.610  -0.937  0.00  0.00    -0.089 HD
ATOM     25  H   UNL     1       1.365  -6.376  -1.873  0.00  0.00    -0.089 HD
ENDBRANCH  15  22
ENDBRANCH   9  15
TORSDOF 3
