REMARK  Name = ZINC20695898
REMARK  4 active torsions:
REMARK  status: ('A' for Active; 'I' for Inactive)
REMARK    1  A    between atoms: C_1  and  C_2
REMARK    2  A    between atoms: C_5  and  O_26
REMARK    3  A    between atoms: C_15  and  C_18
REMARK    4  A    between atoms: C_23  and  O_24
REMARK                            x       y       z     vdW  Elec       q    Type
REMARK                         _______ _______ _______ _____ _____    ______ ____
ROOT
ATOM      1  C   UNL     1       3.917  -1.591  -1.349  0.00  0.00    +0.044 C 
ATOM      2  C   UNL     1       4.468  -0.189  -1.397  0.00  0.00    -0.045 A 
ATOM      3  C   UNL     1       5.800   0.013  -1.702  0.00  0.00    +0.007 A 
ATOM      4  C   UNL     1       6.306   1.300  -1.746  0.00  0.00    +0.047 A 
ATOM      5  C   UNL     1       5.484   2.377  -1.478  0.00  0.00    +0.138 A 
ATOM      6  C   UNL     1       4.134   2.186  -1.160  0.00  0.00    +0.074 A 
ATOM      7  C   UNL     1       3.638   0.882  -1.133  0.00  0.00    -0.013 A 
ATOM      8  C   UNL     1       2.204   0.695  -0.820  0.00  0.00    +0.049 C 
ATOM      9  C   UNL     1       1.678  -0.530  -0.170  0.00  0.00    -0.023 C 
ATOM     10  C   UNL     1       0.631  -0.195   0.576  0.00  0.00    -0.030 C 
ATOM     11  C   UNL     1       0.401   1.316   0.505  0.00  0.00    +0.033 C 
ATOM     12  C   UNL     1       1.812   1.825   0.183  0.00  0.00    +0.029 C 
ATOM     13  C   UNL     1       1.939   3.105  -0.616  0.00  0.00    +0.109 C 
ATOM     14  N   UNL     1       3.373   3.319  -0.865  0.00  0.00    -0.334 N 
ATOM     15  H   UNL     1       3.796   4.333  -0.814  0.00  0.00    +0.147 HD
ENDROOT
BRANCH  13  16
ATOM     16  C   UNL     1       1.377   4.260   0.172  0.00  0.00    +0.015 A 
ATOM     17  C   UNL     1       2.196   4.984   1.018  0.00  0.00    +0.024 A 
ATOM     18  C   UNL     1       1.682   6.047   1.738  0.00  0.00    +0.018 A 
ATOM     19  C   UNL     1       0.344   6.382   1.621  0.00  0.00    +0.019 A 
ATOM     20  C   UNL     1      -0.479   5.658   0.781  0.00  0.00    +0.047 A 
ATOM     21  C   UNL     1       0.036   4.594   0.054  0.00  0.00    +0.122 A 
ATOM     22 BR   UNL     1       2.806   7.039   2.890  0.00  0.00    -0.050 Br
BRANCH  21  23
ATOM     23  O   UNL     1      -0.773   3.880  -0.773  0.00  0.00    -0.506 OA
ATOM     24  H   UNL     1      -1.836   4.146  -0.866  0.00  0.00    +0.292 HD
ENDBRANCH  21  23
ENDBRANCH  13  16
BRANCH   5  25
ATOM     25  O   UNL     1       5.993   3.638  -1.523  0.00  0.00    -0.505 OA
ATOM     26  H   UNL     1       5.344   4.500  -1.310  0.00  0.00    +0.292 HD
ENDBRANCH   5  25
TORSDOF 3
