REMARK  Name = ZINC14533598
REMARK  11 active torsions:
REMARK  status: ('A' for Active; 'I' for Inactive)
REMARK    1  A    between atoms: C_1  and  C_2
REMARK    2  A    between atoms: C_2  and  C_3
REMARK    3  A    between atoms: C_2  and  C_4
REMARK    4  A    between atoms: C_4  and  C_5
REMARK    5  A    between atoms: C_5  and  N_6
REMARK    6  A    between atoms: N_9  and  C_28
REMARK    7  A    between atoms: C_17  and  C_18
REMARK    8  A    between atoms: C_17  and  N_72
REMARK    9  A    between atoms: C_28  and  C_29
REMARK   10  A    between atoms: C_33  and  O_35
REMARK   11  A    between atoms: O_35  and  C_36
REMARK                            x       y       z     vdW  Elec       q    Type
REMARK                         _______ _______ _______ _____ _____    ______ ____
ROOT
ATOM      1  N   UNL     1       2.176   0.504  -0.015  0.00  0.00    -0.271 N 
ATOM      2  C   UNL     1       1.251  -0.475  -0.040  0.00  0.00    +0.312 C 
ATOM      3  O   UNL     1       1.521  -1.659  -0.081  0.00  0.00    -0.252 OA
ATOM      4  N   UNL     1       0.001   0.004  -0.015  0.00  0.00    -0.220 N 
ATOM      5  C   UNL     1      -0.014   1.352   0.030  0.00  0.00    +0.247 C 
ATOM      6  O   UNL     1      -0.987   2.075   0.056  0.00  0.00    -0.273 OA
ATOM      7  C   UNL     1       1.438   1.772   0.033  0.00  0.00    +0.112 C 
ATOM      8  C   UNL     1       1.769   2.537   1.310  0.00  0.00    +0.017 C 
ATOM      9  C   UNL     1       3.237   2.972   1.273  0.00  0.00    -0.076 C 
ATOM     10  C   UNL     1       3.220   3.053  -1.151  0.00  0.00    -0.076 C 
ATOM     11  C   UNL     1       1.751   2.620  -1.195  0.00  0.00    +0.017 C 
ATOM     12  N   UNL     1       3.452   3.829   0.087  0.00  0.00    +0.383 N 
ATOM     13  H   UNL     1       2.789   4.612   0.117  0.00  0.00    -0.081 HD
ENDROOT
BRANCH   1  14
ATOM     14  C   UNL     1       3.632   0.337  -0.031  0.00  0.00    +0.110 C 
BRANCH  14  15
ATOM     15  C   UNL     1       4.082  -0.333   1.269  0.00  0.00    +0.022 C 
BRANCH  15  17
ATOM     16  C   UNL     1       6.064  -0.948   2.660  0.00  0.00    +0.007 C 
ATOM     17  C   UNL     1       5.611  -0.392   1.309  0.00  0.00    -0.016 C 
ATOM     18  C   UNL     1       6.115  -1.303   0.188  0.00  0.00    +0.007 C 
ENDBRANCH  15  17
ENDBRANCH  14  15
ENDBRANCH   1  14
BRANCH  12  19
ATOM     19  C   UNL     1       4.829   4.364   0.094  0.00  0.00    -0.025 C 
BRANCH  19  20
ATOM     20  C   UNL     1       5.137   4.913   1.464  0.00  0.00    +0.000 A 
ATOM     21  C   UNL     1       4.988   6.195   1.832  0.00  0.00    +0.029 A 
ATOM     22  C   UNL     1       5.396   6.288   3.236  0.00  0.00    -0.000 A 
ATOM     23  C   UNL     1       5.462   7.332   4.160  0.00  0.00    +0.010 A 
ATOM     24  C   UNL     1       5.905   7.088   5.429  0.00  0.00    +0.001 A 
ATOM     25  C   UNL     1       6.292   5.809   5.807  0.00  0.00    +0.002 A 
ATOM     26  C   UNL     1       6.235   4.764   4.911  0.00  0.00    +0.026 A 
ATOM     27  C   UNL     1       5.786   4.990   3.614  0.00  0.00    +0.047 A 
ATOM     28  N   UNL     1       5.617   4.179   2.514  0.00  0.00    -0.360 N 
ATOM     29  H   UNL     1       5.809   3.229   2.488  0.00  0.00    +0.166 HD
ENDBRANCH  19  20
ENDBRANCH  12  19
BRANCH   4  30
ATOM     30  C   UNL     1      -1.201  -0.833  -0.035  0.00  0.00    +0.153 C 
BRANCH  30  31
ATOM     31  C   UNL     1      -1.623  -1.073  -1.462  0.00  0.00    -0.026 A 
ATOM     32  C   UNL     1      -2.505  -0.203  -2.077  0.00  0.00    +0.005 A 
ATOM     33  C   UNL     1      -2.889  -0.417  -3.388  0.00  0.00    +0.004 A 
ATOM     34  C   UNL     1      -2.401  -1.507  -4.083  0.00  0.00    +0.045 A 
ATOM     35  C   UNL     1      -1.521  -2.384  -3.466  0.00  0.00    +0.120 A 
ATOM     36  C   UNL     1      -1.132  -2.164  -2.153  0.00  0.00    +0.050 A 
BRANCH  35  37
ATOM     37  O   UNL     1      -1.040  -3.457  -4.148  0.00  0.00    -0.495 OA
ATOM     38  C   UNL     1      -1.483  -3.621  -5.496  0.00  0.00    +0.277 C 
ENDBRANCH  35  37
ENDBRANCH  30  31
ENDBRANCH   4  30
TORSDOF 8
