REMARK  Name = ZINC16904082
REMARK  5 active torsions:
REMARK  status: ('A' for Active; 'I' for Inactive)
REMARK    1  A    between atoms: C_5  and  C_7
REMARK    2  A    between atoms: C_12  and  N_14
REMARK    3  A    between atoms: N_14  and  C_15
REMARK    4  A    between atoms: C_18  and  O_24
REMARK    5  A    between atoms: C_20  and  C_21
REMARK                            x       y       z     vdW  Elec       q    Type
REMARK                         _______ _______ _______ _____ _____    ______ ____
ROOT
ATOM      1  C   UNL     1       1.353  -2.186  -1.068  0.00  0.00    +0.048 C 
ATOM      2  C   UNL     1       2.520  -2.817  -0.796  0.00  0.00    +0.081 C 
ATOM      3  C   UNL     1       2.783  -4.250  -0.508  0.00  0.00    +0.276 C 
ATOM      4  O   UNL     1       1.887  -5.078  -0.487  0.00  0.00    -0.267 OA
ATOM      5  N   UNL     1       4.035  -4.577  -0.278  0.00  0.00    -0.152 NA
ATOM      6  C   UNL     1       5.016  -3.689  -0.298  0.00  0.00    +0.175 C 
ATOM      7  S   UNL     1       4.180  -2.160  -0.690  0.00  0.00    -0.050 S 
ENDROOT
BRANCH   1  12
ATOM      8  C   UNL     1       0.144   1.270  -1.857  0.00  0.00    +0.004 A 
ATOM      9  C   UNL     1       1.357   1.944  -1.814  0.00  0.00    +0.020 A 
ATOM     10  C   UNL     1       2.516   1.242  -1.529  0.00  0.00    +0.111 A 
ATOM     11  N   UNL     1       2.483  -0.053  -1.300  0.00  0.00    -0.256 NA
ATOM     12  C   UNL     1       1.343  -0.738  -1.331  0.00  0.00    +0.065 A 
ATOM     13  C   UNL     1       0.136  -0.092  -1.611  0.00  0.00    +0.028 A 
ENDBRANCH   1  12
BRANCH   6  14
ATOM     14  N   UNL     1       6.353  -3.894  -0.076  0.00  0.00    -0.191 NA
BRANCH  14  15
ATOM     15  C   UNL     1       6.852  -5.189   0.012  0.00  0.00    +0.070 A 
ATOM     16  C   UNL     1       6.173  -6.241  -0.590  0.00  0.00    +0.029 A 
ATOM     17  C   UNL     1       6.668  -7.526  -0.503  0.00  0.00    +0.047 A 
ATOM     18  C   UNL     1       7.849  -7.779   0.187  0.00  0.00    +0.118 A 
ATOM     19  C   UNL     1       8.537  -6.746   0.792  0.00  0.00    +0.062 A 
ATOM     20  C   UNL     1       8.048  -5.438   0.705  0.00  0.00    +0.090 A 
BRANCH  20  21
ATOM     21  C   UNL     1       8.779  -4.331   1.341  0.00  0.00    +0.389 C 
ATOM     22  O   UNL     1       9.820  -4.551   1.944  0.00  0.00    -0.241 OA
ATOM     23  O   UNL     1       8.345  -3.189   1.267  0.00  0.00    -0.241 OA
ENDBRANCH  20  21
BRANCH  18  24
ATOM     24  O   UNL     1       8.327  -9.050   0.267  0.00  0.00    -0.507 OA
ATOM     25  H   UNL     1       8.927  -9.290  -0.453  0.00  0.00    +0.292 HD
ENDBRANCH  18  24
ENDBRANCH  14  15
ENDBRANCH   6  14
TORSDOF 5
