REMARK  Name = ZINC25068680
REMARK  6 active torsions:
REMARK  status: ('A' for Active; 'I' for Inactive)
REMARK    1  A    between atoms: C_1  and  C_2
REMARK    2  A    between atoms: C_5  and  C_8
REMARK    3  A    between atoms: C_8  and  C_10
REMARK    4  A    between atoms: C_8  and  N_15
REMARK    5  A    between atoms: C_16  and  C_18
REMARK    6  A    between atoms: N_27  and  C_28
REMARK                            x       y       z     vdW  Elec       q    Type
REMARK                         _______ _______ _______ _____ _____    ______ ____
ROOT
ATOM      1  N   UNL     1      -0.029   3.476  -1.982  0.00  0.00    -0.304 N 
ATOM      2  C   UNL     1       0.743   3.730  -3.057  0.00  0.00    +0.218 C 
ATOM      3  O   UNL     1       1.599   2.938  -3.389  0.00  0.00    -0.275 OA
ATOM      4  H   UNL     1      -0.806   4.194  -1.681  0.00  0.00    +0.150 HD
ENDROOT
BRANCH   2   5
ATOM      5  C   UNL     1       0.543   4.998  -3.845  0.00  0.00    +0.092 C 
ATOM      6  C   UNL     1       1.543   5.043  -5.003  0.00  0.00    +0.016 C 
ATOM      7  C   UNL     1       1.319   6.315  -5.824  0.00  0.00    +0.020 C 
ATOM      8  C   UNL     1       1.553   7.540  -4.935  0.00  0.00    +0.109 C 
ATOM      9  N   UNL     1       0.698   7.431  -3.745  0.00  0.00    -0.285 N 
ATOM     10  C   UNL     1       0.768   6.208  -2.934  0.00  0.00    +0.122 C 
ATOM     11  C   UNL     1      -0.136   8.434  -3.404  0.00  0.00    +0.306 C 
ATOM     12  O   UNL     1      -0.910   8.293  -2.477  0.00  0.00    -0.252 OA
ATOM     13  N   UNL     1      -0.111   9.594  -4.091  0.00  0.00    -0.269 N 
ATOM     14  H   UNL     1       0.496   9.679  -5.004  0.00  0.00    +0.156 HD
BRANCH  13  15
ATOM     15  C   UNL     1      -0.858  10.689  -3.643  0.00  0.00    +0.035 A 
ATOM     16  C   UNL     1      -1.060  10.883  -2.283  0.00  0.00    +0.023 A 
ATOM     17  C   UNL     1      -1.794  11.967  -1.843  0.00  0.00    +0.002 A 
ATOM     18  C   UNL     1      -2.337  12.853  -2.756  0.00  0.00    +0.000 A 
ATOM     19  C   UNL     1      -2.142  12.659  -4.111  0.00  0.00    +0.002 A 
ATOM     20  C   UNL     1      -1.405  11.580  -4.557  0.00  0.00    +0.023 A 
ENDBRANCH  13  15
ENDBRANCH   2   5
BRANCH   1  21
ATOM     21  C   UNL     1       0.165   2.243  -1.215  0.00  0.00    +0.140 C 
BRANCH  21  26
ATOM     22  C   UNL     1      -1.703   3.025   4.197  0.00  0.00    +0.044 C 
ATOM     23  C   UNL     1      -1.215   2.821   2.786  0.00  0.00    -0.050 A 
ATOM     24  C   UNL     1      -0.057   2.104   2.551  0.00  0.00    +0.004 A 
ATOM     25  C   UNL     1       0.390   1.917   1.256  0.00  0.00    +0.006 A 
ATOM     26  C   UNL     1      -0.322   2.447   0.196  0.00  0.00    -0.022 A 
ATOM     27  C   UNL     1      -1.478   3.168   0.431  0.00  0.00    +0.006 A 
ATOM     28  C   UNL     1      -1.927   3.351   1.726  0.00  0.00    +0.004 A 
ENDBRANCH  21  26
BRANCH  21  29
ATOM     29  C   UNL     1      -0.612   1.123  -1.858  0.00  0.00    +0.014 A 
ATOM     30  C   UNL     1      -0.255  -0.172  -2.036  0.00  0.00    +0.013 A 
ATOM     31  C   UNL     1      -1.139  -1.032  -2.659  0.00  0.00    +0.008 A 
ATOM     32  C   UNL     1      -2.338  -0.554  -3.075  0.00  0.00    +0.045 A 
ATOM     33  S   UNL     1      -2.243   1.159  -2.584  0.00  0.00    -0.099 S 
ENDBRANCH  21  29
ENDBRANCH   1  21
TORSDOF 5
