REMARK  Name = ZINC64664291
REMARK  6 active torsions:
REMARK  status: ('A' for Active; 'I' for Inactive)
REMARK    1  A    between atoms: C_1  and  C_2
REMARK    2  A    between atoms: C_2  and  C_3
REMARK    3  A    between atoms: C_6  and  C_9
REMARK    4  A    between atoms: C_12  and  C_14
REMARK    5  A    between atoms: C_15  and  N_26
REMARK    6  A    between atoms: N_16  and  C_19
REMARK                            x       y       z     vdW  Elec       q    Type
REMARK                         _______ _______ _______ _____ _____    ______ ____
ROOT
ATOM      1  C   UNL     1       6.194  -2.824   5.849  0.00  0.00    +0.159 A 
ATOM      2  C   UNL     1       6.811  -3.289   6.997  0.00  0.00    +0.150 A 
ATOM      3  N   UNL     1       8.137  -3.403   6.700  0.00  0.00    -0.198 N 
ATOM      4  N   UNL     1       8.286  -2.999   5.366  0.00  0.00    -0.058 NA
ATOM      5  N   UNL     1       7.133  -2.673   4.900  0.00  0.00    -0.125 NA
ENDROOT
BRANCH   3   6
ATOM      6  C   UNL     1       9.155  -3.839   7.562  0.00  0.00    +0.069 A 
ATOM      7  C   UNL     1       9.096  -3.536   8.916  0.00  0.00    +0.031 A 
ATOM      8  C   UNL     1      10.098  -3.966   9.763  0.00  0.00    +0.040 A 
ATOM      9  C   UNL     1      11.162  -4.699   9.263  0.00  0.00    +0.124 A 
ATOM     10  C   UNL     1      11.222  -5.002   7.913  0.00  0.00    +0.040 A 
ATOM     11  C   UNL     1      10.219  -4.579   7.064  0.00  0.00    +0.031 A 
ATOM     12  F   UNL     1      12.142  -5.119  10.093  0.00  0.00    -0.205 F 
ENDBRANCH   3   6
BRANCH   1  16
ATOM     13  C   UNL     1       2.787  -1.912   4.667  0.00  0.00    +0.079 A 
ATOM     14  C   UNL     1       2.102  -2.168   5.824  0.00  0.00    +0.075 A 
ATOM     15  S   UNL     1       3.433  -2.714   6.886  0.00  0.00    -0.073 S 
ATOM     16  C   UNL     1       4.753  -2.547   5.692  0.00  0.00    +0.132 A 
ATOM     17  N   UNL     1       4.094  -2.112   4.629  0.00  0.00    -0.237 NA
BRANCH  13  21
ATOM     18  C   UNL     1       0.731  -0.503   1.223  0.00  0.00    -0.048 A 
ATOM     19  C   UNL     1       2.098  -0.709   1.173  0.00  0.00    +0.004 A 
ATOM     20  C   UNL     1       2.771  -1.166   2.288  0.00  0.00    +0.010 A 
ATOM     21  C   UNL     1       2.070  -1.420   3.466  0.00  0.00    +0.001 A 
ATOM     22  C   UNL     1       0.693  -1.212   3.510  0.00  0.00    +0.010 A 
ATOM     23  C   UNL     1       0.031  -0.749   2.391  0.00  0.00    +0.004 A 
BRANCH  18  25
ATOM     24  C   UNL     1      -0.019   1.526   0.010  0.00  0.00    +0.009 C 
ATOM     25  C   UNL     1       0.002  -0.004   0.002  0.00  0.00    +0.032 C 
ENDBRANCH  18  25
ENDBRANCH  13  21
ENDBRANCH   1  16
BRANCH   2  26
ATOM     26  N   UNL     1       6.202  -3.582   8.208  0.00  0.00    -0.341 N 
ATOM     27  H   UNL     1       5.245  -3.464   8.310  0.00  0.00    +0.144 HD
ATOM     28  H   UNL     1       6.733  -3.904   8.953  0.00  0.00    +0.144 HD
ENDBRANCH   2  26
TORSDOF 5
