REMARK  Name = ZINC39682374
REMARK  9 active torsions:
REMARK  status: ('A' for Active; 'I' for Inactive)
REMARK    1  A    between atoms: C_1  and  C_2
REMARK    2  A    between atoms: C_2  and  C_3
REMARK    3  A    between atoms: C_3  and  C_5
REMARK    4  A    between atoms: C_3  and  C_6
REMARK    5  A    between atoms: C_10  and  C_19
REMARK    6  A    between atoms: N_21  and  C_22
REMARK    7  A    between atoms: C_22  and  C_24
REMARK    8  A    between atoms: C_22  and  C_28
REMARK    9  A    between atoms: C_24  and  C_25
REMARK                            x       y       z     vdW  Elec       q    Type
REMARK                         _______ _______ _______ _____ _____    ______ ____
ROOT
ATOM      1  C   UNL     1       0.870  -1.319  -1.361  0.00  0.00    +0.218 C 
ATOM      2  O   UNL     1       0.369  -1.845  -0.390  0.00  0.00    -0.275 OA
ATOM      3  N   UNL     1       1.434  -2.077  -2.322  0.00  0.00    -0.300 N 
ATOM      4  C   UNL     1       2.095  -1.622  -3.568  0.00  0.00    +0.121 C 
ATOM      5  C   UNL     1       3.312  -2.560  -3.730  0.00  0.00    +0.100 C 
ATOM      6  C   UNL     1       2.938  -3.827  -2.944  0.00  0.00    -0.004 C 
ATOM      7  C   UNL     1       1.541  -3.555  -2.368  0.00  0.00    +0.115 C 
ATOM      8  C   UNL     1       3.933  -4.059  -1.811  0.00  0.00    -0.010 C 
ATOM      9  C   UNL     1       3.574  -5.356  -1.080  0.00  0.00    -0.082 C 
ATOM     10  N   UNL     1       3.607  -6.478  -2.025  0.00  0.00    +0.379 N 
ATOM     11  C   UNL     1       2.583  -6.292  -3.060  0.00  0.00    -0.082 C 
ATOM     12  C   UNL     1       2.901  -5.035  -3.875  0.00  0.00    -0.010 C 
ATOM     13  H   UNL     1       4.517  -6.524  -2.459  0.00  0.00    -0.086 HD
ATOM     14  H   UNL     1       3.430  -7.339  -1.530  0.00  0.00    -0.086 HD
ENDROOT
BRANCH   5  15
ATOM     15  C   UNL     1       3.532  -2.887  -5.184  0.00  0.00    +0.219 C 
ATOM     16  O   UNL     1       2.585  -2.972  -5.937  0.00  0.00    -0.275 OA
ATOM     17  N   UNL     1       4.782  -3.086  -5.649  0.00  0.00    -0.308 N 
ATOM     18  H   UNL     1       5.533  -3.089  -5.035  0.00  0.00    +0.149 HD
BRANCH  17  19
ATOM     19  C   UNL     1       5.006  -3.296  -7.081  0.00  0.00    +0.114 C 
BRANCH  19  20
ATOM     20  C   UNL     1       4.874  -4.763  -7.399  0.00  0.00    -0.027 A 
ATOM     21  C   UNL     1       5.383  -5.708  -6.528  0.00  0.00    +0.005 A 
ATOM     22  C   UNL     1       5.262  -7.054  -6.821  0.00  0.00    +0.000 A 
ATOM     23  C   UNL     1       4.632  -7.455  -7.984  0.00  0.00    +0.000 A 
ATOM     24  C   UNL     1       4.122  -6.510  -8.854  0.00  0.00    +0.000 A 
ATOM     25  C   UNL     1       4.239  -5.164  -8.560  0.00  0.00    +0.005 A 
ENDBRANCH  19  20
BRANCH  19  26
ATOM     26  C   UNL     1       6.411  -2.818  -7.453  0.00  0.00    +0.152 C 
BRANCH  26  27
ATOM     27  C   UNL     1       6.500  -1.325  -7.264  0.00  0.00    +0.358 C 
ATOM     28  O   UNL     1       5.555  -0.713  -6.797  0.00  0.00    -0.246 OA
ATOM     29  O   UNL     1       7.516  -0.731  -7.580  0.00  0.00    -0.246 OA
ENDBRANCH  26  27
ENDBRANCH  19  26
ENDBRANCH  17  19
ENDBRANCH   5  15
BRANCH   1  30
ATOM     30  C   UNL     1       0.859   0.182  -1.495  0.00  0.00    +0.072 C 
ATOM     31  C   UNL     1       0.106   0.575  -2.767  0.00  0.00    +0.017 C 
BRANCH  30  33
ATOM     32  C   UNL     1       0.262   2.322  -0.353  0.00  0.00    +0.004 C 
ATOM     33  C   UNL     1       0.163   0.797  -0.279  0.00  0.00    +0.009 C 
ENDBRANCH  30  33
ENDBRANCH   1  30
TORSDOF 7
