REMARK  Name = ZINC45548246
REMARK  8 active torsions:
REMARK  status: ('A' for Active; 'I' for Inactive)
REMARK    1  A    between atoms: C_1  and  N_2
REMARK    2  A    between atoms: C_5  and  C_18
REMARK    3  A    between atoms: C_6  and  N_17
REMARK    4  A    between atoms: N_7  and  C_10
REMARK    5  A    between atoms: C_10  and  C_11
REMARK    6  A    between atoms: C_18  and  C_20
REMARK    7  A    between atoms: C_20  and  N_21
REMARK    8  A    between atoms: C_24  and  C_27
REMARK                            x       y       z     vdW  Elec       q    Type
REMARK                         _______ _______ _______ _____ _____    ______ ____
ROOT
ATOM      1  C   UNL     1       0.034   1.442   0.344  0.00  0.00    +0.157 C 
ATOM      2  N   UNL     1       0.027  -0.012   0.165  0.00  0.00    -0.263 N 
ATOM      3  C   UNL     1       0.004  -0.530  -1.080  0.00  0.00    +0.269 A 
ATOM      4  O   UNL     1      -0.012   0.198  -2.055  0.00  0.00    -0.267 OA
ATOM      5  C   UNL     1      -0.003  -1.991  -1.234  0.00  0.00    +0.118 A 
ATOM      6  C   UNL     1       0.017  -2.775  -0.068  0.00  0.00    +0.116 A 
ATOM      7  N   UNL     1       0.040  -2.151   1.147  0.00  0.00    -0.277 N 
ATOM      8  C   UNL     1       0.050  -0.812   1.244  0.00  0.00    +0.333 A 
ATOM      9  O   UNL     1       0.076  -0.306   2.348  0.00  0.00    -0.246 OA
ENDROOT
BRANCH   6  10
ATOM     10  N   UNL     1       0.012  -4.133  -0.148  0.00  0.00    -0.344 N 
ATOM     11  H   UNL     1       0.077  -4.568  -1.012  0.00  0.00    +0.144 HD
ATOM     12  H   UNL     1      -0.058  -4.666   0.660  0.00  0.00    +0.144 HD
ENDBRANCH   6  10
BRANCH   5  13
ATOM     13  C   UNL     1      -0.027  -2.588  -2.513  0.00  0.00    +0.155 C 
ATOM     14  O   UNL     1       0.076  -3.793  -2.623  0.00  0.00    -0.294 OA
BRANCH  13  15
ATOM     15  C   UNL     1      -0.182  -1.730  -3.742  0.00  0.00    +0.002 C 
BRANCH  15  16
ATOM     16  N   UNL     1      -0.178  -2.583  -4.938  0.00  0.00    +0.385 N 
ATOM     17  C   UNL     1       1.131  -3.232  -5.070  0.00  0.00    -0.078 C 
ATOM     18  C   UNL     1       1.114  -4.184  -6.268  0.00  0.00    -0.011 C 
ATOM     19  C   UNL     1       0.807  -3.389  -7.540  0.00  0.00    +0.016 C 
ATOM     20  C   UNL     1      -0.526  -2.656  -7.363  0.00  0.00    -0.011 C 
ATOM     21  C   UNL     1      -0.449  -1.761  -6.124  0.00  0.00    -0.078 C 
ATOM     22  H   UNL     1      -0.894  -3.288  -4.849  0.00  0.00    -0.081 HD
BRANCH  19  23
ATOM     23  C   UNL     1       0.711  -4.332  -8.713  0.00  0.00    -0.044 A 
ATOM     24  C   UNL     1      -0.238  -5.337  -8.716  0.00  0.00    +0.004 A 
ATOM     25  C   UNL     1      -0.325  -6.201  -9.791  0.00  0.00    +0.000 A 
ATOM     26  C   UNL     1       0.536  -6.060 -10.863  0.00  0.00    +0.000 A 
ATOM     27  C   UNL     1       1.484  -5.055 -10.860  0.00  0.00    +0.000 A 
ATOM     28  C   UNL     1       1.569  -4.188  -9.787  0.00  0.00    +0.004 A 
ENDBRANCH  19  23
ENDBRANCH  15  16
ENDBRANCH  13  15
ENDBRANCH   5  13
BRANCH   7  29
ATOM     29  C   UNL     1       0.060  -2.959   2.369  0.00  0.00    +0.163 C 
BRANCH  29  30
ATOM     30  C   UNL     1       1.488  -3.240   2.762  0.00  0.00    -0.028 A 
ATOM     31  C   UNL     1       2.130  -4.364   2.277  0.00  0.00    +0.005 A 
ATOM     32  C   UNL     1       3.439  -4.621   2.638  0.00  0.00    +0.000 A 
ATOM     33  C   UNL     1       4.106  -3.754   3.483  0.00  0.00    +0.000 A 
ATOM     34  C   UNL     1       3.464  -2.629   3.967  0.00  0.00    +0.000 A 
ATOM     35  C   UNL     1       2.156  -2.370   3.603  0.00  0.00    +0.005 A 
ENDBRANCH  29  30
ENDBRANCH   7  29
TORSDOF 7
