REMARK  Name = ZINC30977701
REMARK  9 active torsions:
REMARK  status: ('A' for Active; 'I' for Inactive)
REMARK    1  A    between atoms: C_1  and  C_2
REMARK    2  A    between atoms: C_2  and  C_3
REMARK    3  A    between atoms: C_2  and  C_4
REMARK    4  A    between atoms: C_2  and  C_5
REMARK    5  A    between atoms: C_8  and  C_11
REMARK    6  A    between atoms: C_13  and  C_16
REMARK    7  A    between atoms: C_16  and  N_17
REMARK    8  A    between atoms: C_20  and  C_23
REMARK    9  A    between atoms: N_25  and  C_26
REMARK                            x       y       z     vdW  Elec       q    Type
REMARK                         _______ _______ _______ _____ _____    ______ ____
ROOT
ATOM      1  N   UNL     1       2.075   1.029  -7.089  0.00  0.00    +0.386 N 
ATOM      2  C   UNL     1       0.632   1.192  -7.305  0.00  0.00    -0.077 C 
ATOM      3  C   UNL     1      -0.002   1.827  -6.066  0.00  0.00    -0.006 C 
ATOM      4  C   UNL     1       0.253   0.929  -4.852  0.00  0.00    +0.071 C 
ATOM      5  C   UNL     1       1.762   0.734  -4.677  0.00  0.00    -0.006 C 
ATOM      6  C   UNL     1       2.345   0.133  -5.958  0.00  0.00    -0.077 C 
ATOM      7  H   UNL     1       2.491   2.016  -6.841  0.00  0.00    -0.081 HD
ENDROOT
BRANCH   4   8
ATOM      8  C   UNL     1      -0.317   1.579  -3.617  0.00  0.00    +0.216 C 
ATOM      9  O   UNL     1      -0.875   2.652  -3.699  0.00  0.00    -0.276 OA
ATOM     10  N   UNL     1      -0.207   0.966  -2.421  0.00  0.00    -0.308 N 
ATOM     11  H   UNL     1       0.298  -0.008  -2.347  0.00  0.00    +0.149 HD
BRANCH  10  12
ATOM     12  C   UNL     1      -0.762   1.597  -1.221  0.00  0.00    +0.103 C 
ATOM     13  C   UNL     1      -0.013   1.086   0.008  0.00  0.00    +0.027 C 
ATOM     14  C   UNL     1      -0.741   1.585   1.261  0.00  0.00    +0.007 C 
ATOM     15  C   UNL     1      -2.075   0.849   1.368  0.00  0.00    +0.035 C 
ATOM     16  C   UNL     1      -2.834   0.935   0.070  0.00  0.00    -0.042 A 
ATOM     17  C   UNL     1      -2.229   1.271  -1.121  0.00  0.00    -0.024 A 
ATOM     18  C   UNL     1      -2.983   1.318  -2.286  0.00  0.00    +0.006 A 
ATOM     19  C   UNL     1      -4.333   1.035  -2.259  0.00  0.00    +0.000 A 
ATOM     20  C   UNL     1      -4.941   0.702  -1.064  0.00  0.00    +0.000 A 
ATOM     21  C   UNL     1      -4.193   0.652   0.095  0.00  0.00    +0.004 A 
ENDBRANCH  10  12
ENDBRANCH   4   8
BRANCH   1  22
ATOM     22  C   UNL     1       2.739   0.550  -8.309  0.00  0.00    +0.022 C 
BRANCH  22  25
ATOM     23  C   UNL     1       6.261   0.201  -7.680  0.00  0.00    +0.202 A 
ATOM     24  N   UNL     1       5.009  -0.310  -7.647  0.00  0.00    -0.193 NA
ATOM     25  C   UNL     1       4.234   0.628  -8.131  0.00  0.00    +0.211 A 
ATOM     26  O   UNL     1       5.016   1.669  -8.432  0.00  0.00    -0.340 OA
ATOM     27  N   UNL     1       6.171   1.410  -8.168  0.00  0.00    -0.056 NA
BRANCH  23  31
ATOM     28  C   UNL     1       9.819  -1.754  -6.413  0.00  0.00    -0.042 A 
ATOM     29  C   UNL     1       9.881  -0.465  -6.913  0.00  0.00    +0.005 A 
ATOM     30  C   UNL     1       8.729   0.174  -7.325  0.00  0.00    +0.012 A 
ATOM     31  C   UNL     1       7.503  -0.481  -7.238  0.00  0.00    +0.022 A 
ATOM     32  C   UNL     1       7.446  -1.777  -6.729  0.00  0.00    +0.012 A 
ATOM     33  C   UNL     1       8.604  -2.409  -6.324  0.00  0.00    +0.005 A 
BRANCH  28  35
ATOM     34  C   UNL     1      11.729  -1.641  -4.836  0.00  0.00    +0.015 C 
ATOM     35  C   UNL     1      11.080  -2.446  -5.964  0.00  0.00    -0.013 C 
ATOM     36  C   UNL     1      10.739  -3.849  -5.458  0.00  0.00    +0.015 C 
ATOM     37  C   UNL     1      12.052  -2.550  -7.141  0.00  0.00    +0.015 C 
ENDBRANCH  28  35
ENDBRANCH  23  31
ENDBRANCH  22  25
ENDBRANCH   1  22
TORSDOF 6
