REMARK  Name = ZINC41584048
REMARK  11 active torsions:
REMARK  status: ('A' for Active; 'I' for Inactive)
REMARK    1  A    between atoms: C_1  and  C_2
REMARK    2  A    between atoms: C_2  and  C_3
REMARK    3  A    between atoms: C_3  and  C_4
REMARK    4  A    between atoms: C_4  and  N_5
REMARK    5  A    between atoms: N_5  and  C_6
REMARK    6  A    between atoms: N_5  and  C_7
REMARK    7  A    between atoms: C_7  and  C_8
REMARK    8  A    between atoms: C_9  and  O_32
REMARK    9  A    between atoms: C_11  and  C_31
REMARK   10  A    between atoms: C_16  and  C_17
REMARK   11  A    between atoms: C_20  and  C_23
REMARK                            x       y       z     vdW  Elec       q    Type
REMARK                         _______ _______ _______ _____ _____    ______ ____
ROOT
ATOM      1  C   UNL     1       2.034  -4.403   3.789  0.00  0.00    +0.020 A 
ATOM      2  C   UNL     1       3.389  -4.688   3.840  0.00  0.00    +0.122 A 
ATOM      3  C   UNL     1       3.972  -5.148   5.017  0.00  0.00    +0.050 A 
ATOM      4  C   UNL     1       3.210  -5.324   6.137  0.00  0.00    -0.033 A 
ATOM      5  C   UNL     1       1.845  -5.041   6.101  0.00  0.00    +0.071 A 
ATOM      6  C   UNL     1       1.246  -4.571   4.921  0.00  0.00    +0.145 A 
ATOM      7  O   UNL     1      -0.072  -4.362   5.130  0.00  0.00    -0.451 OA
ATOM      8  C   UNL     1      -0.433  -4.656   6.401  0.00  0.00    +0.176 C 
ATOM      9  C   UNL     1      -1.681  -4.553   6.925  0.00  0.00    +0.058 C 
ATOM     10  C   UNL     1       0.771  -5.122   7.108  0.00  0.00    +0.232 C 
ATOM     11  O   UNL     1       0.863  -5.480   8.269  0.00  0.00    -0.283 OA
ATOM     12  C   UNL     1       3.844  -5.823   7.410  0.00  0.00    +0.045 C 
ENDROOT
BRANCH   9  13
ATOM     13  C   UNL     1      -2.768  -3.977   6.124  0.00  0.00    -0.021 A 
ATOM     14  C   UNL     1      -4.021  -3.746   6.705  0.00  0.00    +0.008 A 
ATOM     15  C   UNL     1      -5.031  -3.209   5.958  0.00  0.00    +0.009 A 
ATOM     16  C   UNL     1      -4.814  -2.890   4.617  0.00  0.00    -0.018 A 
ATOM     17  C   UNL     1      -3.566  -3.119   4.035  0.00  0.00    +0.009 A 
ATOM     18  C   UNL     1      -2.551  -3.651   4.779  0.00  0.00    +0.008 A 
BRANCH  16  19
ATOM     19  C   UNL     1      -5.911  -2.307   3.808  0.00  0.00    -0.018 A 
ATOM     20  C   UNL     1      -7.158  -2.072   4.387  0.00  0.00    +0.008 A 
ATOM     21  C   UNL     1      -8.176  -1.529   3.629  0.00  0.00    +0.001 A 
ATOM     22  C   UNL     1      -7.961  -1.218   2.298  0.00  0.00    +0.000 A 
ATOM     23  C   UNL     1      -6.726  -1.450   1.719  0.00  0.00    +0.001 A 
ATOM     24  C   UNL     1      -5.699  -1.987   2.468  0.00  0.00    +0.008 A 
ENDBRANCH  16  19
ENDBRANCH   9  13
BRANCH   2  25
ATOM     25  O   UNL     1       4.154  -4.518   2.732  0.00  0.00    -0.506 OA
ATOM     26  H   UNL     1       4.542  -3.635   2.654  0.00  0.00    +0.292 HD
ENDBRANCH   2  25
BRANCH   1  27
ATOM     27  C   UNL     1       1.416  -3.906   2.508  0.00  0.00    -0.036 C 
BRANCH  27  28
ATOM     28  N   UNL     1       1.481  -2.439   2.470  0.00  0.00    +0.381 N 
ATOM     29  C   UNL     1       2.886  -2.012   2.415  0.00  0.00    -0.096 C 
ATOM     30  H   UNL     1       1.047  -2.061   3.299  0.00  0.00    -0.082 HD
BRANCH  28  31
ATOM     31  C   UNL     1       0.774  -1.947   1.280  0.00  0.00    -0.079 C 
BRANCH  31  32
ATOM     32  C   UNL     1       0.734  -0.418   1.305  0.00  0.00    -0.019 C 
BRANCH  32  34
ATOM     33  C   UNL     1      -0.043   1.623   0.091  0.00  0.00    +0.004 C 
ATOM     34  C   UNL     1      -0.003   0.093   0.066  0.00  0.00    -0.005 C 
ENDBRANCH  32  34
ENDBRANCH  31  32
ENDBRANCH  28  31
ENDBRANCH  27  28
ENDBRANCH   1  27
TORSDOF 8
