REMARK  Name = ZINC48754753
REMARK  6 active torsions:
REMARK  status: ('A' for Active; 'I' for Inactive)
REMARK    1  A    between atoms: C_1  and  C_2
REMARK    2  A    between atoms: C_2  and  C_3
REMARK    3  A    between atoms: C_2  and  C_4
REMARK    4  A    between atoms: N_6  and  N_7
REMARK    5  A    between atoms: C_8  and  C_10
REMARK    6  A    between atoms: C_13  and  C_15
REMARK                            x       y       z     vdW  Elec       q    Type
REMARK                         _______ _______ _______ _____ _____    ______ ____
ROOT
ATOM      1  N   UNL     1      -2.954  -2.339   0.018  0.00  0.00    -0.229 N 
ATOM      2  C   UNL     1      -3.183  -3.667   0.013  0.00  0.00    +0.279 C 
ATOM      3  O   UNL     1      -2.248  -4.445  -0.000  0.00  0.00    -0.267 OA
ATOM      4  H   UNL     1      -3.700  -1.719   0.028  0.00  0.00    +0.173 HD
ENDROOT
BRANCH   2   5
ATOM      5  C   UNL     1      -4.564  -4.177   0.023  0.00  0.00    +0.135 A 
ATOM      6  C   UNL     1      -4.807  -5.524   0.024  0.00  0.00    +0.080 A 
ATOM      7  S   UNL     1      -6.488  -5.593   0.037  0.00  0.00    -0.074 S 
ATOM      8  C   UNL     1      -6.815  -3.839   0.042  0.00  0.00    +0.116 A 
ATOM      9  N   UNL     1      -5.591  -3.337   0.038  0.00  0.00    -0.234 NA
BRANCH   8  10
ATOM     10  C   UNL     1      -8.107  -3.136   0.052  0.00  0.00    +0.045 A 
ATOM     11  C   UNL     1      -9.376  -3.658   0.067  0.00  0.00    +0.033 A 
ATOM     12  C   UNL     1     -10.447  -2.793   0.075  0.00  0.00    +0.026 A 
ATOM     13  C   UNL     1     -10.216  -1.454   0.068  0.00  0.00    +0.061 A 
ATOM     14  S   UNL     1      -8.433  -1.380   0.057  0.00  0.00    -0.093 S 
ATOM     15 BR   UNL     1     -12.216  -3.461   0.095  0.00  0.00    -0.050 Br
ENDBRANCH   8  10
ENDBRANCH   2   5
BRANCH   1  18
ATOM     16  C   UNL     1      -1.412  -0.526   0.013  0.00  0.00    +0.232 C 
ATOM     17  O   UNL     1      -2.344   0.250   0.026  0.00  0.00    -0.274 OA
ATOM     18  N   UNL     1      -1.640  -1.854   0.008  0.00  0.00    -0.234 N 
ATOM     19  H   UNL     1      -0.894  -2.474  -0.003  0.00  0.00    +0.173 HD
BRANCH  16  21
ATOM     20  C   UNL     1      -0.019   1.526   0.010  0.00  0.00    +0.017 C 
ATOM     21  C   UNL     1       0.002  -0.004   0.002  0.00  0.00    +0.070 C 
ATOM     22  C   UNL     1       0.742  -0.511   1.242  0.00  0.00    +0.017 C 
ENDBRANCH  16  21
ENDBRANCH   1  18
TORSDOF 4
