REMARK  Name = ZINC16954752
REMARK  8 active torsions:
REMARK  status: ('A' for Active; 'I' for Inactive)
REMARK    1  A    between atoms: C_6  and  C_7
REMARK    2  A    between atoms: C_7  and  O_9
REMARK    3  A    between atoms: O_9  and  C_10
REMARK    4  A    between atoms: C_10  and  C_11
REMARK    5  A    between atoms: C_13  and  O_27
REMARK    6  A    between atoms: C_16  and  N_19
REMARK    7  A    between atoms: O_27  and  C_28
REMARK    8  A    between atoms: C_28  and  C_30
REMARK                            x       y       z     vdW  Elec       q    Type
REMARK                         _______ _______ _______ _____ _____    ______ ____
ROOT
ATOM      1  C   UNL     1      -2.281  -4.292   0.002  0.00  0.00    +0.199 C 
ATOM      2  C   UNL     1      -3.635  -5.044  -0.060  0.00  0.00    +0.213 C 
ATOM      3  C   UNL     1      -3.274  -6.414   0.564  0.00  0.00    +0.102 C 
ATOM      4  C   UNL     1      -1.995  -6.133   1.377  0.00  0.00    +0.229 C 
ATOM      5  O   UNL     1      -1.706  -4.729   1.252  0.00  0.00    -0.346 OA
ENDROOT
BRANCH   4   6
ATOM      6  N   UNL     1      -2.213  -6.479   2.784  0.00  0.00    -0.258 N 
ATOM      7  C   UNL     1      -1.511  -7.482   3.354  0.00  0.00    +0.182 A 
ATOM      8  N   UNL     1      -1.710  -7.788   4.612  0.00  0.00    -0.320 N 
ATOM      9  C   UNL     1      -2.607  -7.110   5.342  0.00  0.00    +0.196 A 
ATOM     10  N   UNL     1      -3.304  -6.122   4.800  0.00  0.00    -0.161 NA
ATOM     11  C   UNL     1      -3.111  -5.792   3.520  0.00  0.00    +0.354 A 
ATOM     12  O   UNL     1      -3.747  -4.881   3.018  0.00  0.00    -0.244 OA
ATOM     13  N   UNL     1      -2.804  -7.441   6.659  0.00  0.00    -0.329 N 
ATOM     14  H   UNL     1      -2.296  -8.164   7.059  0.00  0.00    +0.145 HD
ATOM     15  H   UNL     1      -3.453  -6.953   7.190  0.00  0.00    +0.145 HD
ATOM     16  H   UNL     1      -1.204  -8.509   5.018  0.00  0.00    +0.169 HD
ENDBRANCH   4   6
BRANCH   1  17
ATOM     17  C   UNL     1      -2.506  -2.779   0.012  0.00  0.00    +0.267 C 
BRANCH  17  18
ATOM     18  O   UNL     1      -1.243  -2.110   0.003  0.00  0.00    -0.458 OA
BRANCH  18  19
ATOM     19  C   UNL     1      -1.265  -0.763   0.011  0.00  0.00    +0.339 C 
ATOM     20  O   UNL     1      -2.326  -0.172   0.024  0.00  0.00    -0.245 OA
BRANCH  19  26
ATOM     21  C   UNL     1      -0.017   1.393   0.010  0.00  0.00    +0.016 A 
ATOM     22  C   UNL     1       1.169   2.095   0.002  0.00  0.00    +0.021 A 
ATOM     23  C   UNL     1       2.378   1.419  -0.013  0.00  0.00    +0.041 A 
ATOM     24  C   UNL     1       2.404   0.034  -0.021  0.00  0.00    +0.021 A 
ATOM     25  C   UNL     1       1.224  -0.680  -0.014  0.00  0.00    +0.016 A 
ATOM     26  C   UNL     1       0.002  -0.004   0.002  0.00  0.00    +0.059 A 
ATOM     27 CL   UNL     1       3.868   2.311  -0.023  0.00  0.00    -0.084 Cl
ENDBRANCH  19  26
ENDBRANCH  18  19
ENDBRANCH  17  18
ENDBRANCH   1  17
BRANCH   2  28
ATOM     28  O   UNL     1      -4.071  -5.199  -1.412  0.00  0.00    -0.455 OA
BRANCH  28  29
ATOM     29  C   UNL     1      -5.401  -5.239  -1.625  0.00  0.00    +0.340 C 
ATOM     30  O   UNL     1      -6.169  -5.145  -0.689  0.00  0.00    -0.245 OA
BRANCH  29  31
ATOM     31  C   UNL     1      -5.925  -5.396  -2.997  0.00  0.00    +0.059 A 
ATOM     32  C   UNL     1      -5.044  -5.510  -4.075  0.00  0.00    +0.016 A 
ATOM     33  C   UNL     1      -5.539  -5.657  -5.353  0.00  0.00    +0.021 A 
ATOM     34  C   UNL     1      -6.907  -5.691  -5.570  0.00  0.00    +0.041 A 
ATOM     35  C   UNL     1      -7.786  -5.579  -4.505  0.00  0.00    +0.021 A 
ATOM     36  C   UNL     1      -7.303  -5.438  -3.221  0.00  0.00    +0.016 A 
ATOM     37 CL   UNL     1      -7.523  -5.875  -7.182  0.00  0.00    -0.084 Cl
ENDBRANCH  29  31
ENDBRANCH  28  29
ENDBRANCH   2  28
TORSDOF 8
