REMARK  Name = ZINC08609944
REMARK  8 active torsions:
REMARK  status: ('A' for Active; 'I' for Inactive)
REMARK    1  A    between atoms: C_1  and  C_2
REMARK    2  A    between atoms: C_2  and  O_3
REMARK    3  A    between atoms: O_3  and  C_4
REMARK    4  A    between atoms: C_6  and  C_12
REMARK    5  A    between atoms: C_9  and  O_10
REMARK    6  A    between atoms: C_14  and  C_23
REMARK    7  A    between atoms: C_15  and  C_22
REMARK    8  A    between atoms: N_25  and  C_26
REMARK                            x       y       z     vdW  Elec       q    Type
REMARK                         _______ _______ _______ _____ _____    ______ ____
ROOT
ATOM      1  C   UNL     1      -0.333  -4.939   0.533  0.00  0.00    +0.177 C 
ATOM      2  C   UNL     1       0.823  -5.728   1.088  0.00  0.00    +0.060 C 
ATOM      3  C   UNL     1       1.020  -7.027   0.816  0.00  0.00    +0.018 C 
ATOM      4  N   UNL     1       0.168  -7.744   0.013  0.00  0.00    -0.287 N 
ATOM      5  C   UNL     1      -1.052  -7.163  -0.303  0.00  0.00    +0.218 A 
ATOM      6  N   UNL     1      -1.304  -5.852  -0.062  0.00  0.00    -0.221 N 
ATOM      7  N   UNL     1      -2.610  -5.614  -0.489  0.00  0.00    -0.156 NA
ATOM      8  C   UNL     1      -3.067  -6.749  -0.957  0.00  0.00    +0.247 A 
ATOM      9  N   UNL     1      -2.119  -7.686  -0.844  0.00  0.00    -0.201 NA
ATOM     10  C   UNL     1       2.218  -7.721   1.411  0.00  0.00    +0.061 C 
ATOM     11  H   UNL     1       0.409  -8.623  -0.320  0.00  0.00    +0.155 HD
ENDROOT
BRANCH   1  14
ATOM     12  C   UNL     1       0.448  -1.744  -1.325  0.00  0.00    +0.163 A 
ATOM     13  C   UNL     1      -0.013  -2.623  -0.359  0.00  0.00    +0.055 A 
ATOM     14  C   UNL     1       0.169  -3.984  -0.519  0.00  0.00    -0.014 A 
ATOM     15  C   UNL     1       0.812  -4.472  -1.642  0.00  0.00    +0.025 A 
ATOM     16  C   UNL     1       1.275  -3.599  -2.610  0.00  0.00    +0.063 A 
ATOM     17  C   UNL     1       1.090  -2.234  -2.459  0.00  0.00    +0.173 A 
ATOM     18 BR   UNL     1       2.155  -4.269  -4.144  0.00  0.00    -0.046 Br
BRANCH  17  19
ATOM     19  O   UNL     1       1.539  -1.375  -3.412  0.00  0.00    -0.503 OA
ATOM     20  H   UNL     1       2.447  -1.071  -3.272  0.00  0.00    +0.292 HD
ENDBRANCH  17  19
BRANCH  12  21
ATOM     21  O   UNL     1       0.270  -0.405  -1.169  0.00  0.00    -0.489 OA
BRANCH  21  23
ATOM     22  C   UNL     1      -0.505   1.552   0.018  0.00  0.00    +0.048 C 
ATOM     23  C   UNL     1      -0.397   0.026   0.019  0.00  0.00    +0.226 C 
ENDBRANCH  21  23
ENDBRANCH  12  21
ENDBRANCH   1  14
BRANCH   2  24
ATOM     24  C   UNL     1       1.745  -5.069   1.935  0.00  0.00    +0.248 C 
ATOM     25  O   UNL     1       1.439  -4.814   3.086  0.00  0.00    -0.270 OA
ATOM     26  N   UNL     1       2.961  -4.724   1.468  0.00  0.00    -0.282 N 
ATOM     27  H   UNL     1       3.181  -4.869   0.534  0.00  0.00    +0.155 HD
BRANCH  26  28
ATOM     28  C   UNL     1       3.906  -4.157   2.330  0.00  0.00    +0.034 A 
ATOM     29  C   UNL     1       5.255  -4.441   2.166  0.00  0.00    +0.023 A 
ATOM     30  C   UNL     1       6.186  -3.879   3.018  0.00  0.00    +0.002 A 
ATOM     31  C   UNL     1       5.774  -3.035   4.034  0.00  0.00    +0.000 A 
ATOM     32  C   UNL     1       4.431  -2.751   4.200  0.00  0.00    +0.002 A 
ATOM     33  C   UNL     1       3.497  -3.305   3.347  0.00  0.00    +0.023 A 
ENDBRANCH  26  28
ENDBRANCH   2  24
TORSDOF 6
