REMARK  Name = ZINC36499193
REMARK  17 active torsions:
REMARK  status: ('A' for Active; 'I' for Inactive)
REMARK    1  A    between atoms: C_1  and  C_2
REMARK    2  A    between atoms: C_2  and  C_3
REMARK    3  A    between atoms: C_2  and  C_4
REMARK    4  A    between atoms: C_2  and  C_5
REMARK    5  A    between atoms: C_5  and  C_6
REMARK    6  A    between atoms: C_6  and  C_7
REMARK    7  A    between atoms: C_6  and  C_8
REMARK    8  A    between atoms: C_6  and  N_9
REMARK    9  A    between atoms: C_10  and  C_12
REMARK   10  A    between atoms: C_12  and  C_14
REMARK   11  A    between atoms: C_12  and  N_23
REMARK   12  A    between atoms: C_17  and  O_22
REMARK   13  A    between atoms: C_18  and  O_20
REMARK   14  A    between atoms: O_20  and  C_21
REMARK   15  A    between atoms: N_23  and  C_24
REMARK   16  A    between atoms: C_24  and  C_25
REMARK   17  A    between atoms: C_30  and  C_32
REMARK                            x       y       z     vdW  Elec       q    Type
REMARK                         _______ _______ _______ _____ _____    ______ ____
ROOT
ATOM      1  C   UNL     1       5.694  -1.224  -3.468  0.00  0.00    +0.193 C 
ENDROOT
BRANCH   1   2
ATOM      2  C   UNL     1       4.780  -0.713  -4.552  0.00  0.00    -0.015 A 
ATOM      3  C   UNL     1       4.579   0.646  -4.700  0.00  0.00    +0.010 A 
ATOM      4  C   UNL     1       3.741   1.120  -5.693  0.00  0.00    +0.049 A 
ATOM      5  C   UNL     1       3.102   0.231  -6.542  0.00  0.00    +0.158 A 
ATOM      6  C   UNL     1       3.305  -1.137  -6.393  0.00  0.00    +0.162 A 
ATOM      7  C   UNL     1       4.149  -1.605  -5.399  0.00  0.00    +0.055 A 
BRANCH   6   8
ATOM      8  O   UNL     1       2.679  -2.013  -7.224  0.00  0.00    -0.491 OA
ATOM      9  C   UNL     1       2.845  -3.405  -6.944  0.00  0.00    +0.277 C 
ENDBRANCH   6   8
BRANCH   5  10
ATOM     10  O   UNL     1       2.277   0.696  -7.519  0.00  0.00    -0.503 OA
ATOM     11  H   UNL     1       2.723   0.871  -8.359  0.00  0.00    +0.292 HD
ENDBRANCH   5  10
ENDBRANCH   1   2
BRANCH   1  13
ATOM     12  N   UNL     1       3.868  -2.281  -2.177  0.00  0.00    -0.308 N 
ATOM     13  C   UNL     1       4.907  -1.422  -2.199  0.00  0.00    +0.239 C 
ATOM     14  O   UNL     1       5.207  -0.809  -1.196  0.00  0.00    -0.273 OA
ATOM     15  H   UNL     1       3.628  -2.772  -2.979  0.00  0.00    +0.149 HD
BRANCH  12  16
ATOM     16  C   UNL     1       3.103  -2.474  -0.943  0.00  0.00    +0.030 C 
ATOM     17  C   UNL     1       2.662  -1.114  -0.399  0.00  0.00    +0.031 C 
ATOM     18  C   UNL     1       3.977  -3.180   0.095  0.00  0.00    +0.031 C 
BRANCH  16  19
ATOM     19  C   UNL     1       1.869  -3.330  -1.237  0.00  0.00    +0.031 C 
BRANCH  19  21
ATOM     20  C   UNL     1       1.828  -3.049  -3.719  0.00  0.00    +0.010 C 
ATOM     21  C   UNL     1       1.099  -2.727  -2.414  0.00  0.00    -0.036 C 
ATOM     22  C   UNL     1       1.008  -1.210  -2.240  0.00  0.00    +0.010 C 
ATOM     23  C   UNL     1      -0.311  -3.320  -2.458  0.00  0.00    +0.010 C 
ENDBRANCH  19  21
ENDBRANCH  16  19
ENDBRANCH  12  16
ENDBRANCH   1  13
BRANCH   1  24
ATOM     24  N   UNL     1       6.764  -0.251  -3.232  0.00  0.00    -0.275 N 
ATOM     25  C   UNL     1       7.702  -0.039  -4.176  0.00  0.00    +0.248 C 
ATOM     26  O   UNL     1       8.602   0.752  -3.971  0.00  0.00    -0.270 OA
BRANCH  25  27
ATOM     27  C   UNL     1       7.636  -0.768  -5.461  0.00  0.00    +0.038 A 
ATOM     28  C   UNL     1       6.603  -1.675  -5.700  0.00  0.00    +0.013 A 
ATOM     29  C   UNL     1       6.546  -2.352  -6.900  0.00  0.00    +0.002 A 
ATOM     30  C   UNL     1       7.511  -2.133  -7.867  0.00  0.00    +0.020 A 
ATOM     31  C   UNL     1       8.540  -1.235  -7.637  0.00  0.00    +0.042 A 
ATOM     32  C   UNL     1       8.604  -0.547  -6.441  0.00  0.00    +0.033 A 
ATOM     33 CL   UNL     1       9.746  -0.968  -8.857  0.00  0.00    -0.084 Cl
ENDBRANCH  25  27
BRANCH  24  34
ATOM     34  C   UNL     1       6.813   0.492  -1.970  0.00  0.00    +0.183 C 
BRANCH  34  35
ATOM     35  C   UNL     1       7.411  -0.381  -0.897  0.00  0.00    +0.122 A 
ATOM     36  C   UNL     1       8.725  -0.537  -0.651  0.00  0.00    +0.046 A 
ATOM     37  C   UNL     1       8.835  -1.437   0.433  0.00  0.00    +0.041 A 
ATOM     38  C   UNL     1       7.582  -1.777   0.785  0.00  0.00    +0.195 A 
ATOM     39  O   UNL     1       6.724  -1.130  -0.020  0.00  0.00    -0.466 OA
ENDBRANCH  34  35
ENDBRANCH  24  34
ENDBRANCH   1  24
TORSDOF 11
