REMARK  Name = ZINC65042653
REMARK  4 active torsions:
REMARK  status: ('A' for Active; 'I' for Inactive)
REMARK    1  A    between atoms: C_13  and  S_15
REMARK    2  A    between atoms: S_15  and  C_16
REMARK    3  A    between atoms: C_16  and  C_17
REMARK    4  A    between atoms: C_23  and  N_27
REMARK                            x       y       z     vdW  Elec       q    Type
REMARK                         _______ _______ _______ _____ _____    ______ ____
ROOT
ATOM      1  S   UNL     1      -0.228  -4.099  -0.786  0.00  0.00    -0.118 S 
ENDROOT
BRANCH   1  13
ATOM      2  C   UNL     1      -0.444  -6.478   4.203  0.00  0.00    +0.002 A 
ATOM      3  C   UNL     1      -0.918  -5.842   5.336  0.00  0.00    +0.001 A 
ATOM      4  C   UNL     1      -1.210  -4.489   5.274  0.00  0.00    +0.016 A 
ATOM      5  C   UNL     1      -1.012  -3.800   4.100  0.00  0.00    +0.032 A 
ATOM      6  C   UNL     1      -0.480  -4.403   2.955  0.00  0.00    +0.047 A 
ATOM      7  C   UNL     1      -0.230  -5.784   3.035  0.00  0.00    +0.024 A 
ATOM      8  N   UNL     1      -0.172  -3.579   1.871  0.00  0.00    -0.278 N 
ATOM      9  C   UNL     1      -0.849  -2.252   1.866  0.00  0.00    +0.222 C 
ATOM     10  S   UNL     1      -1.340  -2.116   3.624  0.00  0.00    -0.084 S 
ATOM     11  N   UNL     1       0.268  -1.342   1.533  0.00  0.00    -0.225 NA
ATOM     12  N   UNL     1       0.987  -2.068   0.474  0.00  0.00    -0.225 NA
ATOM     13  C   UNL     1       0.679  -3.495   0.663  0.00  0.00    +0.218 C 
ATOM     14  H   UNL     1      -0.077  -0.456   1.194  0.00  0.00    +0.143 HD
ATOM     15  H   UNL     1       1.982  -1.911   0.540  0.00  0.00    +0.143 HD
ENDBRANCH   1  13
BRANCH   1  16
ATOM     16  C   UNL     1       1.062  -4.362  -2.034  0.00  0.00    +0.119 C 
BRANCH  16  17
ATOM     17  C   UNL     1       0.430  -4.915  -3.313  0.00  0.00    +0.184 C 
ATOM     18  N   UNL     1      -0.598  -3.990  -3.808  0.00  0.00    -0.363 N 
ATOM     19  C   UNL     1      -1.731  -4.632  -3.812  0.00  0.00    +0.060 A 
ATOM     20  C   UNL     1      -3.096  -4.246  -4.195  0.00  0.00    +0.029 A 
ATOM     21  C   UNL     1      -4.095  -5.145  -4.090  0.00  0.00    +0.035 A 
ATOM     22  C   UNL     1      -3.890  -6.456  -3.624  0.00  0.00    +0.128 A 
ATOM     23  C   UNL     1      -2.679  -6.912  -3.247  0.00  0.00    +0.060 A 
ATOM     24  C   UNL     1      -1.514  -6.019  -3.319  0.00  0.00    +0.062 A 
ATOM     25  N   UNL     1      -0.254  -6.183  -3.029  0.00  0.00    -0.363 N 
ATOM     26  H   UNL     1       0.157  -6.993  -2.689  0.00  0.00    +0.162 HD
ATOM     27  H   UNL     1      -0.459  -3.070  -4.081  0.00  0.00    +0.162 HD
BRANCH  22  28
ATOM     28  N   UNL     1      -5.051  -7.371  -3.545  0.00  0.00    +0.056 N 
ATOM     29  O   UNL     1      -6.148  -6.986  -3.877  0.00  0.00    -0.126 OA
ATOM     30  O   UNL     1      -4.901  -8.503  -3.148  0.00  0.00    -0.126 OA
ENDBRANCH  22  28
ENDBRANCH  16  17
ENDBRANCH   1  16
TORSDOF 4
