REMARK  Name = ZINC64625922
REMARK  4 active torsions:
REMARK  status: ('A' for Active; 'I' for Inactive)
REMARK    1  A    between atoms: C_5  and  C_7
REMARK    2  A    between atoms: C_22  and  C_24
REMARK    3  A    between atoms: C_24  and  C_25
REMARK    4  A    between atoms: C_25  and  C_26
REMARK                            x       y       z     vdW  Elec       q    Type
REMARK                         _______ _______ _______ _____ _____    ______ ____
ROOT
ATOM      1  C   UNL     1       1.228  -2.186  -0.022  0.00  0.00    +0.135 C 
ATOM      2  C   UNL     1       1.480  -2.710   1.396  0.00  0.00    +0.131 C 
ATOM      3  C   UNL     1       0.216  -2.423   2.196  0.00  0.00    -0.035 C 
ATOM      4  C   UNL     1       0.593  -1.706   3.248  0.00  0.00    -0.001 A 
ATOM      5  C   UNL     1      -0.160  -1.193   4.404  0.00  0.00    +0.010 A 
ATOM      6  C   UNL     1       0.551  -0.470   5.309  0.00  0.00    +0.001 A 
ATOM      7  C   UNL     1       1.919  -0.209   5.182  0.00  0.00    +0.002 A 
ATOM      8  C   UNL     1       2.690  -0.645   4.154  0.00  0.00    +0.026 A 
ATOM      9  C   UNL     1       2.056  -1.421   3.141  0.00  0.00    +0.043 A 
ATOM     10  N   UNL     1       2.565  -1.984   2.059  0.00  0.00    -0.375 N 
ATOM     11  C   UNL     1      -1.153  -2.857   1.732  0.00  0.00    +0.052 C 
ATOM     12  C   UNL     1      -1.300  -2.377   0.277  0.00  0.00    +0.113 C 
ATOM     13  N   UNL     1      -0.077  -2.699  -0.468  0.00  0.00    -0.292 N 
ATOM     14  C   UNL     1      -0.149  -3.471  -1.570  0.00  0.00    +0.217 C 
ATOM     15  O   UNL     1       0.859  -3.740  -2.189  0.00  0.00    -0.276 OA
ATOM     16  H   UNL     1       3.483  -1.930   1.751  0.00  0.00    +0.160 HD
ENDROOT
BRANCH   1  21
ATOM     17  C   UNL     1       0.232   1.377   0.729  0.00  0.00    +0.000 A 
ATOM     18  C   UNL     1       1.170   2.087   0.003  0.00  0.00    +0.003 A 
ATOM     19  C   UNL     1       2.128   1.415  -0.733  0.00  0.00    +0.039 A 
ATOM     20  C   UNL     1       2.148   0.030  -0.741  0.00  0.00    +0.128 A 
ATOM     21  C   UNL     1       1.208  -0.679  -0.013  0.00  0.00    +0.010 A 
ATOM     22  C   UNL     1       0.251  -0.005   0.721  0.00  0.00    +0.008 A 
ATOM     23  F   UNL     1       3.084  -0.628  -1.460  0.00  0.00    -0.205 F 
ENDBRANCH   1  21
BRANCH  14  24
ATOM     24  C   UNL     1      -1.482  -4.000  -2.034  0.00  0.00    +0.103 C 
BRANCH  24  25
ATOM     25  C   UNL     1      -1.285  -4.841  -3.297  0.00  0.00    +0.083 C 
BRANCH  25  26
ATOM     26  C   UNL     1      -2.618  -5.371  -3.760  0.00  0.00    +0.105 A 
ATOM     27  C   UNL     1      -3.451  -4.759  -4.621  0.00  0.00    +0.044 A 
ATOM     28  C   UNL     1      -4.576  -5.602  -4.772  0.00  0.00    +0.041 A 
ATOM     29  C   UNL     1      -4.363  -6.679  -3.994  0.00  0.00    +0.195 A 
ATOM     30  O   UNL     1      -3.173  -6.536  -3.388  0.00  0.00    -0.468 OA
ENDBRANCH  25  26
ENDBRANCH  24  25
ENDBRANCH  14  24
TORSDOF 4
