REMARK  Name = ZINC21663397
REMARK  7 active torsions:
REMARK  status: ('A' for Active; 'I' for Inactive)
REMARK    1  A    between atoms: C_1  and  C_2
REMARK    2  A    between atoms: C_5  and  C_8
REMARK    3  A    between atoms: C_8  and  N_9
REMARK    4  A    between atoms: C_12  and  C_32
REMARK    5  A    between atoms: C_21  and  C_23
REMARK    6  A    between atoms: N_25  and  C_26
REMARK    7  A    between atoms: C_26  and  C_27
REMARK                            x       y       z     vdW  Elec       q    Type
REMARK                         _______ _______ _______ _____ _____    ______ ____
ROOT
ATOM      1  N   UNL     1      -2.467   4.233   0.050  0.00  0.00    -0.299 N 
ATOM      2  C   UNL     1      -1.247   3.564   0.033  0.00  0.00    +0.071 A 
ATOM      3  C   UNL     1      -1.224   2.173   0.020  0.00  0.00    +0.031 A 
ATOM      4  C   UNL     1      -0.018   1.503   0.010  0.00  0.00    -0.048 A 
ATOM      5  C   UNL     1       1.173   2.209   0.003  0.00  0.00    +0.005 A 
ATOM      6  C   UNL     1       1.163   3.588   0.010  0.00  0.00    +0.030 A 
ATOM      7  C   UNL     1      -0.046   4.275   0.025  0.00  0.00    +0.091 A 
ATOM      8  N   UNL     1      -0.051   5.669   0.033  0.00  0.00    -0.206 N 
ATOM      9  C   UNL     1      -1.239   6.339   0.048  0.00  0.00    +0.222 A 
ATOM     10  C   UNL     1      -2.503   5.581   0.057  0.00  0.00    +0.297 A 
ATOM     11  O   UNL     1      -3.569   6.167   0.070  0.00  0.00    -0.264 OA
ATOM     12  N   UNL     1      -0.965   7.627   0.052  0.00  0.00    -0.198 NA
ATOM     13  C   UNL     1       0.367   7.750   0.040  0.00  0.00    +0.237 A 
ATOM     14  N   UNL     1       0.897   6.541   0.029  0.00  0.00    -0.139 NA
ATOM     15  C   UNL     1       0.002  -0.004   0.002  0.00  0.00    +0.044 C 
ENDROOT
BRANCH  13  16
ATOM     16  C   UNL     1       1.119   9.025   0.040  0.00  0.00    +0.283 C 
ATOM     17  O   UNL     1       2.335   9.013   0.028  0.00  0.00    -0.267 OA
ATOM     18  N   UNL     1       0.457  10.198   0.052  0.00  0.00    -0.302 N 
ATOM     19  H   UNL     1      -0.643  10.208   0.063  0.00  0.00    +0.150 HD
BRANCH  18  20
ATOM     20  C   UNL     1       1.201  11.460   0.052  0.00  0.00    +0.179 C 
BRANCH  20  21
ATOM     21  C   UNL     1       0.233  12.614   0.067  0.00  0.00    +0.122 A 
ATOM     22  C   UNL     1      -0.263  13.211   1.166  0.00  0.00    +0.046 A 
ATOM     23  C   UNL     1      -1.126  14.238   0.721  0.00  0.00    +0.041 A 
ATOM     24  C   UNL     1      -1.107  14.207  -0.624  0.00  0.00    +0.195 A 
ATOM     25  O   UNL     1      -0.278  13.226  -1.014  0.00  0.00    -0.466 OA
ENDBRANCH  20  21
ENDBRANCH  18  20
ENDBRANCH  13  16
BRANCH   1  26
ATOM     26  C   UNL     1      -3.718   3.470   0.058  0.00  0.00    +0.160 C 
BRANCH  26  31
ATOM     27  C   UNL     1      -5.413   2.493  -5.380  0.00  0.00    +0.044 C 
ATOM     28  C   UNL     1      -4.971   2.747  -3.961  0.00  0.00    -0.050 A 
ATOM     29  C   UNL     1      -4.144   1.843  -3.322  0.00  0.00    +0.004 A 
ATOM     30  C   UNL     1      -3.739   2.076  -2.021  0.00  0.00    +0.005 A 
ATOM     31  C   UNL     1      -4.160   3.215  -1.360  0.00  0.00    -0.028 A 
ATOM     32  C   UNL     1      -4.991   4.117  -1.998  0.00  0.00    +0.005 A 
ATOM     33  C   UNL     1      -5.393   3.885  -3.300  0.00  0.00    +0.004 A 
ENDBRANCH  26  31
ENDBRANCH   1  26
TORSDOF 5
