REMARK  Name = ZINC04235722
REMARK  13 active torsions:
REMARK  status: ('A' for Active; 'I' for Inactive)
REMARK    1  A    between atoms: C_1  and  S_2
REMARK    2  A    between atoms: S_2  and  C_3
REMARK    3  A    between atoms: C_4  and  N_34
REMARK    4  A    between atoms: N_7  and  C_8
REMARK    5  A    between atoms: C_14  and  C_15
REMARK    6  A    between atoms: C_14  and  N_69
REMARK    7  A    between atoms: C_15  and  C_16
REMARK    8  A    between atoms: C_16  and  C_17
REMARK    9  A    between atoms: C_17  and  N_71
REMARK   10  A    between atoms: C_19  and  N_31
REMARK   11  A    between atoms: C_20  and  S_29
REMARK   12  A    between atoms: N_21  and  C_23
REMARK   13  A    between atoms: S_29  and  C_30
REMARK                            x       y       z     vdW  Elec       q    Type
REMARK                         _______ _______ _______ _____ _____    ______ ____
ROOT
ATOM      1  C   UNL     1      -7.306   2.704  -2.142  0.00  0.00    -0.020 C 
ENDROOT
BRANCH   1   2
ATOM      2  C   UNL     1      -6.508   1.893  -1.119  0.00  0.00    -0.076 C 
BRANCH   2   8
ATOM      3  C   UNL     1      -2.883   3.634   0.105  0.00  0.00    +0.091 C 
ATOM      4  C   UNL     1      -3.961   4.402   0.013  0.00  0.00    +0.115 C 
ATOM      5  C   UNL     1      -5.318   3.835  -0.298  0.00  0.00    -0.013 C 
ATOM      6  C   UNL     1      -4.314   1.645  -0.123  0.00  0.00    +0.037 C 
ATOM      7  N   UNL     1      -2.976   2.257  -0.093  0.00  0.00    -0.310 N 
ATOM      8  N   UNL     1      -5.178   2.516  -0.946  0.00  0.00    +0.394 N 
ATOM      9  H   UNL     1      -4.745   2.641  -1.869  0.00  0.00    -0.079 HD
BRANCH   7  10
ATOM     10  C   UNL     1      -1.829   1.478  -0.264  0.00  0.00    +0.033 A 
ATOM     11  C   UNL     1      -1.479   0.534   0.693  0.00  0.00    +0.023 A 
ATOM     12  C   UNL     1      -0.341  -0.230   0.523  0.00  0.00    +0.002 A 
ATOM     13  C   UNL     1       0.444  -0.064  -0.603  0.00  0.00    +0.000 A 
ATOM     14  C   UNL     1       0.095   0.871  -1.561  0.00  0.00    +0.002 A 
ATOM     15  C   UNL     1      -1.038   1.642  -1.395  0.00  0.00    +0.023 A 
ENDBRANCH   7  10
BRANCH   4  16
ATOM     16  N   UNL     1      -3.823   5.862   0.222  0.00  0.00    +0.053 N 
ATOM     17  O   UNL     1      -2.732   6.340   0.475  0.00  0.00    -0.126 OA
ATOM     18  O   UNL     1      -4.801   6.583   0.142  0.00  0.00    -0.126 OA
ENDBRANCH   4  16
BRANCH   3  20
ATOM     19  C   UNL     1      -0.924   3.716   2.129  0.00  0.00    +0.091 C 
ATOM     20  S   UNL     1      -1.322   4.359   0.480  0.00  0.00    -0.112 S 
ENDBRANCH   3  20
ENDBRANCH   2   8
ENDBRANCH   1   2
BRANCH   1  21
ATOM     21  C   UNL     1      -8.678   2.059  -2.345  0.00  0.00    -0.020 C 
BRANCH  21  22
ATOM     22  C   UNL     1      -9.476   2.870  -3.369  0.00  0.00    -0.076 C 
BRANCH  22  28
ATOM     23  C   UNL     1     -11.418   1.923  -2.276  0.00  0.00    -0.013 C 
ATOM     24  C   UNL     1     -12.815   1.410  -2.484  0.00  0.00    +0.115 C 
ATOM     25  C   UNL     1     -13.491   1.645  -3.602  0.00  0.00    +0.091 C 
ATOM     26  N   UNL     1     -12.914   2.381  -4.635  0.00  0.00    -0.310 N 
ATOM     27  C   UNL     1     -11.677   3.126  -4.355  0.00  0.00    +0.037 C 
ATOM     28  N   UNL     1     -10.793   2.229  -3.577  0.00  0.00    +0.394 N 
ATOM     29  H   UNL     1     -10.660   1.355  -4.098  0.00  0.00    -0.079 HD
BRANCH  26  30
ATOM     30  C   UNL     1     -13.496   2.411  -5.905  0.00  0.00    +0.033 A 
ATOM     31  C   UNL     1     -13.549   1.255  -6.674  0.00  0.00    +0.023 A 
ATOM     32  C   UNL     1     -14.129   1.286  -7.927  0.00  0.00    +0.002 A 
ATOM     33  C   UNL     1     -14.648   2.469  -8.421  0.00  0.00    +0.000 A 
ATOM     34  C   UNL     1     -14.592   3.623  -7.660  0.00  0.00    +0.002 A 
ATOM     35  C   UNL     1     -14.018   3.597  -6.405  0.00  0.00    +0.023 A 
ENDBRANCH  26  30
BRANCH  24  36
ATOM     36  N   UNL     1     -13.457   0.617  -1.410  0.00  0.00    +0.053 N 
ATOM     37  O   UNL     1     -14.588   0.192  -1.560  0.00  0.00    -0.126 OA
ATOM     38  O   UNL     1     -12.853   0.391  -0.376  0.00  0.00    -0.126 OA
ENDBRANCH  24  36
BRANCH  25  39
ATOM     39  S   UNL     1     -15.129   1.022  -3.781  0.00  0.00    -0.112 S 
ATOM     40  C   UNL     1     -16.160   2.513  -3.848  0.00  0.00    +0.091 C 
ENDBRANCH  25  39
ENDBRANCH  22  28
ENDBRANCH  21  22
ENDBRANCH   1  21
TORSDOF 11
