REMARK  Name = ZINC14468130
REMARK  11 active torsions:
REMARK  status: ('A' for Active; 'I' for Inactive)
REMARK    1  A    between atoms: C_1  and  C_2
REMARK    2  A    between atoms: C_2  and  O_4
REMARK    3  A    between atoms: O_4  and  C_5
REMARK    4  A    between atoms: C_8  and  C_13
REMARK    5  A    between atoms: C_10  and  O_11
REMARK    6  A    between atoms: O_11  and  C_12
REMARK    7  A    between atoms: C_24  and  S_29
REMARK    8  A    between atoms: S_29  and  N_32
REMARK    9  A    between atoms: N_32  and  C_33
REMARK   10  A    between atoms: C_36  and  O_39
REMARK   11  A    between atoms: O_39  and  C_40
REMARK                            x       y       z     vdW  Elec       q    Type
REMARK                         _______ _______ _______ _____ _____    ______ ____
ROOT
ATOM      1  C   UNL     1      -0.107   6.562  -0.749  0.00  0.00    +0.105 C 
ATOM      2  C   UNL     1       1.089   6.209   0.141  0.00  0.00    +0.029 C 
ATOM      3  C   UNL     1       2.342   6.902  -0.472  0.00  0.00    +0.033 C 
ATOM      4  C   UNL     1       2.768   5.948  -1.571  0.00  0.00    -0.030 C 
ATOM      5  C   UNL     1       2.283   4.761  -1.352  0.00  0.00    -0.023 C 
ATOM      6  C   UNL     1       1.484   4.735  -0.071  0.00  0.00    +0.049 C 
ATOM      7  C   UNL     1       0.303   3.824  -0.182  0.00  0.00    -0.018 A 
ATOM      8  C   UNL     1       0.513   2.452  -0.137  0.00  0.00    +0.034 A 
ATOM      9  C   UNL     1      -0.549   1.577  -0.235  0.00  0.00    +0.109 A 
ATOM     10  C   UNL     1      -1.838   2.057  -0.384  0.00  0.00    +0.030 A 
ATOM     11  C   UNL     1      -2.060   3.419  -0.424  0.00  0.00    +0.025 A 
ATOM     12  C   UNL     1      -0.991   4.301  -0.327  0.00  0.00    +0.031 A 
ATOM     13  N   UNL     1      -1.227   5.677  -0.412  0.00  0.00    -0.336 N 
ATOM     14  H   UNL     1      -2.111   6.038  -0.240  0.00  0.00    +0.147 HD
ENDROOT
BRANCH   1  18
ATOM     15  C   UNL     1      -1.244  10.629  -0.071  0.00  0.00    +0.173 A 
ATOM     16  C   UNL     1      -1.643   9.638   0.812  0.00  0.00    +0.050 A 
ATOM     17  C   UNL     1      -1.274   8.324   0.590  0.00  0.00    +0.009 A 
ATOM     18  C   UNL     1      -0.507   7.995  -0.512  0.00  0.00    -0.023 A 
ATOM     19  C   UNL     1      -0.100   8.979  -1.394  0.00  0.00    +0.055 A 
ATOM     20  C   UNL     1      -0.471  10.297  -1.180  0.00  0.00    +0.163 A 
BRANCH  20  21
ATOM     21  O   UNL     1      -0.076  11.266  -2.049  0.00  0.00    -0.491 OA
ATOM     22  C   UNL     1       0.715  10.853  -3.165  0.00  0.00    +0.277 C 
ENDBRANCH  20  21
BRANCH  15  23
ATOM     23  O   UNL     1      -1.606  11.921   0.146  0.00  0.00    -0.422 OA
BRANCH  23  25
ATOM     24  C   UNL     1      -3.121  13.803  -0.362  0.00  0.00    +0.136 C 
ATOM     25  C   UNL     1      -2.712  12.357  -0.477  0.00  0.00    +0.309 C 
ATOM     26  O   UNL     1      -3.379  11.591  -1.131  0.00  0.00    -0.251 OA
ENDBRANCH  23  25
ENDBRANCH  15  23
ENDBRANCH   1  18
BRANCH   9  27
ATOM     27  S   UNL     1      -0.262  -0.161  -0.176  0.00  0.00    +0.072 S 
ATOM     28  O   UNL     1      -1.423  -0.783  -0.709  0.00  0.00    -0.150 OA
ATOM     29  O   UNL     1       1.034  -0.376  -0.718  0.00  0.00    -0.150 OA
BRANCH  27  30
ATOM     30  N   UNL     1      -0.185  -0.591   1.421  0.00  0.00    -0.216 N 
ATOM     31  H   UNL     1       0.637  -0.954   1.787  0.00  0.00    +0.174 HD
BRANCH  30  32
ATOM     32  C   UNL     1      -1.306  -0.430   2.244  0.00  0.00    +0.048 A 
ATOM     33  C   UNL     1      -1.339   0.594   3.180  0.00  0.00    +0.028 A 
ATOM     34  C   UNL     1      -2.448   0.754   3.988  0.00  0.00    +0.047 A 
ATOM     35  C   UNL     1      -3.524  -0.114   3.871  0.00  0.00    +0.120 A 
ATOM     36  C   UNL     1      -3.489  -1.141   2.939  0.00  0.00    +0.047 A 
ATOM     37  C   UNL     1      -2.383  -1.299   2.127  0.00  0.00    +0.028 A 
BRANCH  35  38
ATOM     38  O   UNL     1      -4.613   0.042   4.670  0.00  0.00    -0.495 OA
ATOM     39  C   UNL     1      -4.581   1.121   5.607  0.00  0.00    +0.277 C 
ENDBRANCH  35  38
ENDBRANCH  30  32
ENDBRANCH  27  30
ENDBRANCH   9  27
TORSDOF 8
