REMARK  Name = ZINC00227156
REMARK  4 active torsions:
REMARK  status: ('A' for Active; 'I' for Inactive)
REMARK    1  A    between atoms: C_5  and  N_7
REMARK    2  A    between atoms: C_8  and  C_9
REMARK    3  A    between atoms: C_12  and  O_16
REMARK    4  A    between atoms: C_14  and  O_15
REMARK                            x       y       z     vdW  Elec       q    Type
REMARK                         _______ _______ _______ _____ _____    ______ ____
ROOT
ATOM      1  C   UNL     1       0.170  -4.190   0.186  0.00  0.00    +0.035 A 
ATOM      2  C   UNL     1      -1.022  -4.916   0.293  0.00  0.00    +0.016 A 
ATOM      3  C   UNL     1      -0.984  -6.288   0.388  0.00  0.00    +0.046 A 
ATOM      4  C   UNL     1       0.236  -6.958   0.378  0.00  0.00    +0.120 A 
ATOM      5  C   UNL     1       1.423  -6.248   0.272  0.00  0.00    +0.091 A 
ATOM      6  C   UNL     1       1.399  -4.869   0.170  0.00  0.00    +0.129 A 
ENDROOT
BRANCH   1   8
ATOM      7  N   UNL     1       1.247  -2.051  -0.021  0.00  0.00    -0.251 NA
ATOM      8  C   UNL     1       0.135  -2.725   0.084  0.00  0.00    +0.123 C 
BRANCH   7  13
ATOM      9  C   UNL     1       0.474   1.373   0.986  0.00  0.00    +0.002 A 
ATOM     10  C   UNL     1       1.171   2.089   0.029  0.00  0.00    +0.004 A 
ATOM     11  C   UNL     1       1.895   1.429  -0.947  0.00  0.00    +0.053 A 
ATOM     12  C   UNL     1       1.927   0.045  -0.972  0.00  0.00    +0.204 A 
ATOM     13  C   UNL     1       1.222  -0.683  -0.005  0.00  0.00    +0.110 A 
ATOM     14  C   UNL     1       0.495  -0.006   0.976  0.00  0.00    +0.031 A 
ATOM     15  O   UNL     1       2.638  -0.604  -1.931  0.00  0.00    -0.286 OA
ENDBRANCH   7  13
ENDBRANCH   1   8
BRANCH   6  16
ATOM     16  O   UNL     1       2.560  -4.173   0.061  0.00  0.00    -0.506 OA
ATOM     17  H   UNL     1       2.942  -3.909   0.909  0.00  0.00    +0.292 HD
ENDBRANCH   6  16
BRANCH   4  18
ATOM     18  O   UNL     1       0.264  -8.312   0.472  0.00  0.00    -0.507 OA
ATOM     19  H   UNL     1       0.231  -8.766  -0.381  0.00  0.00    +0.292 HD
ENDBRANCH   4  18
TORSDOF 4
