REMARK  Name = ZINC01256528
REMARK  7 active torsions:
REMARK  status: ('A' for Active; 'I' for Inactive)
REMARK    1  A    between atoms: C_4  and  O_32
REMARK    2  A    between atoms: C_5  and  C_7
REMARK    3  A    between atoms: N_8  and  N_9
REMARK    4  A    between atoms: C_10  and  N_31
REMARK    5  A    between atoms: C_11  and  C_22
REMARK    6  A    between atoms: N_24  and  C_25
REMARK    7  A    between atoms: C_25  and  C_26
REMARK                            x       y       z     vdW  Elec       q    Type
REMARK                         _______ _______ _______ _____ _____    ______ ____
ROOT
ATOM      1  N   UNL     1       2.412  -4.186  -0.044  0.00  0.00    -0.198 N 
ATOM      2  C   UNL     1       2.432  -4.966   1.073  0.00  0.00    +0.134 A 
ATOM      3  C   UNL     1       2.454  -6.313   0.724  0.00  0.00    +0.105 A 
ATOM      4  C   UNL     1       2.448  -6.364  -0.747  0.00  0.00    +0.124 A 
ATOM      5  C   UNL     1       2.415  -4.965  -1.185  0.00  0.00    +0.183 A 
ATOM      6  N   UNL     1       2.399  -4.690  -2.471  0.00  0.00    -0.224 NA
ATOM      7  C   UNL     1       2.409  -5.685  -3.367  0.00  0.00    +0.092 A 
ATOM      8  C   UNL     1       2.391  -5.400  -4.745  0.00  0.00    +0.030 A 
ATOM      9  C   UNL     1       2.402  -6.418  -5.647  0.00  0.00    +0.002 A 
ATOM     10  C   UNL     1       2.430  -7.747  -5.228  0.00  0.00    +0.002 A 
ATOM     11  C   UNL     1       2.447  -8.062  -3.905  0.00  0.00    +0.030 A 
ATOM     12  C   UNL     1       2.438  -7.037  -2.941  0.00  0.00    +0.090 A 
ATOM     13  N   UNL     1       2.461  -7.336  -1.637  0.00  0.00    -0.241 NA
ENDROOT
BRANCH   3  14
ATOM     14  C   UNL     1       2.479  -7.419   1.612  0.00  0.00    +0.250 C 
ATOM     15  O   UNL     1       1.436  -7.914   1.998  0.00  0.00    -0.270 OA
ATOM     16  N   UNL     1       3.659  -7.923   2.027  0.00  0.00    -0.307 N 
ATOM     17  H   UNL     1       4.490  -7.529   1.719  0.00  0.00    +0.149 HD
BRANCH  16  18
ATOM     18  C   UNL     1       3.684  -9.066   2.943  0.00  0.00    +0.147 C 
BRANCH  18  19
ATOM     19  C   UNL     1       5.114  -9.431   3.250  0.00  0.00    +0.007 A 
ATOM     20  C   UNL     1       5.914  -8.984   4.249  0.00  0.00    +0.013 A 
ATOM     21  C   UNL     1       7.207  -9.464   4.338  0.00  0.00    +0.008 A 
ATOM     22  C   UNL     1       7.637 -10.368   3.424  0.00  0.00    +0.045 A 
ATOM     23  S   UNL     1       6.191 -10.572   2.398  0.00  0.00    -0.100 S 
ENDBRANCH  18  19
ENDBRANCH  16  18
ENDBRANCH   3  14
BRANCH   2  24
ATOM     24  N   UNL     1       2.429  -4.492   2.360  0.00  0.00    -0.342 N 
ATOM     25  H   UNL     1       2.413  -3.536   2.524  0.00  0.00    +0.144 HD
ATOM     26  H   UNL     1       2.445  -5.112   3.106  0.00  0.00    +0.144 HD
ENDBRANCH   2  24
BRANCH   1  28
ATOM     27  C   UNL     1       1.250  -2.157  -0.021  0.00  0.00    +0.145 C 
ATOM     28  N   UNL     1       2.386  -2.785  -0.036  0.00  0.00    -0.171 NA
BRANCH  27  33
ATOM     29  C   UNL     1      -0.017   1.375   0.010  0.00  0.00    +0.001 A 
ATOM     30  C   UNL     1       1.169   2.089   0.002  0.00  0.00    +0.004 A 
ATOM     31  C   UNL     1       2.383   1.429  -0.013  0.00  0.00    +0.046 A 
ATOM     32  C   UNL     1       2.420   0.044  -0.021  0.00  0.00    +0.125 A 
ATOM     33  C   UNL     1       1.222  -0.684  -0.013  0.00  0.00    +0.036 A 
ATOM     34  C   UNL     1       0.002  -0.004   0.002  0.00  0.00    +0.013 A 
BRANCH  32  35
ATOM     35  O   UNL     1       3.613  -0.606  -0.037  0.00  0.00    -0.506 OA
ATOM     36  H   UNL     1       3.967  -0.799   0.842  0.00  0.00    +0.292 HD
ENDBRANCH  32  35
ENDBRANCH  27  33
ENDBRANCH   1  28
TORSDOF 7
