REMARK  Name = ZINC39672859
REMARK  5 active torsions:
REMARK  status: ('A' for Active; 'I' for Inactive)
REMARK    1  A    between atoms: C_4  and  C_7
REMARK    2  A    between atoms: C_4  and  N_28
REMARK    3  A    between atoms: C_7  and  N_8
REMARK    4  A    between atoms: C_9  and  C_11
REMARK    5  A    between atoms: C_22  and  C_24
REMARK                            x       y       z     vdW  Elec       q    Type
REMARK                         _______ _______ _______ _____ _____    ______ ____
ROOT
ATOM      1  C   UNL     1       4.283  -4.205  -1.304  0.00  0.00    +0.100 C 
ATOM      2  C   UNL     1       2.934  -4.941  -1.466  0.00  0.00    +0.121 C 
ATOM      3  N   UNL     1       2.810  -5.178  -2.924  0.00  0.00    -0.300 N 
ATOM      4  C   UNL     1       4.182  -5.536  -3.357  0.00  0.00    +0.115 C 
ATOM      5  C   UNL     1       5.101  -4.601  -2.544  0.00  0.00    -0.004 C 
ATOM      6  C   UNL     1       6.369  -5.338  -2.127  0.00  0.00    -0.010 C 
ATOM      7  C   UNL     1       7.195  -5.670  -3.374  0.00  0.00    -0.082 C 
ATOM      8  N   UNL     1       7.535  -4.430  -4.082  0.00  0.00    +0.379 N 
ATOM      9  C   UNL     1       6.312  -3.774  -4.560  0.00  0.00    -0.082 C 
ATOM     10  C   UNL     1       5.450  -3.362  -3.364  0.00  0.00    -0.010 C 
ATOM     11  C   UNL     1       1.701  -5.090  -3.684  0.00  0.00    +0.219 C 
ATOM     12  O   UNL     1       1.761  -5.317  -4.874  0.00  0.00    -0.275 OA
ATOM     13  H   UNL     1       8.024  -3.809  -3.454  0.00  0.00    -0.086 HD
ATOM     14  H   UNL     1       8.130  -4.645  -4.868  0.00  0.00    -0.086 HD
ENDROOT
BRANCH   1  16
ATOM     15  N   UNL     1       4.921  -1.924  -0.592  0.00  0.00    -0.313 N 
ATOM     16  C   UNL     1       4.066  -2.714  -1.272  0.00  0.00    +0.218 C 
ATOM     17  O   UNL     1       3.123  -2.225  -1.857  0.00  0.00    -0.275 OA
ATOM     18  H   UNL     1       5.675  -2.314  -0.124  0.00  0.00    +0.149 HD
BRANCH  15  19
ATOM     19  C   UNL     1       4.711  -0.474  -0.561  0.00  0.00    +0.126 C 
BRANCH  19  23
ATOM     20  C   UNL     1       6.728   2.104  -1.890  0.00  0.00    +0.000 C 
ATOM     21  C   UNL     1       7.005   0.606  -2.029  0.00  0.00    +0.002 C 
ATOM     22  C   UNL     1       7.165  -0.014  -0.639  0.00  0.00    +0.024 C 
ATOM     23  C   UNL     1       5.880   0.195   0.164  0.00  0.00    +0.038 C 
ATOM     24  C   UNL     1       5.603   1.694   0.303  0.00  0.00    +0.024 C 
ATOM     25  C   UNL     1       5.443   2.313  -1.087  0.00  0.00    +0.002 C 
BRANCH  23  26
ATOM     26  N   UNL     1       6.034  -0.400   1.498  0.00  0.00    -0.291 NA
ATOM     27  C   UNL     1       4.790  -0.283   2.274  0.00  0.00    +0.113 C 
ATOM     28  C   UNL     1       4.976  -0.967   3.631  0.00  0.00    +0.175 C 
ATOM     29  O   UNL     1       6.092  -0.380   4.306  0.00  0.00    -0.377 OA
ATOM     30  C   UNL     1       7.320  -0.477   3.579  0.00  0.00    +0.175 C 
ATOM     31  C   UNL     1       7.158   0.212   2.221  0.00  0.00    +0.113 C 
ENDBRANCH  23  26
ENDBRANCH  19  23
ENDBRANCH  15  19
ENDBRANCH   1  16
BRANCH  11  32
ATOM     32  C   UNL     1       0.385  -4.709  -3.056  0.00  0.00    +0.075 C 
ATOM     33  C   UNL     1      -0.345  -5.888  -2.391  0.00  0.00    +0.013 C 
ATOM     34  C   UNL     1      -1.647  -5.303  -2.963  0.00  0.00    +0.001 C 
ATOM     35  C   UNL     1      -0.782  -4.652  -4.056  0.00  0.00    +0.013 C 
ENDBRANCH  11  32
TORSDOF 5
