REMARK  Name = ZINC08854917
REMARK  16 active torsions:
REMARK  status: ('A' for Active; 'I' for Inactive)
REMARK    1  A    between atoms: C_1  and  C_2
REMARK    2  A    between atoms: C_2  and  O_3
REMARK    3  A    between atoms: O_3  and  C_4
REMARK    4  A    between atoms: C_4  and  C_6
REMARK    5  A    between atoms: C_10  and  N_11
REMARK    6  A    between atoms: N_11  and  C_12
REMARK    7  A    between atoms: C_12  and  C_13
REMARK    8  A    between atoms: C_12  and  C_18
REMARK    9  A    between atoms: C_12  and  N_22
REMARK   10  A    between atoms: C_13  and  O_15
REMARK   11  A    between atoms: O_15  and  C_16
REMARK   12  A    between atoms: C_16  and  C_17
REMARK   13  A    between atoms: C_23  and  O_25
REMARK   14  A    between atoms: O_25  and  C_26
REMARK   15  A    between atoms: C_26  and  C_27
REMARK   16  A    between atoms: C_31  and  N_58
REMARK                            x       y       z     vdW  Elec       q    Type
REMARK                         _______ _______ _______ _____ _____    ______ ____
ROOT
ATOM      1  N   UNL     1       1.310   2.122   2.574  0.00  0.00    -0.301 N 
ATOM      2  H   UNL     1       0.505   1.646   2.829  0.00  0.00    +0.149 HD
ENDROOT
BRANCH   1   7
ATOM      3  C   UNL     1       0.736   2.162   0.145  0.00  0.00    +0.090 A 
ATOM      4  C   UNL     1       1.177   2.665  -1.144  0.00  0.00    -0.025 A 
ATOM      5  C   UNL     1       2.319   3.386  -1.122  0.00  0.00    -0.021 A 
ATOM      6  S   UNL     1       2.811   3.405   0.577  0.00  0.00    -0.080 S 
ATOM      7  C   UNL     1       1.516   2.473   1.254  0.00  0.00    +0.082 A 
ATOM      8  C   UNL     1       2.995   4.017  -2.300  0.00  0.00    -0.036 C 
ATOM      9  C   UNL     1       0.953   3.456  -3.478  0.00  0.00    -0.074 C 
ATOM     10  C   UNL     1       0.444   2.431  -2.460  0.00  0.00    +0.018 C 
ATOM     11  C   UNL     1       2.919   4.127  -4.723  0.00  0.00    -0.096 C 
ATOM     12  N   UNL     1       2.428   3.407  -3.528  0.00  0.00    +0.381 N 
ATOM     13  H   UNL     1       2.728   2.426  -3.583  0.00  0.00    -0.082 HD
BRANCH   3  14
ATOM     14  C   UNL     1      -0.484   1.365   0.273  0.00  0.00    +0.342 C 
ATOM     15  O   UNL     1      -0.432   0.153   0.174  0.00  0.00    -0.245 OA
BRANCH  14  16
ATOM     16  O   UNL     1      -1.667   1.973   0.495  0.00  0.00    -0.461 OA
BRANCH  16  18
ATOM     17  C   UNL     1      -4.057   1.996   0.854  0.00  0.00    +0.048 C 
ATOM     18  C   UNL     1      -2.818   1.133   0.604  0.00  0.00    +0.229 C 
ENDBRANCH  16  18
ENDBRANCH  14  16
ENDBRANCH   3  14
ENDBRANCH   1   7
BRANCH   1  19
ATOM     19  C   UNL     1       2.309   2.468   3.588  0.00  0.00    +0.298 C 
BRANCH  19  20
ATOM     20  C   UNL     1       1.794   2.063   4.971  0.00  0.00    +0.438 C 
ATOM     21  F   UNL     1       1.708   0.669   5.046  0.00  0.00    -0.166 F 
ATOM     22  F   UNL     1       2.675   2.530   5.952  0.00  0.00    -0.166 F 
ATOM     23  F   UNL     1       0.528   2.620   5.178  0.00  0.00    -0.166 F 
ENDBRANCH  19  20
BRANCH  19  24
ATOM     24  N   UNL     1       3.559   1.757   3.305  0.00  0.00    -0.244 N 
ATOM     25  C   UNL     1       4.644   1.968   4.077  0.00  0.00    +0.402 C 
ATOM     26  O   UNL     1       4.559   2.671   5.064  0.00  0.00    -0.226 OA
ATOM     27  H   UNL     1       3.605   1.135   2.563  0.00  0.00    +0.155 HD
BRANCH  25  28
ATOM     28  O   UNL     1       5.821   1.401   3.753  0.00  0.00    -0.451 OA
BRANCH  28  29
ATOM     29  C   UNL     1       6.947   1.672   4.629  0.00  0.00    +0.230 C 
ATOM     30  C   UNL     1       8.188   0.947   4.104  0.00  0.00    +0.048 C 
ENDBRANCH  28  29
ENDBRANCH  25  28
ENDBRANCH  19  24
BRANCH  19  31
ATOM     31  C   UNL     1       2.559   3.954   3.561  0.00  0.00    +0.359 C 
ATOM     32  O   UNL     1       1.791   4.685   2.983  0.00  0.00    -0.246 OA
BRANCH  31  33
ATOM     33  O   UNL     1       3.636   4.465   4.178  0.00  0.00    -0.462 OA
BRANCH  33  34
ATOM     34  C   UNL     1       3.814   5.904   4.110  0.00  0.00    +0.229 C 
ATOM     35  C   UNL     1       5.085   6.298   4.865  0.00  0.00    +0.048 C 
ENDBRANCH  33  34
ENDBRANCH  31  33
ENDBRANCH  19  31
ENDBRANCH   1  19
TORSDOF 12
