REMARK  Name = ZINC02367900
REMARK  9 active torsions:
REMARK  status: ('A' for Active; 'I' for Inactive)
REMARK    1  A    between atoms: C_1  and  C_2
REMARK    2  A    between atoms: C_2  and  C_3
REMARK    3  A    between atoms: C_3  and  S_4
REMARK    4  A    between atoms: S_4  and  C_5
REMARK    5  A    between atoms: C_16  and  C_18
REMARK    6  A    between atoms: C_16  and  C_19
REMARK    7  A    between atoms: C_19  and  C_20
REMARK    8  A    between atoms: C_26  and  C_27
REMARK    9  A    between atoms: C_26  and  N_60
REMARK                            x       y       z     vdW  Elec       q    Type
REMARK                         _______ _______ _______ _____ _____    ______ ____
ROOT
ATOM      1  C   UNL     1       2.318   0.019  -0.107  0.00  0.00    +0.191 A 
ATOM      2  N   UNL     1       1.161  -0.632  -0.097  0.00  0.00    -0.206 NA
ATOM      3  C   UNL     1       0.002  -0.004   0.002  0.00  0.00    +0.134 A 
ATOM      4  C   UNL     1      -0.015   1.416   0.102  0.00  0.00    +0.051 A 
ATOM      5  C   UNL     1      -1.162   2.313   0.225  0.00  0.00    -0.020 A 
ATOM      6  C   UNL     1      -0.903   3.636   0.300  0.00  0.00    +0.021 A 
ATOM      7  S   UNL     1       0.861   3.766   0.223  0.00  0.00    -0.071 S 
ATOM      8  C   UNL     1       1.250   2.040   0.084  0.00  0.00    +0.115 A 
ATOM      9  N   UNL     1       2.364   1.342  -0.018  0.00  0.00    -0.215 NA
ATOM     10  C   UNL     1      -1.916   4.731   0.427  0.00  0.00    +0.203 C 
ATOM     11  O   UNL     1      -3.173   4.130   0.785  0.00  0.00    -0.368 OA
ATOM     12  C   UNL     1      -3.520   3.016  -0.042  0.00  0.00    +0.071 C 
ATOM     13  C   UNL     1      -2.608   1.825   0.267  0.00  0.00    +0.071 C 
ATOM     14  C   UNL     1      -3.360   3.409  -1.512  0.00  0.00    +0.042 C 
ATOM     15  N   UNL     1      -1.182  -0.719   0.009  0.00  0.00    -0.318 N 
ATOM     16  C   UNL     1      -1.254  -1.606   1.179  0.00  0.00    +0.088 C 
ATOM     17  C   UNL     1      -2.609  -2.318   1.193  0.00  0.00    -0.060 C 
ATOM     18  C   UNL     1      -2.699  -2.193  -1.223  0.00  0.00    -0.060 C 
ATOM     19  C   UNL     1      -1.345  -1.481  -1.237  0.00  0.00    +0.088 C 
ATOM     20  N   UNL     1      -2.750  -3.098  -0.055  0.00  0.00    +0.382 N 
ATOM     21  H   UNL     1      -1.976  -3.769  -0.119  0.00  0.00    -0.082 HD
ENDROOT
BRANCH  12  22
ATOM     22  C   UNL     1      -4.975   2.623   0.222  0.00  0.00    +0.032 C 
ATOM     23  C   UNL     1      -5.898   3.767  -0.204  0.00  0.00    +0.007 C 
ENDBRANCH  12  22
BRANCH  20  24
ATOM     24  C   UNL     1      -4.029  -3.839  -0.045  0.00  0.00    -0.082 C 
ATOM     25  C   UNL     1      -4.183  -4.557   1.297  0.00  0.00    -0.017 C 
ENDBRANCH  20  24
BRANCH   1  26
ATOM     26  S   UNL     1       3.821  -0.891  -0.242  0.00  0.00    -0.086 S 
BRANCH  26  27
ATOM     27  C   UNL     1       5.016   0.469  -0.205  0.00  0.00    +0.077 C 
BRANCH  27  29
ATOM     28  C   UNL     1       7.444   1.054  -0.281  0.00  0.00    +0.004 C 
ATOM     29  C   UNL     1       6.434  -0.096  -0.312  0.00  0.00    +0.008 C 
ENDBRANCH  27  29
ENDBRANCH  26  27
ENDBRANCH   1  26
TORSDOF 5
