REMARK  Name = ZINC36545253
REMARK  11 active torsions:
REMARK  status: ('A' for Active; 'I' for Inactive)
REMARK    1  A    between atoms: C_1  and  C_2
REMARK    2  A    between atoms: C_2  and  C_3
REMARK    3  A    between atoms: C_3  and  C_4
REMARK    4  A    between atoms: C_4  and  N_5
REMARK    5  A    between atoms: C_6  and  C_8
REMARK    6  A    between atoms: C_8  and  C_10
REMARK    7  A    between atoms: C_8  and  N_18
REMARK    8  A    between atoms: N_18  and  C_19
REMARK    9  A    between atoms: C_26  and  C_28
REMARK   10  A    between atoms: C_29  and  O_35
REMARK   11  A    between atoms: C_33  and  O_34
REMARK                            x       y       z     vdW  Elec       q    Type
REMARK                         _______ _______ _______ _____ _____    ______ ____
ROOT
ATOM      1  N   UNL     1      -4.393  -5.999  -0.101  0.00  0.00    -0.250 N 
ATOM      2  C   UNL     1      -5.503  -6.724  -0.342  0.00  0.00    +0.259 C 
ATOM      3  O   UNL     1      -6.571  -6.165  -0.507  0.00  0.00    -0.269 OA
ENDROOT
BRANCH   1   4
ATOM      4  C   UNL     1      -3.150  -6.634  -0.004  0.00  0.00    +0.056 A 
ATOM      5  C   UNL     1      -2.875  -7.466   1.073  0.00  0.00    +0.025 A 
ATOM      6  C   UNL     1      -1.647  -8.092   1.165  0.00  0.00    +0.002 A 
ATOM      7  C   UNL     1      -0.692  -7.891   0.186  0.00  0.00    +0.002 A 
ATOM      8  C   UNL     1      -0.961  -7.063  -0.889  0.00  0.00    +0.022 A 
ATOM      9  C   UNL     1      -2.190  -6.438  -0.990  0.00  0.00    +0.062 A 
ATOM     10 CL   UNL     1      -2.531  -5.404  -2.342  0.00  0.00    -0.082 Cl
ENDBRANCH   1   4
BRANCH   2  11
ATOM     11  C   UNL     1      -5.424  -8.193  -0.405  0.00  0.00    +0.120 A 
ATOM     12  C   UNL     1      -5.757  -8.967   0.717  0.00  0.00    +0.133 A 
ATOM     13  C   UNL     1      -5.679 -10.348   0.647  0.00  0.00    +0.046 A 
ATOM     14  C   UNL     1      -5.274 -10.964  -0.523  0.00  0.00    +0.007 A 
ATOM     15  C   UNL     1      -4.944 -10.211  -1.635  0.00  0.00    +0.046 A 
ATOM     16  C   UNL     1      -5.021  -8.828  -1.588  0.00  0.00    +0.133 A 
BRANCH  16  17
ATOM     17  O   UNL     1      -4.703  -8.091  -2.682  0.00  0.00    -0.506 OA
ATOM     18  H   UNL     1      -3.757  -7.912  -2.773  0.00  0.00    +0.292 HD
ENDBRANCH  16  17
BRANCH  12  19
ATOM     19  O   UNL     1      -6.153  -8.365   1.867  0.00  0.00    -0.506 OA
ATOM     20  H   UNL     1      -7.107  -8.224   1.928  0.00  0.00    +0.292 HD
ENDBRANCH  12  19
ENDBRANCH   2  11
BRANCH   1  21
ATOM     21  C   UNL     1      -4.488  -4.546   0.061  0.00  0.00    +0.200 C 
BRANCH  21  22
ATOM     22  C   UNL     1      -5.680  -4.213   0.920  0.00  0.00    +0.019 A 
ATOM     23  C   UNL     1      -5.873  -4.872   2.121  0.00  0.00    +0.048 A 
ATOM     24  C   UNL     1      -6.968  -4.565   2.910  0.00  0.00    +0.020 A 
ATOM     25  C   UNL     1      -7.868  -3.601   2.498  0.00  0.00    +0.003 A 
ATOM     26  C   UNL     1      -7.676  -2.942   1.298  0.00  0.00    +0.020 A 
ATOM     27  C   UNL     1      -6.578  -3.243   0.512  0.00  0.00    +0.048 A 
ATOM     28 CL   UNL     1      -6.332  -2.410  -0.991  0.00  0.00    -0.083 Cl
ATOM     29 CL   UNL     1      -4.743  -6.084   2.638  0.00  0.00    -0.083 Cl
ENDBRANCH  21  22
BRANCH  21  31
ATOM     30  N   UNL     1      -2.897  -2.731   0.603  0.00  0.00    -0.313 N 
ATOM     31  C   UNL     1      -3.234  -4.031   0.719  0.00  0.00    +0.239 C 
ATOM     32  O   UNL     1      -2.528  -4.786   1.354  0.00  0.00    -0.273 OA
ATOM     33  H   UNL     1      -3.461  -2.127   0.096  0.00  0.00    +0.149 HD
BRANCH  30  34
ATOM     34  C   UNL     1      -1.678  -2.231   1.243  0.00  0.00    +0.104 C 
BRANCH  34  35
ATOM     35  C   UNL     1      -1.530  -0.735   0.959  0.00  0.00    +0.018 C 
BRANCH  35  37
ATOM     36  C   UNL     1      -0.109   1.284   1.343  0.00  0.00    +0.004 C 
ATOM     37  C   UNL     1      -0.257  -0.212   1.627  0.00  0.00    -0.002 C 
ENDBRANCH  35  37
ENDBRANCH  34  35
ENDBRANCH  30  34
ENDBRANCH  21  31
ENDBRANCH   1  21
TORSDOF 10
