REMARK  Name = ZINC17072733
REMARK  6 active torsions:
REMARK  status: ('A' for Active; 'I' for Inactive)
REMARK    1  A    between atoms: C_1  and  C_2
REMARK    2  A    between atoms: C_2  and  S_3
REMARK    3  A    between atoms: S_3  and  C_4
REMARK    4  A    between atoms: C_9  and  C_21
REMARK    5  A    between atoms: C_12  and  C_14
REMARK    6  A    between atoms: C_19  and  O_20
REMARK                            x       y       z     vdW  Elec       q    Type
REMARK                         _______ _______ _______ _____ _____    ______ ____
ROOT
ATOM      1  C   UNL     1      -1.758   3.879   2.666  0.00  0.00    +0.210 A 
ATOM      2  N   UNL     1      -2.284   2.976   3.507  0.00  0.00    -0.187 NA
ATOM      3  C   UNL     1      -2.762   3.585   4.558  0.00  0.00    +0.220 A 
ATOM      4  N   UNL     1      -2.543   4.915   4.410  0.00  0.00    -0.220 N 
ATOM      5  N   UNL     1      -1.893   5.079   3.187  0.00  0.00    -0.141 NA
ATOM      6  C   UNL     1      -2.936   5.916   5.398  0.00  0.00    +0.165 C 
ATOM      7  C   UNL     1      -3.858   5.294   6.412  0.00  0.00    +0.028 C 
ATOM      8  C   UNL     1      -4.048   3.986   6.517  0.00  0.00    +0.043 C 
ATOM      9  N   UNL     1      -3.402   3.072   5.676  0.00  0.00    -0.283 N 
ATOM     10  H   UNL     1      -3.402   2.120   5.866  0.00  0.00    +0.155 HD
ENDROOT
BRANCH   8  11
ATOM     11  C   UNL     1      -4.972   3.477   7.556  0.00  0.00    +0.037 A 
ATOM     12  C   UNL     1      -6.293   3.920   7.597  0.00  0.00    +0.013 A 
ATOM     13  C   UNL     1      -7.150   3.442   8.567  0.00  0.00    +0.001 A 
ATOM     14  C   UNL     1      -6.702   2.523   9.501  0.00  0.00    +0.004 A 
ATOM     15  C   UNL     1      -5.395   2.076   9.470  0.00  0.00    +0.046 A 
ATOM     16  C   UNL     1      -4.525   2.544   8.498  0.00  0.00    +0.126 A 
BRANCH  16  17
ATOM     17  O   UNL     1      -3.241   2.103   8.464  0.00  0.00    -0.506 OA
ATOM     18  H   UNL     1      -2.628   2.633   8.991  0.00  0.00    +0.292 HD
ENDBRANCH  16  17
ENDBRANCH   8  11
BRANCH   6  19
ATOM     19  C   UNL     1      -1.708   6.443   6.094  0.00  0.00    -0.019 A 
ATOM     20  C   UNL     1      -0.892   5.582   6.804  0.00  0.00    +0.006 A 
ATOM     21  C   UNL     1       0.237   6.064   7.439  0.00  0.00    +0.000 A 
ATOM     22  C   UNL     1       0.546   7.410   7.371  0.00  0.00    +0.000 A 
ATOM     23  C   UNL     1      -0.273   8.272   6.666  0.00  0.00    +0.000 A 
ATOM     24  C   UNL     1      -1.399   7.789   6.028  0.00  0.00    +0.006 A 
ENDBRANCH   6  19
BRANCH   1  25
ATOM     25  S   UNL     1      -1.000   3.515   1.118  0.00  0.00    -0.085 S 
BRANCH  25  27
ATOM     26  C   UNL     1      -0.491   1.254  -0.335  0.00  0.00    +0.016 C 
ATOM     27  C   UNL     1      -1.120   1.710   0.983  0.00  0.00    +0.074 C 
ENDBRANCH  25  27
ENDBRANCH   1  25
TORSDOF 5
