REMARK  Name = ZINC07271336
REMARK  8 active torsions:
REMARK  status: ('A' for Active; 'I' for Inactive)
REMARK    1  A    between atoms: C_1  and  C_2
REMARK    2  A    between atoms: C_2  and  C_4
REMARK    3  A    between atoms: C_2  and  S_14
REMARK    4  A    between atoms: N_6  and  C_7
REMARK    5  A    between atoms: S_14  and  C_15
REMARK    6  A    between atoms: C_18  and  C_21
REMARK    7  A    between atoms: N_19  and  C_20
REMARK    8  A    between atoms: C_21  and  C_22
REMARK                            x       y       z     vdW  Elec       q    Type
REMARK                         _______ _______ _______ _____ _____    ______ ____
ROOT
ATOM      1  S   UNL     1      -0.643   6.891  -4.712  0.00  0.00    -0.074 S 
ENDROOT
BRANCH   1   2
ATOM      2  C   UNL     1      -1.127   7.096  -6.394  0.00  0.00    +0.192 A 
ATOM      3  N   UNL     1      -1.468   6.143  -7.230  0.00  0.00    -0.122 NA
ATOM      4  N   UNL     1      -1.765   6.650  -8.373  0.00  0.00    -0.134 NA
ATOM      5  C   UNL     1      -1.624   7.945  -8.337  0.00  0.00    +0.134 A 
ATOM      6  N   UNL     1      -1.213   8.276  -7.076  0.00  0.00    -0.309 N 
ATOM      7  C   UNL     1      -0.924   9.617  -6.562  0.00  0.00    +0.152 C 
BRANCH   5   8
ATOM      8  C   UNL     1      -1.870   8.902  -9.476  0.00  0.00    +0.081 C 
BRANCH   8   9
ATOM      9  C   UNL     1      -0.577   9.087 -10.274  0.00  0.00    +0.019 C 
ATOM     10  C   UNL     1      -0.850   9.962 -11.508  0.00  0.00    +0.028 C 
ATOM     11  C   UNL     1       0.488  10.418 -12.138  0.00  0.00    +0.166 C 
ATOM     12  S   UNL     1       1.628  10.438 -10.694  0.00  0.00    -0.031 S 
ATOM     13  O   UNL     1       2.658   9.482 -10.906  0.00  0.00    -0.174 OA
ATOM     14  O   UNL     1       1.973  11.783 -10.396  0.00  0.00    -0.174 OA
ATOM     15  C   UNL     1       0.484   9.808  -9.394  0.00  0.00    +0.170 C 
ENDBRANCH   8   9
ENDBRANCH   5   8
ENDBRANCH   1   2
BRANCH   1  17
ATOM     16  C   UNL     1       0.250   4.425  -5.477  0.00  0.00    +0.029 C 
ATOM     17  C   UNL     1      -0.779   5.092  -4.563  0.00  0.00    +0.137 C 
BRANCH  17  18
ATOM     18  C   UNL     1      -0.521   4.686  -3.135  0.00  0.00    +0.226 C 
ATOM     19  O   UNL     1       0.072   5.436  -2.389  0.00  0.00    -0.275 OA
ATOM     20  N   UNL     1      -0.949   3.489  -2.687  0.00  0.00    -0.312 N 
ATOM     21  H   UNL     1      -1.423   2.889  -3.284  0.00  0.00    +0.149 HD
BRANCH  20  22
ATOM     22  C   UNL     1      -0.699   3.093  -1.299  0.00  0.00    +0.073 C 
ATOM     23  C   UNL     1      -0.690   1.555  -1.192  0.00  0.00    +0.022 C 
ATOM     24  C   UNL     1      -0.013   1.086   0.008  0.00  0.00    +0.002 C 
ATOM     25  C   UNL     1      -0.706   1.569   1.298  0.00  0.00    +0.000 C 
ATOM     26  C   UNL     1      -0.286   2.990   1.562  0.00  0.00    +0.000 C 
ATOM     27  C   UNL     1      -1.284   4.014   0.986  0.00  0.00    +0.002 C 
ATOM     28  C   UNL     1      -1.793   3.628  -0.416  0.00  0.00    +0.022 C 
ENDBRANCH  20  22
ENDBRANCH  17  18
ENDBRANCH   1  17
TORSDOF 6
