REMARK  Name = ZINC14536083
REMARK  11 active torsions:
REMARK  status: ('A' for Active; 'I' for Inactive)
REMARK    1  A    between atoms: C_1  and  N_2
REMARK    2  A    between atoms: N_2  and  C_3
REMARK    3  A    between atoms: N_2  and  C_4
REMARK    4  A    between atoms: C_7  and  C_10
REMARK    5  A    between atoms: C_11  and  C_12
REMARK    6  A    between atoms: C_12  and  N_71
REMARK    7  A    between atoms: N_20  and  C_32
REMARK    8  A    between atoms: N_23  and  C_24
REMARK    9  A    between atoms: C_24  and  C_25
REMARK   10  A    between atoms: C_25  and  C_26
REMARK   11  A    between atoms: C_32  and  C_33
REMARK                            x       y       z     vdW  Elec       q    Type
REMARK                         _______ _______ _______ _____ _____    ______ ____
ROOT
ATOM      1  C   UNL     1       1.103  -6.225  -0.635  0.00  0.00    -0.076 C 
ATOM      2  C   UNL     1       0.833  -4.797  -1.118  0.00  0.00    +0.017 C 
ATOM      3  C   UNL     1      -0.552  -4.360  -0.651  0.00  0.00    +0.112 C 
ATOM      4  C   UNL     1      -1.614  -5.340  -1.141  0.00  0.00    +0.017 C 
ATOM      5  C   UNL     1      -1.264  -6.750  -0.657  0.00  0.00    -0.076 C 
ATOM      6  C   UNL     1      -0.863  -2.963  -1.137  0.00  0.00    +0.247 C 
ATOM      7  O   UNL     1      -0.941  -2.587  -2.287  0.00  0.00    -0.273 OA
ATOM      8  N   UNL     1      -1.032  -2.224  -0.022  0.00  0.00    -0.215 N 
ATOM      9  C   UNL     1      -0.879  -2.960   1.086  0.00  0.00    +0.312 C 
ATOM     10  O   UNL     1      -0.989  -2.517   2.212  0.00  0.00    -0.252 OA
ATOM     11  N   UNL     1      -0.591  -4.247   0.812  0.00  0.00    -0.271 N 
ATOM     12  N   UNL     1       0.066  -7.121  -1.188  0.00  0.00    +0.382 N 
ATOM     13  H   UNL     1       0.054  -7.026  -2.211  0.00  0.00    -0.081 HD
ENDROOT
BRANCH  12  14
ATOM     14  C   UNL     1       0.373  -8.524  -0.841  0.00  0.00    -0.051 C 
BRANCH  14  16
ATOM     15  C   UNL     1      -0.086 -10.382  -2.378  0.00  0.00    +0.002 C 
ATOM     16  C   UNL     1      -0.569  -9.428  -1.594  0.00  0.00    -0.045 C 
BRANCH  15  20
ATOM     17  C   UNL     1      -2.741 -12.932  -4.500  0.00  0.00    +0.029 A 
ATOM     18  C   UNL     1      -1.367 -13.099  -4.629  0.00  0.00    +0.023 A 
ATOM     19  C   UNL     1      -0.503 -12.274  -3.942  0.00  0.00    +0.010 A 
ATOM     20  C   UNL     1      -1.010 -11.269  -3.116  0.00  0.00    -0.025 A 
ATOM     21  C   UNL     1      -2.390 -11.106  -2.984  0.00  0.00    +0.010 A 
ATOM     22  C   UNL     1      -3.249 -11.932  -3.678  0.00  0.00    +0.023 A 
BRANCH  17  24
ATOM     23  C   UNL     1      -3.085 -14.893  -5.974  0.00  0.00    +0.129 C 
ATOM     24  N   UNL     1      -3.614 -13.769  -5.197  0.00  0.00    -0.336 N 
ATOM     25  C   UNL     1      -5.057 -13.525  -5.150  0.00  0.00    +0.129 C 
ENDBRANCH  17  24
ENDBRANCH  15  20
ENDBRANCH  14  16
ENDBRANCH  12  14
BRANCH  11  26
ATOM     26  C   UNL     1      -0.363  -5.321   1.782  0.00  0.00    +0.115 C 
BRANCH  26  27
ATOM     27  C   UNL     1       0.922  -5.038   2.562  0.00  0.00    +0.054 C 
BRANCH  27  28
ATOM     28  C   UNL     1       1.222  -6.201   3.473  0.00  0.00    -0.046 A 
ATOM     29  C   UNL     1       0.723  -6.216   4.762  0.00  0.00    +0.004 A 
ATOM     30  C   UNL     1       0.994  -7.285   5.596  0.00  0.00    +0.000 A 
ATOM     31  C   UNL     1       1.773  -8.333   5.144  0.00  0.00    +0.000 A 
ATOM     32  C   UNL     1       2.277  -8.316   3.857  0.00  0.00    +0.000 A 
ATOM     33  C   UNL     1       2.002  -7.250   3.022  0.00  0.00    +0.004 A 
ENDBRANCH  27  28
ENDBRANCH  26  27
ENDBRANCH  11  26
BRANCH   8  34
ATOM     34  C   UNL     1      -1.350  -0.794  -0.023  0.00  0.00    +0.213 C 
BRANCH  34  35
ATOM     35  C   UNL     1      -0.072   0.005  -0.010  0.00  0.00    +0.228 C 
ATOM     36  O   UNL     1       0.999  -0.564  -0.001  0.00  0.00    -0.274 OA
ATOM     37  N   UNL     1      -0.119   1.352  -0.009  0.00  0.00    -0.328 N 
ATOM     38  H   UNL     1       0.703   1.866  -0.001  0.00  0.00    +0.145 HD
ATOM     39  H   UNL     1      -0.976   1.807  -0.020  0.00  0.00    +0.145 HD
ENDBRANCH  34  35
ENDBRANCH   8  34
TORSDOF 9
