REMARK  Name = ZINC41190541
REMARK  5 active torsions:
REMARK  status: ('A' for Active; 'I' for Inactive)
REMARK    1  A    between atoms: C_1  and  C_2
REMARK    2  A    between atoms: C_2  and  C_3
REMARK    3  A    between atoms: C_2  and  C_4
REMARK    4  A    between atoms: C_7  and  C_10
REMARK    5  A    between atoms: C_12  and  C_17
REMARK                            x       y       z     vdW  Elec       q    Type
REMARK                         _______ _______ _______ _____ _____    ______ ____
ROOT
ATOM      1  C   UNL     1       2.789  -1.723  -4.763  0.00  0.00    +0.079 A 
ATOM      2  C   UNL     1       3.973  -2.462  -4.669  0.00  0.00    +0.061 A 
ATOM      3  C   UNL     1       4.428  -3.126  -5.805  0.00  0.00    +0.133 A 
ATOM      4  N   UNL     1       3.725  -3.035  -6.932  0.00  0.00    -0.187 NA
ATOM      5  C   UNL     1       2.611  -2.326  -6.982  0.00  0.00    +0.369 A 
ATOM      6  N   UNL     1       2.142  -1.686  -5.924  0.00  0.00    -0.191 NA
ATOM      7  O   UNL     1       1.926  -2.259  -8.149  0.00  0.00    -0.243 OA
ENDROOT
BRANCH   3   8
ATOM      8  C   UNL     1       5.679  -3.925  -5.760  0.00  0.00    +0.265 C 
ATOM      9  O   UNL     1       6.225  -4.138  -4.696  0.00  0.00    -0.268 OA
ATOM     10  N   UNL     1       6.208  -4.413  -6.899  0.00  0.00    -0.296 N 
ATOM     11  C   UNL     1       7.345  -5.343  -6.858  0.00  0.00    +0.113 C 
ATOM     12  C   UNL     1       8.466  -4.789  -7.743  0.00  0.00    +0.084 C 
ATOM     13  C   UNL     1       7.919  -4.521  -9.146  0.00  0.00    +0.173 C 
ATOM     14  C   UNL     1       6.796  -3.484  -9.078  0.00  0.00    +0.084 C 
ATOM     15  C   UNL     1       5.655  -4.030  -8.206  0.00  0.00    +0.113 C 
ATOM     16  O   UNL     1       8.973  -4.034  -9.987  0.00  0.00    -0.346 OA
ATOM     17  C   UNL     1       9.106  -4.959 -11.085  0.00  0.00    +0.191 C 
ATOM     18  C   UNL     1       7.731  -5.671 -11.112  0.00  0.00    +0.191 C 
ATOM     19  O   UNL     1       7.409  -5.743  -9.702  0.00  0.00    -0.346 OA
ENDBRANCH   3   8
BRANCH   1  23
ATOM     20  C   UNL     1       1.270   0.359  -1.381  0.00  0.00    -0.045 A 
ATOM     21  C   UNL     1       0.591   0.411  -2.585  0.00  0.00    +0.004 A 
ATOM     22  C   UNL     1       1.079  -0.262  -3.686  0.00  0.00    +0.010 A 
ATOM     23  C   UNL     1       2.259  -0.997  -3.583  0.00  0.00    +0.001 A 
ATOM     24  C   UNL     1       2.940  -1.046  -2.368  0.00  0.00    +0.010 A 
ATOM     25  C   UNL     1       2.445  -0.363  -1.275  0.00  0.00    +0.004 A 
BRANCH  20  27
ATOM     26  C   UNL     1       0.644   2.591  -0.500  0.00  0.00    +0.012 C 
ATOM     27  C   UNL     1       0.732   1.097  -0.182  0.00  0.00    +0.013 C 
ATOM     28  C   UNL     1      -0.661   0.566   0.160  0.00  0.00    +0.012 C 
ENDBRANCH  20  27
ENDBRANCH   1  23
TORSDOF 3
