REMARK  Name = ZINC36024815
REMARK  7 active torsions:
REMARK  status: ('A' for Active; 'I' for Inactive)
REMARK    1  A    between atoms: C_1  and  C_2
REMARK    2  A    between atoms: C_2  and  C_3
REMARK    3  A    between atoms: C_2  and  N_4
REMARK    4  A    between atoms: C_7  and  C_26
REMARK    5  A    between atoms: N_13  and  S_16
REMARK    6  A    between atoms: S_16  and  C_19
REMARK    7  A    between atoms: C_26  and  C_27
REMARK                            x       y       z     vdW  Elec       q    Type
REMARK                         _______ _______ _______ _____ _____    ______ ____
ROOT
ATOM      1  N   UNL     1       0.702  -0.536   1.174  0.00  0.00    -0.311 N 
ATOM      2  C   UNL     1       1.963  -0.222   1.537  0.00  0.00    +0.201 C 
ATOM      3  O   UNL     1       2.701   0.538   0.948  0.00  0.00    -0.277 OA
ATOM      4  C   UNL     1       2.300  -0.979   2.803  0.00  0.00    +0.023 C 
ATOM      5  N   UNL     1       0.991  -1.421   3.341  0.00  0.00    +0.401 N 
ATOM      6  C   UNL     1       0.138  -1.485   2.137  0.00  0.00    +0.006 C 
ATOM      7  C   UNL     1       0.168  -2.901   1.564  0.00  0.00    +0.023 C 
ATOM      8  C   UNL     1      -0.688  -2.954   0.294  0.00  0.00    +0.109 C 
ATOM      9  N   UNL     1      -2.032  -2.450   0.610  0.00  0.00    -0.177 NA
ATOM     10  C   UNL     1      -2.162  -1.126   1.234  0.00  0.00    +0.109 C 
ATOM     11  C   UNL     1      -1.293  -1.088   2.495  0.00  0.00    +0.023 C 
ATOM     12  H   UNL     1       1.071  -2.329   3.773  0.00  0.00    -0.082 HD
ATOM     13  H   UNL     1       0.627  -0.744   3.994  0.00  0.00    -0.082 HD
ENDROOT
BRANCH   1  15
ATOM     14  C   UNL     1      -0.650   1.333   0.360  0.00  0.00    +0.027 C 
ATOM     15  C   UNL     1       0.002  -0.004   0.002  0.00  0.00    +0.068 C 
ATOM     16  C   UNL     1       1.002   0.206  -1.137  0.00  0.00    +0.027 C 
ENDBRANCH   1  15
BRANCH   9  17
ATOM     17  S   UNL     1      -3.375  -3.358   0.268  0.00  0.00    +0.061 S 
ATOM     18  O   UNL     1      -4.460  -2.448   0.149  0.00  0.00    -0.153 OA
ATOM     19  O   UNL     1      -3.008  -4.248  -0.777  0.00  0.00    -0.153 OA
BRANCH  17  20
ATOM     20  C   UNL     1      -3.705  -4.353   1.685  0.00  0.00    +0.106 A 
ATOM     21  C   UNL     1      -3.132  -5.606   1.798  0.00  0.00    +0.030 A 
ATOM     22  C   UNL     1      -3.391  -6.386   2.908  0.00  0.00    +0.022 A 
ATOM     23  C   UNL     1      -4.224  -5.914   3.907  0.00  0.00    +0.041 A 
ATOM     24  C   UNL     1      -4.797  -4.660   3.793  0.00  0.00    +0.022 A 
ATOM     25  C   UNL     1      -4.533  -3.877   2.685  0.00  0.00    +0.030 A 
ATOM     26 CL   UNL     1      -4.550  -6.894   5.302  0.00  0.00    -0.084 Cl
ENDBRANCH  17  20
ENDBRANCH   9  17
BRANCH   4  27
ATOM     27  C   UNL     1       3.006  -0.059   3.802  0.00  0.00    +0.028 C 
BRANCH  27  28
ATOM     28  C   UNL     1       3.409  -0.853   5.018  0.00  0.00    -0.048 A 
ATOM     29  C   UNL     1       2.540  -0.971   6.086  0.00  0.00    +0.003 A 
ATOM     30  C   UNL     1       2.910  -1.699   7.201  0.00  0.00    +0.000 A 
ATOM     31  C   UNL     1       4.150  -2.309   7.248  0.00  0.00    +0.000 A 
ATOM     32  C   UNL     1       5.019  -2.191   6.179  0.00  0.00    +0.000 A 
ATOM     33  C   UNL     1       4.647  -1.467   5.062  0.00  0.00    +0.003 A 
ENDBRANCH  27  28
ENDBRANCH   4  27
TORSDOF 5
