REMARK  Name = ZINC04670904
REMARK  8 active torsions:
REMARK  status: ('A' for Active; 'I' for Inactive)
REMARK    1  A    between atoms: C_1  and  C_2
REMARK    2  A    between atoms: C_2  and  C_4
REMARK    3  A    between atoms: C_2  and  N_14
REMARK    4  A    between atoms: N_14  and  C_15
REMARK    5  A    between atoms: C_15  and  C_16
REMARK    6  A    between atoms: C_21  and  O_22
REMARK    7  A    between atoms: O_22  and  C_23
REMARK    8  A    between atoms: C_23  and  C_24
REMARK                            x       y       z     vdW  Elec       q    Type
REMARK                         _______ _______ _______ _____ _____    ______ ____
ROOT
ATOM      1  N   UNL     1      -1.376  -0.512   0.012  0.00  0.00    +0.384 N 
ATOM      2  H   UNL     1      -1.363  -1.518   0.090  0.00  0.00    -0.085 HD
ATOM      3  H   UNL     1      -1.873  -0.121   0.799  0.00  0.00    -0.085 HD
ENDROOT
BRANCH   1   5
ATOM      4  C   UNL     1      -0.019   1.526   0.010  0.00  0.00    -0.013 C 
ATOM      5  C   UNL     1       0.002  -0.004   0.002  0.00  0.00    -0.068 C 
BRANCH   5   6
ATOM      6  C   UNL     1       0.742  -0.511   1.242  0.00  0.00    -0.041 C 
ATOM      7  C   UNL     1       0.763  -2.041   1.233  0.00  0.00    +0.009 C 
ATOM      8  C   UNL     1       1.503  -2.548   2.473  0.00  0.00    -0.010 C 
ATOM      9  C   UNL     1       2.938  -2.018   2.462  0.00  0.00    +0.007 C 
ATOM     10  C   UNL     1       2.917  -0.488   2.470  0.00  0.00    -0.010 C 
ATOM     11  C   UNL     1       2.178   0.019   1.231  0.00  0.00    +0.009 C 
ATOM     12  C   UNL     1       2.201   0.005   3.729  0.00  0.00    +0.007 C 
ATOM     13  C   UNL     1       0.766  -0.524   3.740  0.00  0.00    -0.010 C 
ATOM     14  C   UNL     1       0.787  -2.054   3.732  0.00  0.00    +0.007 C 
ATOM     15  C   UNL     1       0.026  -0.018   2.500  0.00  0.00    +0.009 C 
ENDBRANCH   5   6
ENDBRANCH   1   5
BRANCH   1  16
ATOM     16  C   UNL     1      -2.050  -0.126  -1.234  0.00  0.00    -0.043 C 
BRANCH  16  17
ATOM     17  C   UNL     1      -3.464  -0.648  -1.224  0.00  0.00    -0.022 A 
ATOM     18  C   UNL     1      -3.779  -1.806  -1.908  0.00  0.00    +0.020 A 
ATOM     19  C   UNL     1      -5.076  -2.285  -1.899  0.00  0.00    +0.018 A 
ATOM     20  C   UNL     1      -6.061  -1.606  -1.204  0.00  0.00    +0.019 A 
ATOM     21  C   UNL     1      -5.751  -0.448  -0.518  0.00  0.00    +0.047 A 
ATOM     22  C   UNL     1      -4.449   0.031  -0.522  0.00  0.00    +0.123 A 
ATOM     23 BR   UNL     1      -5.504  -3.870  -2.837  0.00  0.00    -0.050 Br
BRANCH  22  24
ATOM     24  O   UNL     1      -4.140   1.168   0.157  0.00  0.00    -0.483 OA
BRANCH  24  25
ATOM     25  C   UNL     1      -5.205   1.815   0.857  0.00  0.00    +0.324 C 
BRANCH  25  26
ATOM     26  C   UNL     1      -4.677   3.048   1.545  0.00  0.00    +0.248 C 
ATOM     27  O   UNL     1      -3.505   3.344   1.444  0.00  0.00    -0.272 OA
ATOM     28  N   UNL     1      -5.508   3.822   2.271  0.00  0.00    -0.327 N 
ATOM     29  H   UNL     1      -6.445   3.585   2.351  0.00  0.00    +0.145 HD
ATOM     30  H   UNL     1      -5.169   4.615   2.713  0.00  0.00    +0.145 HD
ENDBRANCH  25  26
ENDBRANCH  24  25
ENDBRANCH  22  24
ENDBRANCH  16  17
ENDBRANCH   1  16
TORSDOF 7
