REMARK  Name = ZINC58217506
REMARK  5 active torsions:
REMARK  status: ('A' for Active; 'I' for Inactive)
REMARK    1  A    between atoms: C_3  and  C_6
REMARK    2  A    between atoms: C_8  and  C_11
REMARK    3  A    between atoms: C_11  and  O_12
REMARK    4  A    between atoms: O_12  and  C_13
REMARK    5  A    between atoms: C_18  and  C_19
REMARK                            x       y       z     vdW  Elec       q    Type
REMARK                         _______ _______ _______ _____ _____    ______ ____
ROOT
ATOM      1  O   UNL     1       7.101  -1.431  -1.431  0.00  0.00    -0.482 OA
ENDROOT
BRANCH   1   2
ATOM      2  C   UNL     1       8.130  -2.293  -1.626  0.00  0.00    +0.135 A 
ATOM      3  C   UNL     1       8.786  -2.852  -0.540  0.00  0.00    +0.066 A 
ATOM      4  C   UNL     1       9.834  -3.730  -0.742  0.00  0.00    +0.044 A 
ATOM      5  C   UNL     1      10.237  -4.058  -2.028  0.00  0.00    +0.021 A 
ATOM      6  C   UNL     1       9.596  -3.511  -3.117  0.00  0.00    +0.018 A 
ATOM      7  C   UNL     1       8.531  -2.627  -2.928  0.00  0.00    +0.078 A 
ATOM      8 CL   UNL     1      10.652  -4.426   0.623  0.00  0.00    -0.083 Cl
BRANCH   7   9
ATOM      9  C   UNL     1       7.836  -2.044  -4.090  0.00  0.00    +0.245 C 
ATOM     10  O   UNL     1       6.912  -1.271  -3.921  0.00  0.00    -0.270 OA
ATOM     11  N   UNL     1       8.224  -2.367  -5.339  0.00  0.00    -0.325 N 
ATOM     12  H   UNL     1       8.960  -2.984  -5.474  0.00  0.00    +0.145 HD
ATOM     13  H   UNL     1       7.767  -1.984  -6.104  0.00  0.00    +0.145 HD
ENDBRANCH   7   9
ENDBRANCH   1   2
BRANCH   1  14
ATOM     14  C   UNL     1       6.749  -1.138  -0.077  0.00  0.00    +0.327 C 
BRANCH  14  17
ATOM     15  C   UNL     1       3.572   0.620  -0.029  0.00  0.00    +0.237 A 
ATOM     16  N   UNL     1       4.332  -0.493  -0.048  0.00  0.00    -0.186 NA
ATOM     17  C   UNL     1       5.594  -0.171  -0.057  0.00  0.00    +0.265 A 
ATOM     18  O   UNL     1       5.693   1.165  -0.044  0.00  0.00    -0.334 OA
ATOM     19  N   UNL     1       4.364   1.667  -0.032  0.00  0.00    -0.053 NA
BRANCH  15  22
ATOM     20  C   UNL     1      -0.016   1.344   0.009  0.00  0.00    +0.042 A 
ATOM     21  C   UNL     1       1.324   1.775  -0.001  0.00  0.00    +0.053 A 
ATOM     22  C   UNL     1       2.096   0.655  -0.014  0.00  0.00    +0.175 A 
ATOM     23  O   UNL     1       1.279  -0.416  -0.012  0.00  0.00    -0.460 OA
ATOM     24  C   UNL     1       0.002  -0.004   0.002  0.00  0.00    +0.196 A 
ENDBRANCH  15  22
ENDBRANCH  14  17
ENDBRANCH   1  14
TORSDOF 5
