REMARK  Name = ZINC02191884
REMARK  10 active torsions:
REMARK  status: ('A' for Active; 'I' for Inactive)
REMARK    1  A    between atoms: C_1  and  C_2
REMARK    2  A    between atoms: C_9  and  N_13
REMARK    3  A    between atoms: C_10  and  C_11
REMARK    4  A    between atoms: N_13  and  C_14
REMARK    5  A    between atoms: C_14  and  C_15
REMARK    6  A    between atoms: C_14  and  C_19
REMARK    7  A    between atoms: C_14  and  N_23
REMARK    8  A    between atoms: C_15  and  O_17
REMARK    9  A    between atoms: O_17  and  C_18
REMARK   10  A    between atoms: C_24  and  C_26
REMARK                            x       y       z     vdW  Elec       q    Type
REMARK                         _______ _______ _______ _____ _____    ______ ____
ROOT
ATOM      1  C   UNL     1       1.653   4.589   0.054  0.00  0.00    +0.296 C 
ENDROOT
BRANCH   1   2
ATOM      2  C   UNL     1       0.921   4.633   1.397  0.00  0.00    +0.438 C 
ATOM      3  F   UNL     1       1.822   4.344   2.428  0.00  0.00    -0.166 F 
ATOM      4  F   UNL     1       0.382   5.909   1.593  0.00  0.00    -0.166 F 
ATOM      5  F   UNL     1      -0.109   3.686   1.399  0.00  0.00    -0.166 F 
ENDBRANCH   1   2
BRANCH   1   6
ATOM      6  N   UNL     1       2.648   5.663   0.004  0.00  0.00    -0.274 N 
ATOM      7  C   UNL     1       3.798   5.549   0.698  0.00  0.00    +0.246 C 
ATOM      8  O   UNL     1       4.053   4.516   1.285  0.00  0.00    -0.270 OA
ATOM      9  H   UNL     1       2.479   6.456  -0.529  0.00  0.00    +0.152 HD
BRANCH   7  10
ATOM     10  C   UNL     1       4.748   6.680   0.744  0.00  0.00    +0.038 A 
ATOM     11  C   UNL     1       4.460   7.865   0.065  0.00  0.00    +0.013 A 
ATOM     12  C   UNL     1       5.349   8.919   0.116  0.00  0.00    +0.002 A 
ATOM     13  C   UNL     1       6.529   8.800   0.829  0.00  0.00    +0.020 A 
ATOM     14  C   UNL     1       6.823   7.626   1.500  0.00  0.00    +0.042 A 
ATOM     15  C   UNL     1       5.940   6.565   1.461  0.00  0.00    +0.033 A 
ATOM     16 CL   UNL     1       8.306   7.486   2.392  0.00  0.00    -0.084 Cl
ENDBRANCH   7  10
ENDBRANCH   1   6
BRANCH   1  17
ATOM     17  N   UNL     1       2.323   3.294  -0.095  0.00  0.00    -0.301 N 
ATOM     18  H   UNL     1       2.299   2.650   0.630  0.00  0.00    +0.149 HD
BRANCH  17  26
ATOM     19  C   UNL     1       6.035   2.005  -6.855  0.00  0.00    +0.008 C 
ATOM     20  C   UNL     1       5.724   2.043  -5.358  0.00  0.00    -0.009 C 
ATOM     21  C   UNL     1       5.271   0.656  -4.892  0.00  0.00    +0.008 C 
ATOM     22  C   UNL     1       5.197   0.618  -3.365  0.00  0.00    +0.037 C 
ATOM     23  C   UNL     1       4.346   1.789  -2.887  0.00  0.00    -0.018 A 
ATOM     24  C   UNL     1       4.104   2.847  -3.690  0.00  0.00    -0.004 A 
ATOM     25  S   UNL     1       3.092   3.929  -2.722  0.00  0.00    -0.077 S 
ATOM     26  C   UNL     1       2.991   2.992  -1.268  0.00  0.00    +0.086 A 
ATOM     27  C   UNL     1       3.742   1.863  -1.567  0.00  0.00    +0.083 A 
ATOM     28  C   UNL     1       4.593   3.047  -5.092  0.00  0.00    +0.046 C 
BRANCH  27  29
ATOM     29  C   UNL     1       3.916   0.812  -0.610  0.00  0.00    +0.102 C 
ATOM     30  N   UNL     1       4.054  -0.022   0.149  0.00  0.00    -0.191 NA
ENDBRANCH  27  29
ENDBRANCH  17  26
ENDBRANCH   1  17
BRANCH   1  31
ATOM     31  C   UNL     1       0.660   4.771  -1.065  0.00  0.00    +0.359 C 
ATOM     32  O   UNL     1       0.325   3.824  -1.736  0.00  0.00    -0.246 OA
BRANCH  31  33
ATOM     33  O   UNL     1       0.147   5.986  -1.316  0.00  0.00    -0.465 OA
ATOM     34  C   UNL     1      -0.804   6.088  -2.408  0.00  0.00    +0.280 C 
ENDBRANCH  31  33
ENDBRANCH   1  31
TORSDOF 8
