REMARK  Name = ZINC39442065
REMARK  6 active torsions:
REMARK  status: ('A' for Active; 'I' for Inactive)
REMARK    1  A    between atoms: C_1  and  O_2
REMARK    2  A    between atoms: O_2  and  C_3
REMARK    3  A    between atoms: C_7  and  C_9
REMARK    4  A    between atoms: N_14  and  C_15
REMARK    5  A    between atoms: C_15  and  C_16
REMARK    6  A    between atoms: C_20  and  C_22
REMARK                            x       y       z     vdW  Elec       q    Type
REMARK                         _______ _______ _______ _____ _____    ______ ____
ROOT
ATOM      1  C   UNL     1      -0.064  -5.435  -3.735  0.00  0.00    -0.042 C 
ENDROOT
BRANCH   1   6
ATOM      2  C   UNL     1       1.325  -4.106  -2.289  0.00  0.00    -0.037 C 
ATOM      3  C   UNL     1       2.725  -4.604  -1.871  0.00  0.00    -0.013 C 
ATOM      4  C   UNL     1       2.985  -5.777  -2.852  0.00  0.00    -0.020 C 
ATOM      5  C   UNL     1       2.308  -5.260  -4.146  0.00  0.00    -0.078 C 
ATOM      6  N   UNL     1       1.100  -4.541  -3.679  0.00  0.00    +0.387 N 
ATOM      7  H   UNL     1       0.936  -3.736  -4.265  0.00  0.00    -0.080 HD
BRANCH   2  12
ATOM      8  C   UNL     1       0.606  -0.607  -1.056  0.00  0.00    +0.120 A 
ATOM      9  C   UNL     1       1.173   0.161  -2.063  0.00  0.00    +0.045 A 
ATOM     10  C   UNL     1       1.786  -0.455  -3.136  0.00  0.00    +0.004 A 
ATOM     11  C   UNL     1       1.836  -1.835  -3.208  0.00  0.00    +0.002 A 
ATOM     12  C   UNL     1       1.271  -2.602  -2.207  0.00  0.00    -0.057 A 
ATOM     13  C   UNL     1       0.661  -1.991  -1.128  0.00  0.00    +0.047 A 
BRANCH   8  15
ATOM     14  C   UNL     1      -0.017   1.425   0.010  0.00  0.00    +0.277 C 
ATOM     15  O   UNL     1       0.002  -0.004   0.002  0.00  0.00    -0.495 OA
ENDBRANCH   8  15
ENDBRANCH   2  12
ENDBRANCH   1   6
BRANCH   1  16
ATOM     16  C   UNL     1      -0.365  -5.779  -5.171  0.00  0.00    -0.033 C 
ATOM     17  C   UNL     1       0.030  -6.852  -5.860  0.00  0.00    +0.134 C 
ATOM     18  N   UNL     1      -0.441  -6.809  -7.126  0.00  0.00    -0.162 NA
ATOM     19  N   UNL     1      -1.123  -5.815  -7.385  0.00  0.00    -0.172 NA
ATOM     20  C   UNL     1      -1.194  -4.989  -6.168  0.00  0.00    +0.219 C 
BRANCH  20  21
ATOM     21  C   UNL     1      -0.585  -3.633  -6.412  0.00  0.00    +0.136 A 
ATOM     22  C   UNL     1      -0.998  -2.493  -5.842  0.00  0.00    +0.055 A 
ATOM     23  C   UNL     1      -0.125  -1.434  -6.364  0.00  0.00    +0.020 A 
ATOM     24  C   UNL     1      -0.038  -0.057  -6.167  0.00  0.00    +0.011 A 
ATOM     25  C   UNL     1       0.920   0.663  -6.827  0.00  0.00    +0.001 A 
ATOM     26  C   UNL     1       1.803   0.031  -7.690  0.00  0.00    +0.004 A 
ATOM     27  C   UNL     1       1.732  -1.330  -7.897  0.00  0.00    +0.047 A 
ATOM     28  C   UNL     1       0.767  -2.080  -7.237  0.00  0.00    +0.135 A 
ATOM     29  O   UNL     1       0.456  -3.392  -7.228  0.00  0.00    -0.457 OA
ENDBRANCH  20  21
ENDBRANCH   1  16
TORSDOF 5
