REMARK  Name = ZINC63165605
REMARK  16 active torsions:
REMARK  status: ('A' for Active; 'I' for Inactive)
REMARK    1  A    between atoms: C_1  and  C_2
REMARK    2  A    between atoms: C_2  and  C_3
REMARK    3  A    between atoms: C_2  and  C_4
REMARK    4  A    between atoms: C_4  and  C_6
REMARK    5  A    between atoms: C_4  and  N_10
REMARK    6  A    between atoms: C_6  and  O_8
REMARK    7  A    between atoms: O_8  and  C_9
REMARK    8  A    between atoms: C_11  and  C_13
REMARK    9  A    between atoms: C_13  and  C_15
REMARK   10  A    between atoms: C_13  and  N_25
REMARK   11  A    between atoms: C_15  and  C_16
REMARK   12  A    between atoms: C_26  and  O_28
REMARK   13  A    between atoms: O_28  and  C_29
REMARK   14  A    between atoms: C_29  and  C_30
REMARK   15  A    between atoms: C_29  and  C_31
REMARK   16  A    between atoms: C_29  and  C_32
REMARK                            x       y       z     vdW  Elec       q    Type
REMARK                         _______ _______ _______ _____ _____    ______ ____
ROOT
ATOM      1  C   UNL     1      -1.271  -4.184   1.155  0.00  0.00    +0.166 C 
ENDROOT
BRANCH   1   3
ATOM      2  N   UNL     1      -1.413  -1.998   0.005  0.00  0.00    -0.301 N 
ATOM      3  C   UNL     1      -1.292  -2.677   1.163  0.00  0.00    +0.234 C 
ATOM      4  O   UNL     1      -1.198  -2.075   2.212  0.00  0.00    -0.274 OA
ATOM      5  H   UNL     1      -1.488  -2.480  -0.834  0.00  0.00    +0.150 HD
BRANCH   2   6
ATOM      6  C   UNL     1      -1.433  -0.534   0.013  0.00  0.00    +0.184 C 
BRANCH   6   8
ATOM      7  C   UNL     1      -0.019   1.526   0.010  0.00  0.00    +0.009 C 
ATOM      8  C   UNL     1       0.002  -0.004   0.002  0.00  0.00    +0.014 C 
ATOM      9  C   UNL     1       0.742  -0.511   1.242  0.00  0.00    +0.009 C 
ENDBRANCH   6   8
BRANCH   6  10
ATOM     10  C   UNL     1      -2.162  -0.034  -1.208  0.00  0.00    +0.328 C 
ATOM     11  O   UNL     1      -2.618  -0.822  -2.003  0.00  0.00    -0.249 OA
BRANCH  10  12
ATOM     12  O   UNL     1      -2.305   1.285  -1.412  0.00  0.00    -0.467 OA
ATOM     13  C   UNL     1      -3.007   1.687  -2.590  0.00  0.00    +0.280 C 
ENDBRANCH  10  12
ENDBRANCH   6  10
ENDBRANCH   2   6
ENDBRANCH   1   3
BRANCH   1  14
ATOM     14  N   UNL     1      -0.669  -4.671   2.398  0.00  0.00    -0.270 N 
ATOM     15  C   UNL     1      -1.227  -4.359   3.584  0.00  0.00    +0.401 C 
ATOM     16  O   UNL     1      -2.230  -3.675   3.623  0.00  0.00    -0.226 OA
ATOM     17  H   UNL     1       0.132  -5.218   2.368  0.00  0.00    +0.153 HD
BRANCH  15  18
ATOM     18  O   UNL     1      -0.674  -4.807   4.727  0.00  0.00    -0.445 OA
BRANCH  18  19
ATOM     19  C   UNL     1      -1.319  -4.439   5.948  0.00  0.00    +0.107 C 
ATOM     20  C   UNL     1      -2.752  -4.973   5.949  0.00  0.00    +0.055 C 
ATOM     21  C   UNL     1      -0.552  -5.035   7.130  0.00  0.00    +0.055 C 
ATOM     22  C   UNL     1      -1.342  -2.914   6.072  0.00  0.00    +0.055 C 
ENDBRANCH  18  19
ENDBRANCH  15  18
ENDBRANCH   1  14
BRANCH   1  23
ATOM     23  C   UNL     1      -2.702  -4.713   1.040  0.00  0.00    +0.065 C 
BRANCH  23  24
ATOM     24  C   UNL     1      -2.674  -6.214   0.908  0.00  0.00    -0.039 C 
ATOM     25  C   UNL     1      -2.809  -7.120   1.903  0.00  0.00    -0.001 A 
ATOM     26  C   UNL     1      -3.014  -6.985   3.350  0.00  0.00    +0.010 A 
ATOM     27  C   UNL     1      -3.113  -8.102   4.105  0.00  0.00    +0.001 A 
ATOM     28  C   UNL     1      -3.026  -9.383   3.542  0.00  0.00    +0.002 A 
ATOM     29  C   UNL     1      -2.838  -9.588   2.221  0.00  0.00    +0.026 A 
ATOM     30  C   UNL     1      -2.720  -8.483   1.333  0.00  0.00    +0.043 A 
ATOM     31  N   UNL     1      -2.537  -8.422   0.036  0.00  0.00    -0.380 N 
ATOM     32  C   UNL     1      -2.495  -7.012  -0.365  0.00  0.00    +0.144 C 
ATOM     33  H   UNL     1      -2.449  -9.183  -0.560  0.00  0.00    +0.160 HD
ENDBRANCH  23  24
ENDBRANCH   1  23
TORSDOF 10
