REMARK  Name = ZINC14533723
REMARK  12 active torsions:
REMARK  status: ('A' for Active; 'I' for Inactive)
REMARK    1  A    between atoms: C_1  and  C_2
REMARK    2  A    between atoms: C_2  and  C_3
REMARK    3  A    between atoms: C_2  and  C_4
REMARK    4  A    between atoms: C_2  and  O_36
REMARK    5  A    between atoms: C_5  and  C_6
REMARK    6  A    between atoms: C_9  and  C_12
REMARK    7  A    between atoms: C_12  and  N_74
REMARK    8  A    between atoms: C_14  and  O_28
REMARK    9  A    between atoms: N_17  and  C_21
REMARK   10  A    between atoms: C_21  and  C_22
REMARK   11  A    between atoms: O_28  and  C_29
REMARK   12  A    between atoms: C_29  and  C_30
REMARK                            x       y       z     vdW  Elec       q    Type
REMARK                         _______ _______ _______ _____ _____    ______ ____
ROOT
ATOM      1  C   UNL     1       1.874   5.889   2.743  0.00  0.00    -0.044 C 
ATOM      2  C   UNL     1       1.138   5.486   1.480  0.00  0.00    +0.120 C 
ATOM      3  C   UNL     1      -0.314   5.969   1.520  0.00  0.00    +0.137 C 
ATOM      4  N   UNL     1      -0.356   7.355   1.024  0.00  0.00    -0.300 N 
ATOM      5  C   UNL     1       0.168   8.341   1.759  0.00  0.00    +0.199 C 
ATOM      6  O   UNL     1       0.143   9.481   1.347  0.00  0.00    -0.278 OA
ATOM      7  C   UNL     1       0.794   8.039   3.104  0.00  0.00    +0.019 C 
ATOM      8  N   UNL     1       2.083   7.347   2.858  0.00  0.00    +0.390 N 
ATOM      9  H   UNL     1       2.480   7.694   1.977  0.00  0.00    -0.081 HD
ENDROOT
BRANCH   8  10
ATOM     10  C   UNL     1       3.026   7.632   3.950  0.00  0.00    -0.042 C 
BRANCH  10  14
ATOM     11  C   UNL     1       4.125  11.759   3.744  0.00  0.00    +0.025 A 
ATOM     12  C   UNL     1       3.036  11.362   4.521  0.00  0.00    +0.017 A 
ATOM     13  C   UNL     1       2.687  10.029   4.583  0.00  0.00    +0.003 A 
ATOM     14  C   UNL     1       3.413   9.087   3.877  0.00  0.00    -0.064 A 
ATOM     15  C   UNL     1       4.497   9.473   3.109  0.00  0.00    +0.003 A 
ATOM     16  C   UNL     1       4.854  10.804   3.035  0.00  0.00    +0.017 A 
BRANCH  11  18
ATOM     17  C   UNL     1       4.796  14.275   3.620  0.00  0.00    -0.063 C 
ATOM     18  C   UNL     1       4.494  13.142   3.676  0.00  0.00    -0.063 C 
BRANCH  17  20
ATOM     19  C   UNL     1       6.392  15.854   2.636  0.00  0.00    +0.055 C 
ATOM     20  C   UNL     1       5.175  15.695   3.550  0.00  0.00    +0.121 C 
ATOM     21  C   UNL     1       4.006  16.508   2.987  0.00  0.00    +0.055 C 
BRANCH  20  22
ATOM     22  O   UNL     1       5.497  16.168   4.859  0.00  0.00    -0.377 OA
ATOM     23  H   UNL     1       6.230  15.697   5.278  0.00  0.00    +0.211 HD
ENDBRANCH  20  22
ENDBRANCH  17  20
ENDBRANCH  11  18
ENDBRANCH  10  14
ENDBRANCH   8  10
BRANCH   4  24
ATOM     24  C   UNL     1      -0.972   7.653  -0.271  0.00  0.00    +0.111 C 
BRANCH  24  25
ATOM     25  C   UNL     1      -2.459   7.950  -0.072  0.00  0.00    +0.011 C 
ATOM     26  C   UNL     1      -3.172   6.689   0.423  0.00  0.00    +0.033 C 
ATOM     27  C   UNL     1      -4.672   6.973   0.544  0.00  0.00    +0.160 C 
ATOM     28  O   UNL     1      -5.178   7.401  -0.723  0.00  0.00    -0.380 OA
ATOM     29  C   UNL     1      -4.581   8.602  -1.214  0.00  0.00    +0.160 C 
ATOM     30  C   UNL     1      -3.078   8.383  -1.405  0.00  0.00    +0.033 C 
ENDBRANCH  24  25
ENDBRANCH   4  24
BRANCH   2  31
ATOM     31  O   UNL     1       1.157   4.062   1.360  0.00  0.00    -0.372 OA
BRANCH  31  32
ATOM     32  C   UNL     1       1.151   3.592   0.010  0.00  0.00    +0.195 C 
BRANCH  32  33
ATOM     33  C   UNL     1       1.171   2.086   0.002  0.00  0.00    -0.022 A 
ATOM     34  C   UNL     1      -0.017   1.378   0.010  0.00  0.00    +0.006 A 
ATOM     35  C   UNL     1       0.002  -0.004   0.002  0.00  0.00    +0.000 A 
ATOM     36  C   UNL     1       1.208  -0.679  -0.013  0.00  0.00    +0.000 A 
ATOM     37  C   UNL     1       2.396   0.029  -0.021  0.00  0.00    +0.000 A 
ATOM     38  C   UNL     1       2.377   1.411  -0.015  0.00  0.00    +0.006 A 
ENDBRANCH  32  33
ENDBRANCH  31  32
ENDBRANCH   2  31
TORSDOF 10
