REMARK  Name = ZINC07616002
REMARK  3 active torsions:
REMARK  status: ('A' for Active; 'I' for Inactive)
REMARK    1  A    between atoms: C_3  and  C_8
REMARK    2  A    between atoms: N_22  and  C_23
REMARK    3  A    between atoms: C_23  and  C_24
REMARK                            x       y       z     vdW  Elec       q    Type
REMARK                         _______ _______ _______ _____ _____    ______ ____
ROOT
ATOM      1  C   UNL     1       2.057   0.641  -0.014  0.00  0.00    +0.139 A 
ATOM      2  C   UNL     1       1.289   1.808  -0.001  0.00  0.00    +0.186 A 
ATOM      3  N   UNL     1       1.625   3.106   0.003  0.00  0.00    -0.210 NA
ATOM      4  C   UNL     1       0.719   4.061   0.017  0.00  0.00    +0.131 A 
ATOM      5  C   UNL     1      -0.704   3.693   0.029  0.00  0.00    +0.042 A 
ATOM      6  C   UNL     1      -1.712   4.657   0.043  0.00  0.00    +0.033 A 
ATOM      7  C   UNL     1      -3.032   4.260   0.039  0.00  0.00    +0.042 A 
ATOM      8  C   UNL     1      -3.361   2.911   0.034  0.00  0.00    +0.022 A 
ATOM      9  C   UNL     1      -2.375   1.947   0.024  0.00  0.00    +0.030 A 
ATOM     10  C   UNL     1      -1.040   2.327   0.019  0.00  0.00    +0.080 A 
ATOM     11  N   UNL     1      -0.017   1.396   0.010  0.00  0.00    -0.193 N 
ATOM     12  N   UNL     1       0.002  -0.004   0.002  0.00  0.00    -0.058 NA
ATOM     13  N   UNL     1       1.225  -0.404  -0.012  0.00  0.00    -0.127 NA
ATOM     14 CL   UNL     1      -4.292   5.455   0.050  0.00  0.00    -0.084 Cl
ATOM     15  N   UNL     1       1.099   5.387   0.021  0.00  0.00    -0.324 N 
ATOM     16  H   UNL     1       0.425   6.085   0.031  0.00  0.00    +0.148 HD
ENDROOT
BRANCH   1  19
ATOM     17  C   UNL     1       5.576  -0.506   0.633  0.00  0.00    +0.003 A 
ATOM     18  C   UNL     1       4.197  -0.448   0.650  0.00  0.00    +0.010 A 
ATOM     19  C   UNL     1       3.536   0.575  -0.030  0.00  0.00    +0.009 A 
ATOM     20  C   UNL     1       4.272   1.531  -0.729  0.00  0.00    +0.048 A 
ATOM     21  C   UNL     1       5.652   1.466  -0.735  0.00  0.00    +0.124 A 
ATOM     22  C   UNL     1       6.303   0.447  -0.057  0.00  0.00    +0.038 A 
ATOM     23  F   UNL     1       6.369   2.394  -1.407  0.00  0.00    -0.205 F 
ENDBRANCH   1  19
BRANCH  15  24
ATOM     24  C   UNL     1       2.520   5.742   0.010  0.00  0.00    +0.145 C 
BRANCH  24  25
ATOM     25  C   UNL     1       2.663   7.242   0.017  0.00  0.00    +0.007 A 
ATOM     26  C   UNL     1       2.754   8.086   1.074  0.00  0.00    +0.013 A 
ATOM     27  C   UNL     1       2.882   9.442   0.840  0.00  0.00    +0.008 A 
ATOM     28  C   UNL     1       2.913   9.889  -0.440  0.00  0.00    +0.045 A 
ATOM     29  S   UNL     1       2.765   8.368  -1.365  0.00  0.00    -0.100 S 
ENDBRANCH  24  25
ENDBRANCH  15  24
TORSDOF 3
