REMARK  Name = ZINC43217325
REMARK  11 active torsions:
REMARK  status: ('A' for Active; 'I' for Inactive)
REMARK    1  A    between atoms: C_1  and  S_2
REMARK    2  A    between atoms: S_2  and  C_3
REMARK    3  A    between atoms: C_3  and  C_4
REMARK    4  A    between atoms: C_4  and  C_5
REMARK    5  A    between atoms: C_5  and  C_7
REMARK    6  A    between atoms: C_5  and  N_30
REMARK    7  A    between atoms: C_9  and  C_12
REMARK    8  A    between atoms: N_14  and  C_15
REMARK    9  A    between atoms: C_15  and  C_17
REMARK   10  A    between atoms: C_15  and  C_24
REMARK   11  A    between atoms: C_17  and  C_18
REMARK                            x       y       z     vdW  Elec       q    Type
REMARK                         _______ _______ _______ _____ _____    ______ ____
ROOT
ATOM      1  C   UNL     1       3.819  -6.812  -2.834  0.00  0.00    +0.266 C 
ATOM      2  O   UNL     1       3.501  -7.974  -3.000  0.00  0.00    -0.268 OA
ATOM      3  N   UNL     1       5.090  -6.500  -2.516  0.00  0.00    -0.303 N 
ATOM      4  H   UNL     1       5.344  -5.573  -2.384  0.00  0.00    +0.150 HD
ENDROOT
BRANCH   1   7
ATOM      5  C   UNL     1       1.900  -3.789  -3.037  0.00  0.00    +0.182 A 
ATOM      6  N   UNL     1       3.022  -4.409  -2.827  0.00  0.00    -0.210 NA
ATOM      7  C   UNL     1       2.812  -5.745  -2.982  0.00  0.00    +0.163 A 
ATOM      8  C   UNL     1       1.499  -5.909  -3.298  0.00  0.00    +0.230 A 
ATOM      9  O   UNL     1       0.946  -4.686  -3.323  0.00  0.00    -0.449 OA
BRANCH   5  10
ATOM     10  C   UNL     1       1.701  -2.297  -2.963  0.00  0.00    +0.014 C 
BRANCH  10  11
ATOM     11  N   UNL     1       0.905  -1.852  -4.115  0.00  0.00    +0.386 N 
ATOM     12  H   UNL     1       0.007  -2.312  -4.101  0.00  0.00    -0.089 HD
ATOM     13  H   UNL     1       0.771  -0.853  -4.066  0.00  0.00    -0.089 HD
ATOM     14  H   UNL     1       1.390  -2.085  -4.969  0.00  0.00    -0.089 HD
ENDBRANCH  10  11
BRANCH  10  15
ATOM     15  C   UNL     1       0.966  -1.944  -1.668  0.00  0.00    +0.004 C 
BRANCH  15  16
ATOM     16  C   UNL     1       0.873  -0.423  -1.533  0.00  0.00    +0.068 C 
BRANCH  16  18
ATOM     17  C   UNL     1      -0.022   1.810   0.012  0.00  0.00    +0.084 C 
ATOM     18  S   UNL     1       0.002  -0.004   0.002  0.00  0.00    -0.164 S 
ENDBRANCH  16  18
ENDBRANCH  15  16
ENDBRANCH  10  15
ENDBRANCH   5  10
ENDBRANCH   1   7
BRANCH   3  19
ATOM     19  C   UNL     1       6.090  -7.561  -2.370  0.00  0.00    +0.108 C 
BRANCH  19  20
ATOM     20  C   UNL     1       6.030  -8.119  -0.971  0.00  0.00    -0.027 A 
ATOM     21  C   UNL     1       5.838  -7.271   0.103  0.00  0.00    +0.005 A 
ATOM     22  C   UNL     1       5.782  -7.784   1.386  0.00  0.00    +0.000 A 
ATOM     23  C   UNL     1       5.918  -9.143   1.594  0.00  0.00    +0.000 A 
ATOM     24  C   UNL     1       6.109  -9.991   0.519  0.00  0.00    +0.000 A 
ATOM     25  C   UNL     1       6.160  -9.480  -0.764  0.00  0.00    +0.005 A 
ENDBRANCH  19  20
BRANCH  19  26
ATOM     26  C   UNL     1       7.484  -6.987  -2.630  0.00  0.00    +0.062 C 
BRANCH  26  27
ATOM     27  C   UNL     1       7.584  -6.540  -4.066  0.00  0.00    -0.045 A 
ATOM     28  C   UNL     1       8.014  -7.426  -5.037  0.00  0.00    +0.004 A 
ATOM     29  C   UNL     1       8.106  -7.016  -6.354  0.00  0.00    +0.000 A 
ATOM     30  C   UNL     1       7.766  -5.721  -6.700  0.00  0.00    +0.000 A 
ATOM     31  C   UNL     1       7.335  -4.837  -5.729  0.00  0.00    +0.000 A 
ATOM     32  C   UNL     1       7.240  -5.247  -4.413  0.00  0.00    +0.004 A 
ENDBRANCH  26  27
ENDBRANCH  19  26
ENDBRANCH   3  19
TORSDOF 10
