REMARK  Name = ZINC65355654
REMARK  4 active torsions:
REMARK  status: ('A' for Active; 'I' for Inactive)
REMARK    1  A    between atoms: C_4  and  C_9
REMARK    2  A    between atoms: C_5  and  C_7
REMARK    3  A    between atoms: C_7  and  O_8
REMARK    4  A    between atoms: CA_14  and  C_15
REMARK                            x       y       z     vdW  Elec       q    Type
REMARK                         _______ _______ _______ _____ _____    ______ ____
ROOT
ATOM      1  C   UNL     1       3.697  -0.687  -0.037  0.00  0.00    +0.013 A 
ATOM      2  C   UNL     1       4.575  -0.598   1.050  0.00  0.00    +0.014 A 
ATOM      3  C   UNL     1       5.761  -1.280   0.994  0.00  0.00    +0.042 A 
ATOM      4  C   UNL     1       6.064  -2.041  -0.138  0.00  0.00    +0.094 A 
ATOM      5  N   UNL     1       5.226  -2.114  -1.154  0.00  0.00    -0.338 N 
ATOM      6  CA  UNL     1       4.061  -1.474  -1.141  0.00  0.00    +0.138 A 
ATOM      7  N   UNL     1       7.268  -2.733  -0.193  0.00  0.00    -0.345 N 
ATOM      8  H   UNL     1       7.890  -2.684   0.550  0.00  0.00    +0.144 HD
ATOM      9  H   UNL     1       7.486  -3.264  -0.975  0.00  0.00    +0.144 HD
ATOM     10  H   UNL     1       5.463  -2.651  -1.927  0.00  0.00    +0.167 HD
ENDROOT
BRANCH   1  14
ATOM     11  C   UNL     1      -0.017   1.379   0.010  0.00  0.00    +0.000 A 
ATOM     12  C   UNL     1       1.169   2.093   0.002  0.00  0.00    +0.001 A 
ATOM     13  C   UNL     1       2.377   1.428  -0.013  0.00  0.00    +0.009 A 
ATOM     14  C   UNL     1       2.403   0.033  -0.021  0.00  0.00    -0.010 A 
ATOM     15  C   UNL     1       1.205  -0.681  -0.013  0.00  0.00    -0.014 A 
ATOM     16  C   UNL     1       0.002  -0.004   0.002  0.00  0.00    +0.006 A 
BRANCH  15  17
ATOM     17  C   UNL     1       1.224  -2.187  -0.022  0.00  0.00    +0.191 C 
BRANCH  17  18
ATOM     18  O   UNL     1      -0.118  -2.680  -0.012  0.00  0.00    -0.390 OA
ATOM     19  H   UNL     1      -0.182  -3.645  -0.017  0.00  0.00    +0.210 HD
ENDBRANCH  17  18
ENDBRANCH  15  17
ENDBRANCH   1  14
BRANCH   6  20
ATOM     20  C   UNL     1       3.147  -1.586  -2.296  0.00  0.00    +0.403 C 
ATOM     21  O   UNL     1       3.461  -2.271  -3.259  0.00  0.00    -0.239 OA
ATOM     22  OXT UNL     1       2.077  -0.994  -2.289  0.00  0.00    -0.239 OA
ENDBRANCH   6  20
TORSDOF 4
