REMARK  Name = ZINC63698454
REMARK  10 active torsions:
REMARK  status: ('A' for Active; 'I' for Inactive)
REMARK    1  A    between atoms: C_1  and  C_2
REMARK    2  A    between atoms: C_2  and  O_3
REMARK    3  A    between atoms: O_3  and  C_4
REMARK    4  A    between atoms: C_4  and  C_6
REMARK    5  A    between atoms: C_7  and  C_38
REMARK    6  A    between atoms: C_9  and  C_37
REMARK    7  A    between atoms: C_10  and  S_12
REMARK    8  A    between atoms: S_12  and  N_15
REMARK    9  A    between atoms: C_19  and  C_22
REMARK   10  A    between atoms: N_27  and  C_30
REMARK                            x       y       z     vdW  Elec       q    Type
REMARK                         _______ _______ _______ _____ _____    ______ ____
ROOT
ATOM      1  N   UNL     1      -5.776   0.225  -1.284  0.00  0.00    -0.179 NA
ATOM      2  C   UNL     1      -7.054  -0.429  -1.597  0.00  0.00    +0.109 C 
ATOM      3  C   UNL     1      -7.947  -0.387  -0.354  0.00  0.00    +0.018 C 
ATOM      4  C   UNL     1      -8.082   1.061   0.124  0.00  0.00    +0.015 C 
ATOM      5  C   UNL     1      -6.702   1.606   0.501  0.00  0.00    +0.091 C 
ATOM      6  C   UNL     1      -5.795   1.584  -0.728  0.00  0.00    +0.121 C 
ENDROOT
BRANCH   5   7
ATOM      7  C   UNL     1      -6.840   3.021   1.002  0.00  0.00    +0.220 C 
ATOM      8  O   UNL     1      -6.651   3.952   0.249  0.00  0.00    -0.275 OA
ATOM      9  N   UNL     1      -7.173   3.250   2.288  0.00  0.00    -0.298 N 
ATOM     10  C   UNL     1      -7.306   2.136   3.237  0.00  0.00    +0.126 C 
ATOM     11  C   UNL     1      -6.388   2.401   4.436  0.00  0.00    +0.124 C 
ATOM     12  N   UNL     1      -6.623   3.771   4.914  0.00  0.00    -0.325 N 
ATOM     13  C   UNL     1      -6.490   4.885   3.966  0.00  0.00    +0.124 C 
ATOM     14  C   UNL     1      -7.403   4.620   2.768  0.00  0.00    +0.126 C 
BRANCH  12  15
ATOM     15  C   UNL     1      -6.969   4.009   6.248  0.00  0.00    +0.065 A 
ATOM     16  C   UNL     1      -5.978   4.235   7.194  0.00  0.00    +0.026 A 
ATOM     17  C   UNL     1      -6.322   4.470   8.511  0.00  0.00    +0.002 A 
ATOM     18  C   UNL     1      -7.652   4.482   8.889  0.00  0.00    +0.003 A 
ATOM     19  C   UNL     1      -8.643   4.257   7.951  0.00  0.00    +0.040 A 
ATOM     20  C   UNL     1      -8.306   4.027   6.630  0.00  0.00    +0.144 A 
ATOM     21  F   UNL     1      -9.274   3.813   5.712  0.00  0.00    -0.204 F 
ENDBRANCH  12  15
ENDBRANCH   5   7
BRANCH   1  22
ATOM     22  S   UNL     1      -4.340  -0.559  -1.548  0.00  0.00    +0.044 S 
ATOM     23  O   UNL     1      -3.369   0.476  -1.616  0.00  0.00    -0.157 OA
ATOM     24  O   UNL     1      -4.585  -1.397  -2.668  0.00  0.00    -0.157 OA
BRANCH  22  29
ATOM     25  C   UNL     1      -5.162  -2.619   0.073  0.00  0.00    +0.088 C 
ATOM     26  C   UNL     1      -5.783  -2.331   1.242  0.00  0.00    +0.050 C 
ATOM     27  N   UNL     1      -5.251  -1.259   1.842  0.00  0.00    -0.258 NA
ATOM     28  C   UNL     1      -4.268  -0.728   1.190  0.00  0.00    +0.046 C 
ATOM     29  C   UNL     1      -4.079  -1.564  -0.060  0.00  0.00    +0.230 C 
ATOM     30  C   UNL     1      -3.464   0.480   1.597  0.00  0.00    +0.063 C 
ATOM     31  C   UNL     1      -6.937  -3.123   1.800  0.00  0.00    +0.066 C 
BRANCH  25  32
ATOM     32  C   UNL     1      -5.456  -3.676  -0.824  0.00  0.00    +0.339 C 
ATOM     33  O   UNL     1      -6.363  -4.449  -0.578  0.00  0.00    -0.245 OA
BRANCH  32  34
ATOM     34  O   UNL     1      -4.729  -3.826  -1.951  0.00  0.00    -0.462 OA
BRANCH  34  36
ATOM     35  C   UNL     1      -4.152  -4.922  -4.026  0.00  0.00    +0.048 C 
ATOM     36  C   UNL     1      -5.080  -4.914  -2.809  0.00  0.00    +0.229 C 
ENDBRANCH  34  36
ENDBRANCH  32  34
ENDBRANCH  25  32
ENDBRANCH  22  29
ENDBRANCH   1  22
TORSDOF 7
