REMARK  Name = ZINC40446870
REMARK  3 active torsions:
REMARK  status: ('A' for Active; 'I' for Inactive)
REMARK    1  A    between atoms: C_5  and  S_8
REMARK    2  A    between atoms: S_8  and  N_11
REMARK    3  A    between atoms: N_11  and  C_12
REMARK                            x       y       z     vdW  Elec       q    Type
REMARK                         _______ _______ _______ _____ _____    ______ ____
ROOT
ATOM      1  S   UNL     1       1.232  -2.448  -0.026  0.00  0.00    +0.063 S 
ATOM      2  O   UNL     1      -0.012  -2.873  -0.565  0.00  0.00    -0.153 OA
ATOM      3  O   UNL     1       2.478  -2.832  -0.590  0.00  0.00    -0.153 OA
ENDROOT
BRANCH   1   8
ATOM      4  C   UNL     1      -0.031   1.370  -0.006  0.00  0.00    +0.078 A 
ATOM      5  C   UNL     1       1.157   2.081  -0.017  0.00  0.00    +0.127 A 
ATOM      6  C   UNL     1       2.366   1.408  -0.031  0.00  0.00    +0.055 A 
ATOM      7  C   UNL     1       2.389   0.025  -0.033  0.00  0.00    +0.050 A 
ATOM      8  C   UNL     1       1.203  -0.686  -0.022  0.00  0.00    +0.154 A 
ATOM      9  C   UNL     1      -0.008  -0.014  -0.008  0.00  0.00    +0.153 A 
ATOM     10  F   UNL     1      -1.167  -0.709   0.003  0.00  0.00    -0.203 F 
ATOM     11 BR   UNL     1       4.041  -0.894  -0.052  0.00  0.00    -0.048 Br
ATOM     12  F   UNL     1       1.136   3.432  -0.015  0.00  0.00    -0.205 F 
ENDBRANCH   1   8
BRANCH   1  13
ATOM     13  N   UNL     1       1.256  -2.940   1.555  0.00  0.00    -0.178 NA
ATOM     14  H   UNL     1       2.029  -3.411   1.905  0.00  0.00    +0.149 HD
BRANCH  13  15
ATOM     15  C   UNL     1       0.111  -2.665   2.426  0.00  0.00    +0.162 C 
ATOM     16  C   UNL     1       0.588  -2.521   3.873  0.00  0.00    +0.030 C 
ATOM     17  C   UNL     1       1.748  -3.458   4.153  0.00  0.00    +0.004 C 
ATOM     18  C   UNL     1       1.372  -4.928   4.112  0.00  0.00    +0.019 C 
ATOM     19  C   UNL     1       0.990  -5.354   2.693  0.00  0.00    +0.104 C 
ATOM     20  N   UNL     1      -0.440  -5.073   2.486  0.00  0.00    -0.314 N 
ATOM     21  C   UNL     1      -0.872  -3.815   2.352  0.00  0.00    +0.232 C 
ATOM     22  O   UNL     1      -2.051  -3.592   2.176  0.00  0.00    -0.274 OA
ATOM     23  H   UNL     1      -1.074  -5.806   2.444  0.00  0.00    +0.149 HD
ENDBRANCH  13  15
ENDBRANCH   1  13
TORSDOF 3
