REMARK  Name = ZINC12603968
REMARK  9 active torsions:
REMARK  status: ('A' for Active; 'I' for Inactive)
REMARK    1  A    between atoms: C_1  and  C_2
REMARK    2  A    between atoms: C_2  and  N_3
REMARK    3  A    between atoms: C_7  and  S_27
REMARK    4  A    between atoms: C_11  and  S_12
REMARK    5  A    between atoms: S_12  and  C_13
REMARK    6  A    between atoms: C_13  and  C_15
REMARK    7  A    between atoms: C_13  and  C_16
REMARK    8  A    between atoms: N_18  and  C_19
REMARK    9  A    between atoms: S_27  and  N_30
REMARK                            x       y       z     vdW  Elec       q    Type
REMARK                         _______ _______ _______ _____ _____    ______ ____
ROOT
ATOM      1  N   UNL     1       2.466   3.601   0.043  0.00  0.00    -0.319 N 
ATOM      2  C   UNL     1       1.147   3.179   0.061  0.00  0.00    +0.070 A 
ATOM      3  C   UNL     1      -0.073   3.838   0.086  0.00  0.00    +0.030 A 
ATOM      4  C   UNL     1      -1.246   3.112   0.101  0.00  0.00    +0.030 A 
ATOM      5  C   UNL     1      -1.214   1.726   0.083  0.00  0.00    +0.107 A 
ATOM      6  C   UNL     1      -0.012   1.055   0.063  0.00  0.00    +0.058 A 
ATOM      7  C   UNL     1       1.185   1.775   0.049  0.00  0.00    +0.092 A 
ATOM      8  N   UNL     1       2.494   1.410   0.025  0.00  0.00    -0.222 NA
ATOM      9  C   UNL     1       3.249   2.481   0.021  0.00  0.00    +0.171 A 
ENDROOT
BRANCH   5  10
ATOM     10  S   UNL     1      -2.723   0.817   0.093  0.00  0.00    +0.056 S 
ATOM     11  O   UNL     1      -3.720   1.678  -0.439  0.00  0.00    -0.153 OA
ATOM     12  O   UNL     1      -2.435  -0.455  -0.471  0.00  0.00    -0.153 OA
BRANCH  10  13
ATOM     13  N   UNL     1      -3.124   0.551   1.678  0.00  0.00    -0.204 NA
ATOM     14  H   UNL     1      -4.056   0.476   1.937  0.00  0.00    +0.144 HD
ATOM     15  H   UNL     1      -2.427   0.471   2.348  0.00  0.00    +0.144 HD
ENDBRANCH  10  13
ENDBRANCH   5  10
BRANCH   1  17
ATOM     16  C   UNL     1       3.122   5.461   1.489  0.00  0.00    +0.027 C 
ATOM     17  C   UNL     1       2.935   4.989   0.046  0.00  0.00    +0.121 C 
ENDBRANCH   1  17
BRANCH   9  18
ATOM     18  S   UNL     1       5.011   2.477  -0.008  0.00  0.00    -0.075 S 
BRANCH  18  19
ATOM     19  C   UNL     1       5.321   0.694  -0.027  0.00  0.00    +0.137 C 
ATOM     20  C   UNL     1       4.830   0.077   1.284  0.00  0.00    +0.029 C 
BRANCH  19  21
ATOM     21  C   UNL     1       6.799   0.443  -0.177  0.00  0.00    +0.230 C 
ATOM     22  O   UNL     1       7.597   1.284   0.181  0.00  0.00    -0.274 OA
ATOM     23  N   UNL     1       7.235  -0.716  -0.710  0.00  0.00    -0.283 N 
ATOM     24  H   UNL     1       6.601  -1.414  -0.936  0.00  0.00    +0.155 HD
BRANCH  23  25
ATOM     25  C   UNL     1       8.603  -0.911  -0.936  0.00  0.00    +0.053 A 
ATOM     26  C   UNL     1       9.537  -0.370  -0.063  0.00  0.00    +0.044 A 
ATOM     27  C   UNL     1      10.886  -0.565  -0.289  0.00  0.00    +0.043 A 
ATOM     28  C   UNL     1      11.307  -1.299  -1.385  0.00  0.00    +0.021 A 
ATOM     29  C   UNL     1      10.379  -1.839  -2.256  0.00  0.00    +0.023 A 
ATOM     30  C   UNL     1       9.028  -1.652  -2.032  0.00  0.00    +0.062 A 
ATOM     31 CL   UNL     1       7.864  -2.336  -3.123  0.00  0.00    -0.082 Cl
ATOM     32 CL   UNL     1      12.055   0.110   0.803  0.00  0.00    -0.083 Cl
ENDBRANCH  23  25
ENDBRANCH  19  21
ENDBRANCH  18  19
ENDBRANCH   9  18
TORSDOF 7
