REMARK  Name = ZINC09459038
REMARK  14 active torsions:
REMARK  status: ('A' for Active; 'I' for Inactive)
REMARK    1  A    between atoms: C_1  and  C_2
REMARK    2  A    between atoms: C_2  and  N_66
REMARK    3  A    between atoms: C_3  and  C_4
REMARK    4  A    between atoms: C_3  and  N_66
REMARK    5  A    between atoms: C_5  and  C_6
REMARK    6  A    between atoms: C_5  and  N_66
REMARK    7  A    between atoms: C_6  and  C_7
REMARK    8  A    between atoms: C_7  and  N_8
REMARK    9  A    between atoms: C_9  and  C_29
REMARK   10  A    between atoms: C_11  and  C_16
REMARK   11  A    between atoms: C_12  and  O_15
REMARK   12  A    between atoms: C_16  and  C_18
REMARK   13  A    between atoms: C_25  and  C_28
REMARK   14  A    between atoms: C_32  and  O_35
REMARK                            x       y       z     vdW  Elec       q    Type
REMARK                         _______ _______ _______ _____ _____    ______ ____
ROOT
ATOM      1  N   UNL     1      -1.246  -3.869  -0.080  0.00  0.00    -0.284 N 
ATOM      2  C   UNL     1      -1.278  -2.408  -0.215  0.00  0.00    +0.144 C 
ATOM      3  C   UNL     1       0.153  -1.973  -0.426  0.00  0.00    +0.071 C 
ATOM      4  C   UNL     1       0.910  -3.094  -0.399  0.00  0.00    +0.188 C 
ATOM      5  C   UNL     1       0.035  -4.266  -0.184  0.00  0.00    +0.282 C 
ATOM      6  O   UNL     1       0.417  -5.417  -0.113  0.00  0.00    -0.267 OA
ENDROOT
BRANCH   2   7
ATOM      7  C   UNL     1      -1.831  -1.781   1.039  0.00  0.00    -0.022 A 
ATOM      8  C   UNL     1      -1.382  -2.200   2.277  0.00  0.00    +0.009 A 
ATOM      9  C   UNL     1      -1.883  -1.623   3.428  0.00  0.00    +0.046 A 
ATOM     10  C   UNL     1      -2.847  -0.629   3.340  0.00  0.00    +0.117 A 
ATOM     11  C   UNL     1      -3.301  -0.214   2.097  0.00  0.00    +0.046 A 
ATOM     12  C   UNL     1      -2.792  -0.790   0.949  0.00  0.00    +0.009 A 
BRANCH  10  13
ATOM     13  O   UNL     1      -3.345  -0.063   4.470  0.00  0.00    -0.507 OA
ATOM     14  H   UNL     1      -4.125  -0.512   4.825  0.00  0.00    +0.292 HD
ENDBRANCH  10  13
ENDBRANCH   2   7
BRANCH   4  15
ATOM     15  O   UNL     1       2.255  -3.136  -0.546  0.00  0.00    -0.502 OA
ATOM     16  H   UNL     1       2.567  -4.084  -0.487  0.00  0.00    +0.292 HD
ENDBRANCH   4  15
BRANCH   3  17
ATOM     17  C   UNL     1       0.630  -0.600  -0.616  0.00  0.00    +0.195 C 
ATOM     18  O   UNL     1       1.347  -0.083   0.222  0.00  0.00    -0.287 OA
BRANCH  17  19
ATOM     19  C   UNL     1       0.248   0.154  -1.826  0.00  0.00    +0.023 A 
ATOM     20  C   UNL     1      -0.577  -0.433  -2.791  0.00  0.00    +0.015 A 
ATOM     21  C   UNL     1      -0.936   0.271  -3.915  0.00  0.00    +0.046 A 
ATOM     22  C   UNL     1      -0.479   1.577  -4.107  0.00  0.00    +0.124 A 
ATOM     23  C   UNL     1       0.346   2.154  -3.146  0.00  0.00    -0.002 A 
ATOM     24  C   UNL     1       0.702   1.464  -2.015  0.00  0.00    +0.019 A 
ATOM     25  C   UNL     1       0.683   3.550  -3.633  0.00  0.00    +0.083 C 
ATOM     26  C   UNL     1       0.275   3.476  -5.123  0.00  0.00    +0.175 C 
ATOM     27  O   UNL     1      -0.721   2.440  -5.130  0.00  0.00    -0.488 OA
ATOM     28  C   UNL     1       1.471   3.083  -5.993  0.00  0.00    +0.052 C 
ENDBRANCH  17  19
ENDBRANCH   3  17
BRANCH   1  29
ATOM     29  C   UNL     1      -2.404  -4.741   0.137  0.00  0.00    +0.107 C 
BRANCH  29  30
ATOM     30  C   UNL     1      -2.646  -4.903   1.639  0.00  0.00    +0.000 C 
BRANCH  30  31
ATOM     31  C   UNL     1      -3.854  -5.813   1.865  0.00  0.00    -0.077 C 
BRANCH  31  32
ATOM     32  N   UNL     1      -4.086  -5.940   3.320  0.00  0.00    +0.379 N 
ATOM     33  H   UNL     1      -3.181  -6.041   3.794  0.00  0.00    -0.082 HD
BRANCH  32  35
ATOM     34  C   UNL     1      -4.788  -4.786   5.360  0.00  0.00    -0.017 C 
ATOM     35  C   UNL     1      -4.762  -4.729   3.831  0.00  0.00    -0.082 C 
ENDBRANCH  32  35
BRANCH  32  36
ATOM     36  C   UNL     1      -4.911  -7.134   3.598  0.00  0.00    -0.082 C 
ATOM     37  C   UNL     1      -4.023  -8.377   3.498  0.00  0.00    -0.017 C 
ENDBRANCH  32  36
ENDBRANCH  31  32
ENDBRANCH  30  31
ENDBRANCH  29  30
ENDBRANCH   1  29
TORSDOF 11
