REMARK  Name = ZINC08665952
REMARK  4 active torsions:
REMARK  status: ('A' for Active; 'I' for Inactive)
REMARK    1  A    between atoms: C_1  and  C_2
REMARK    2  A    between atoms: C_2  and  C_26
REMARK    3  A    between atoms: C_6  and  C_17
REMARK    4  A    between atoms: C_11  and  O_15
REMARK                            x       y       z     vdW  Elec       q    Type
REMARK                         _______ _______ _______ _____ _____    ______ ____
ROOT
ATOM      1  C   UNL     1      -0.019   1.526   0.010  0.00  0.00    +0.031 C 
ATOM      2  C   UNL     1       0.002  -0.004   0.002  0.00  0.00    +0.034 C 
ATOM      3  C   UNL     1       0.756  -0.507  -1.237  0.00  0.00    +0.096 C 
ATOM      4  C   UNL     1       2.178   0.057  -1.207  0.00  0.00    +0.186 C 
ATOM      5  C   UNL     1       3.011  -0.612  -2.308  0.00  0.00    +0.084 C 
ATOM      6  C   UNL     1       4.451  -0.104  -2.198  0.00  0.00    +0.065 C 
ATOM      7  C   UNL     1       4.452   1.399  -2.084  0.00  0.00    +0.004 A 
ATOM      8  C   UNL     1       5.626   2.086  -2.349  0.00  0.00    +0.031 A 
ATOM      9  C   UNL     1       5.667   3.463  -2.252  0.00  0.00    +0.083 A 
ATOM     10  C   UNL     1       4.526   4.165  -1.886  0.00  0.00    +0.139 A 
ATOM     11  C   UNL     1       3.352   3.482  -1.622  0.00  0.00    +0.093 A 
ATOM     12  C   UNL     1       3.312   2.095  -1.723  0.00  0.00    +0.131 A 
ATOM     13  O   UNL     1       2.138   1.462  -1.465  0.00  0.00    -0.466 OA
ATOM     14 CL   UNL     1       7.142   4.314  -2.586  0.00  0.00    -0.080 Cl
ATOM     15  N   UNL     1       2.798  -0.189   0.092  0.00  0.00    -0.330 N 
ATOM     16  C   UNL     1       2.077  -0.433   1.217  0.00  0.00    +0.142 C 
ATOM     17  N   UNL     1       0.712  -0.499   1.191  0.00  0.00    -0.320 N 
ATOM     18  S   UNL     1       2.872  -0.654   2.657  0.00  0.00    -0.016 SA
ATOM     19  C   UNL     1      -1.430  -0.542  -0.008  0.00  0.00    +0.031 C 
ATOM     20  H   UNL     1       0.221  -0.866   1.942  0.00  0.00    +0.148 HD
ATOM     21  H   UNL     1       3.766  -0.179   0.154  0.00  0.00    +0.165 HD
ENDROOT
BRANCH   6  22
ATOM     22  C   UNL     1       5.222  -0.514  -3.426  0.00  0.00    -0.003 A 
ATOM     23  C   UNL     1       6.329  -1.292  -3.519  0.00  0.00    +0.012 A 
ATOM     24  C   UNL     1       6.872  -1.538  -4.766  0.00  0.00    +0.008 A 
ATOM     25  C   UNL     1       6.283  -0.994  -5.858  0.00  0.00    +0.045 A 
ATOM     26  S   UNL     1       4.912  -0.107  -5.136  0.00  0.00    -0.101 S 
ENDBRANCH   6  22
BRANCH  10  27
ATOM     27  O   UNL     1       4.563   5.520  -1.787  0.00  0.00    -0.505 OA
ATOM     28  H   UNL     1       4.343   5.981  -2.608  0.00  0.00    +0.292 HD
ENDBRANCH  10  27
TORSDOF 2
