REMARK  Name = ZINC00827417
REMARK  7 active torsions:
REMARK  status: ('A' for Active; 'I' for Inactive)
REMARK    1  A    between atoms: C_1  and  O_2
REMARK    2  A    between atoms: O_2  and  C_3
REMARK    3  A    between atoms: C_7  and  C_9
REMARK    4  A    between atoms: C_9  and  O_29
REMARK    5  A    between atoms: C_11  and  C_25
REMARK    6  A    between atoms: C_14  and  C_16
REMARK    7  A    between atoms: C_20  and  N_22
REMARK                            x       y       z     vdW  Elec       q    Type
REMARK                         _______ _______ _______ _____ _____    ______ ____
ROOT
ATOM      1  C   UNL     1      -5.022   3.788  -0.144  0.00  0.00    +0.187 C 
ATOM      2  C   UNL     1      -5.952   2.561  -0.229  0.00  0.00    +0.123 C 
ATOM      3  C   UNL     1      -5.004   1.385  -0.162  0.00  0.00    +0.144 C 
ATOM      4  N   UNL     1      -3.809   1.802  -0.066  0.00  0.00    -0.174 NA
ATOM      5  N   UNL     1      -3.681   3.189  -0.048  0.00  0.00    -0.153 N 
ATOM      6  C   UNL     1      -2.521   3.870   0.046  0.00  0.00    +0.269 C 
ATOM      7  O   UNL     1      -2.534   5.081   0.150  0.00  0.00    -0.268 OA
ENDROOT
BRANCH   1  12
ATOM      8  C   UNL     1      -6.114   6.483  -2.556  0.00  0.00    +0.120 A 
ATOM      9  C   UNL     1      -5.355   6.174  -3.676  0.00  0.00    +0.045 A 
ATOM     10  C   UNL     1      -4.493   5.095  -3.647  0.00  0.00    +0.004 A 
ATOM     11  C   UNL     1      -4.386   4.324  -2.504  0.00  0.00    +0.008 A 
ATOM     12  C   UNL     1      -5.141   4.630  -1.388  0.00  0.00    +0.008 A 
ATOM     13  C   UNL     1      -6.010   5.705  -1.413  0.00  0.00    +0.053 A 
BRANCH   8  15
ATOM     14  C   UNL     1      -7.023   8.298  -3.794  0.00  0.00    +0.277 C 
ATOM     15  O   UNL     1      -6.963   7.545  -2.582  0.00  0.00    -0.495 OA
ENDBRANCH   8  15
ENDBRANCH   1  12
BRANCH   6  16
ATOM     16  C   UNL     1      -1.234   3.144   0.023  0.00  0.00    +0.041 A 
ATOM     17  C   UNL     1      -1.216   1.748   0.025  0.00  0.00    +0.013 A 
ATOM     18  C   UNL     1      -0.011   1.077   0.009  0.00  0.00    +0.003 A 
ATOM     19  C   UNL     1       1.178   1.784  -0.019  0.00  0.00    +0.033 A 
ATOM     20  C   UNL     1       1.167   3.167  -0.026  0.00  0.00    +0.127 A 
ATOM     21  C   UNL     1      -0.031   3.851  -0.005  0.00  0.00    +0.045 A 
BRANCH  20  22
ATOM     22  N   UNL     1       2.444   3.916  -0.057  0.00  0.00    +0.056 N 
ATOM     23  O   UNL     1       3.502   3.313  -0.076  0.00  0.00    -0.126 OA
ATOM     24  O   UNL     1       2.436   5.133  -0.063  0.00  0.00    -0.126 OA
ENDBRANCH  20  22
ENDBRANCH   6  16
BRANCH   3  25
ATOM     25  C   UNL     1      -5.416  -0.064  -0.201  0.00  0.00    +0.432 C 
ATOM     26  F   UNL     1      -4.279  -0.875  -0.117  0.00  0.00    -0.165 F 
ATOM     27  F   UNL     1      -6.265  -0.337   0.877  0.00  0.00    -0.165 F 
ATOM     28  F   UNL     1      -6.087  -0.326  -1.401  0.00  0.00    -0.165 F 
ENDBRANCH   3  25
BRANCH   1  29
ATOM     29  O   UNL     1      -5.312   4.563   1.021  0.00  0.00    -0.366 OA
ATOM     30  H   UNL     1      -4.709   5.306   1.160  0.00  0.00    +0.212 HD
ENDBRANCH   1  29
TORSDOF 6
