REMARK  Name = ZINC44460404
REMARK  6 active torsions:
REMARK  status: ('A' for Active; 'I' for Inactive)
REMARK    1  A    between atoms: C_1  and  C_2
REMARK    2  A    between atoms: C_13  and  O_15
REMARK    3  A    between atoms: N_21  and  N_22
REMARK    4  A    between atoms: N_22  and  C_23
REMARK    5  A    between atoms: C_23  and  N_25
REMARK    6  A    between atoms: C_28  and  C_29
REMARK                            x       y       z     vdW  Elec       q    Type
REMARK                         _______ _______ _______ _____ _____    ______ ____
ROOT
ATOM      1  C   UNL     1      -0.062   1.533   0.002  0.00  0.00    +0.014 C 
ATOM      2  C   UNL     1      -0.031  -0.013  -0.004  0.00  0.00    -0.003 C 
ATOM      3  C   UNL     1       0.597  -0.424  -1.313  0.00  0.00    +0.010 C 
ATOM      4  C   UNL     1       1.125  -1.857  -1.307  0.00  0.00    +0.005 C 
ATOM      5  C   UNL     1       2.128  -1.988  -0.157  0.00  0.00    +0.002 C 
ATOM      6  C   UNL     1       1.360  -1.836   1.153  0.00  0.00    -0.003 C 
ATOM      7  C   UNL     1       0.723  -0.454   1.250  0.00  0.00    +0.001 C 
ATOM      8  C   UNL     1      -0.372  -0.503   2.349  0.00  0.00    +0.007 C 
ATOM      9  C   UNL     1      -1.664  -0.906   1.611  0.00  0.00    +0.032 C 
ATOM     10  C   UNL     1      -1.481  -0.483   0.142  0.00  0.00    +0.121 C 
ATOM     11  C   UNL     1       0.314  -2.940   1.288  0.00  0.00    +0.008 C 
ATOM     12  C   UNL     1       1.010  -4.304   1.327  0.00  0.00    +0.031 C 
ATOM     13  C   UNL     1       1.901  -4.444   0.108  0.00  0.00    -0.062 C 
ATOM     14  C   UNL     1       1.778  -5.550  -0.618  0.00  0.00    +0.024 C 
ATOM     15  C   UNL     1       2.636  -5.775  -1.789  0.00  0.00    +0.059 C 
ATOM     16  N   UNL     1       2.346  -6.664  -2.692  0.00  0.00    -0.186 NA
ATOM     17  C   UNL     1       3.899  -4.940  -1.877  0.00  0.00    +0.058 C 
ATOM     18  C   UNL     1       3.528  -3.489  -1.576  0.00  0.00    +0.017 C 
ATOM     19  C   UNL     1       2.850  -3.334  -0.225  0.00  0.00    -0.007 C 
ATOM     20  C   UNL     1       3.959  -3.331   0.834  0.00  0.00    +0.016 C 
ENDROOT
BRANCH  10  21
ATOM     21  O   UNL     1      -1.774  -1.562  -0.742  0.00  0.00    -0.391 OA
ATOM     22  H   UNL     1      -2.682  -1.887  -0.678  0.00  0.00    +0.210 HD
ENDBRANCH  10  21
BRANCH  16  23
ATOM     23  N   UNL     1       3.136  -6.777  -3.844  0.00  0.00    -0.218 N 
ATOM     24  H   UNL     1       3.943  -6.245  -3.932  0.00  0.00    +0.176 HD
BRANCH  23  25
ATOM     25  C   UNL     1       2.776  -7.624  -4.828  0.00  0.00    +0.147 C 
ATOM     26  S   UNL     1       3.741  -7.762  -6.235  0.00  0.00    -0.017 S 
BRANCH  25  27
ATOM     27  N   UNL     1       1.655  -8.362  -4.705  0.00  0.00    -0.339 N 
ATOM     28  H   UNL     1       1.108  -8.284  -3.908  0.00  0.00    +0.144 HD
ATOM     29  H   UNL     1       1.395  -8.972  -5.413  0.00  0.00    +0.144 HD
ENDBRANCH  25  27
ENDBRANCH  23  25
ENDBRANCH  16  23
TORSDOF 4
