REMARK  Name = ZINC11880257
REMARK  13 active torsions:
REMARK  status: ('A' for Active; 'I' for Inactive)
REMARK    1  A    between atoms: C_1  and  C_2
REMARK    2  A    between atoms: C_3  and  C_8
REMARK    3  A    between atoms: C_4  and  C_7
REMARK    4  A    between atoms: C_8  and  C_9
REMARK    5  A    between atoms: C_15  and  C_18
REMARK    6  A    between atoms: C_18  and  O_19
REMARK    7  A    between atoms: O_19  and  C_20
REMARK    8  A    between atoms: C_23  and  C_26
REMARK    9  A    between atoms: C_26  and  N_67
REMARK   10  A    between atoms: C_27  and  N_67
REMARK   11  A    between atoms: C_28  and  C_29
REMARK   12  A    between atoms: C_28  and  N_67
REMARK   13  A    between atoms: C_30  and  C_34
REMARK                            x       y       z     vdW  Elec       q    Type
REMARK                         _______ _______ _______ _____ _____    ______ ____
ROOT
ATOM      1  O   UNL     1      -0.369  -6.083  -1.517  0.00  0.00    -0.492 OA
ENDROOT
BRANCH   1   2
ATOM      2  C   UNL     1      -0.167  -4.740  -1.463  0.00  0.00    +0.121 A 
ATOM      3  C   UNL     1      -1.157  -3.871  -1.899  0.00  0.00    +0.046 A 
ATOM      4  C   UNL     1      -0.950  -2.506  -1.843  0.00  0.00    +0.005 A 
ATOM      5  C   UNL     1       0.243  -2.006  -1.354  0.00  0.00    -0.064 A 
ATOM      6  C   UNL     1       1.233  -2.870  -0.924  0.00  0.00    +0.005 A 
ATOM      7  C   UNL     1       1.028  -4.236  -0.973  0.00  0.00    +0.046 A 
BRANCH   5   8
ATOM      8  C   UNL     1       0.466  -0.517  -1.294  0.00  0.00    -0.043 C 
BRANCH   8  10
ATOM      9  C   UNL     1       0.827  -0.525   1.100  0.00  0.00    -0.095 C 
ATOM     10  N   UNL     1      -0.025  -0.013   0.006  0.00  0.00    +0.384 N 
ATOM     11  H   UNL     1      -0.987  -0.343   0.150  0.00  0.00    -0.081 HD
BRANCH  10  12
ATOM     12  C   UNL     1      -0.018   1.465   0.010  0.00  0.00    -0.017 C 
BRANCH  12  13
ATOM     13  C   UNL     1      -0.723   1.951   1.250  0.00  0.00    +0.091 A 
ATOM     14  C   UNL     1      -0.103   2.224   2.485  0.00  0.00    +0.103 A 
ATOM     15  N   UNL     1      -0.998   2.624   3.338  0.00  0.00    -0.054 NA
ATOM     16  O   UNL     1      -2.251   2.623   2.671  0.00  0.00    -0.242 OA
ATOM     17  N   UNL     1      -1.997   2.189   1.345  0.00  0.00    -0.056 NA
ATOM     18  C   UNL     1       1.369   2.075   2.773  0.00  0.00    +0.071 C 
ENDBRANCH  12  13
ENDBRANCH  10  12
ENDBRANCH   8  10
ENDBRANCH   5   8
ENDBRANCH   1   2
BRANCH   1  19
ATOM     19  C   UNL     1       0.694  -6.917  -1.051  0.00  0.00    +0.234 C 
BRANCH  19  26
ATOM     20  C   UNL     1      -1.222 -10.621  -3.466  0.00  0.00    +0.220 C 
ATOM     21  O   UNL     1      -1.986  -9.832  -3.981  0.00  0.00    -0.275 OA
ATOM     22  N   UNL     1      -0.145 -10.174  -2.792  0.00  0.00    -0.301 N 
ATOM     23  C   UNL     1       0.790 -11.118  -2.163  0.00  0.00    +0.108 C 
ATOM     24  C   UNL     1       0.951 -10.743  -0.687  0.00  0.00    +0.019 C 
ATOM     25  C   UNL     1       1.372  -9.276  -0.580  0.00  0.00    +0.010 C 
ATOM     26  C   UNL     1       0.286  -8.386  -1.188  0.00  0.00    +0.044 C 
ATOM     27  C   UNL     1       0.118  -8.734  -2.671  0.00  0.00    +0.114 C 
BRANCH  20  28
ATOM     28  C   UNL     1      -1.478 -12.102  -3.582  0.00  0.00    +0.136 C 
BRANCH  28  31
ATOM     29  C   UNL     1      -1.750 -12.478  -6.793  0.00  0.00    +0.069 C 
ATOM     30  C   UNL     1      -2.862 -12.499  -5.777  0.00  0.00    +0.084 A 
ATOM     31  C   UNL     1      -2.736 -12.334  -4.378  0.00  0.00    +0.026 A 
ATOM     32  C   UNL     1      -4.006 -12.439  -3.920  0.00  0.00    +0.138 A 
ATOM     33  O   UNL     1      -4.782 -12.639  -4.995  0.00  0.00    -0.359 OA
ATOM     34  N   UNL     1      -4.131 -12.672  -6.013  0.00  0.00    -0.083 NA
ATOM     35  C   UNL     1      -4.458 -12.346  -2.486  0.00  0.00    +0.089 C 
ENDBRANCH  28  31
ENDBRANCH  20  28
ENDBRANCH  19  26
ENDBRANCH   1  19
TORSDOF 9
