REMARK  Name = ZINC14476932
REMARK  3 active torsions:
REMARK  status: ('A' for Active; 'I' for Inactive)
REMARK    1  A    between atoms: C_3  and  C_9
REMARK    2  A    between atoms: C_19  and  N_26
REMARK    3  A    between atoms: C_22  and  O_25
REMARK                            x       y       z     vdW  Elec       q    Type
REMARK                         _______ _______ _______ _____ _____    ______ ____
ROOT
ATOM      1  C   UNL     1      -0.013   1.086   0.008  0.00  0.00    +0.106 C 
ATOM      2  C   UNL     1      -0.810   1.747  -1.119  0.00  0.00    +0.029 C 
ATOM      3  C   UNL     1      -0.005   1.572  -2.437  0.00  0.00    +0.033 C 
ATOM      4  C   UNL     1       1.009   2.697  -2.387  0.00  0.00    -0.030 C 
ATOM      5  C   UNL     1       0.608   3.642  -1.574  0.00  0.00    -0.023 C 
ATOM      6  C   UNL     1      -0.724   3.280  -0.959  0.00  0.00    +0.051 C 
ATOM      7  C   UNL     1      -0.768   3.688   0.484  0.00  0.00    +0.014 A 
ATOM      8  C   UNL     1      -0.856   5.044   0.776  0.00  0.00    +0.132 A 
ATOM      9  C   UNL     1      -0.898   5.483   2.082  0.00  0.00    +0.037 A 
ATOM     10  C   UNL     1      -0.851   4.572   3.122  0.00  0.00    +0.049 A 
ATOM     11  C   UNL     1      -0.764   3.220   2.844  0.00  0.00    +0.138 A 
ATOM     12  C   UNL     1      -0.723   2.774   1.519  0.00  0.00    +0.076 A 
ATOM     13  N   UNL     1      -0.638   1.397   1.294  0.00  0.00    -0.334 N 
ATOM     14  H   UNL     1      -0.977   0.583   1.952  0.00  0.00    +0.147 HD
ENDROOT
BRANCH   1  17
ATOM     15  C   UNL     1       3.014   3.240   0.682  0.00  0.00    +0.002 A 
ATOM     16  C   UNL     1       1.716   2.763   0.688  0.00  0.00    +0.007 A 
ATOM     17  C   UNL     1       1.401   1.608  -0.003  0.00  0.00    -0.007 A 
ATOM     18  C   UNL     1       2.382   0.934  -0.708  0.00  0.00    +0.064 A 
ATOM     19  C   UNL     1       3.680   1.414  -0.718  0.00  0.00    +0.060 A 
ATOM     20  C   UNL     1       3.995   2.568  -0.022  0.00  0.00    +0.021 A 
ATOM     21 CL   UNL     1       4.912   0.569  -1.602  0.00  0.00    -0.082 Cl
ATOM     22 CL   UNL     1       1.985  -0.513  -1.581  0.00  0.00    -0.082 Cl
ENDBRANCH   1  17
BRANCH   8  23
ATOM     23  N   UNL     1      -0.906   6.028  -0.329  0.00  0.00    +0.057 N 
ATOM     24  O   UNL     1      -0.983   7.218  -0.081  0.00  0.00    -0.126 OA
ATOM     25  O   UNL     1      -0.869   5.648  -1.485  0.00  0.00    -0.126 OA
ENDBRANCH   8  23
BRANCH  11  26
ATOM     26  O   UNL     1      -0.719   2.321   3.864  0.00  0.00    -0.505 OA
ATOM     27  H   UNL     1      -0.649   1.245   3.646  0.00  0.00    +0.292 HD
ENDBRANCH  11  26
TORSDOF 3
