REMARK  Name = ZINC41634590
REMARK  9 active torsions:
REMARK  status: ('A' for Active; 'I' for Inactive)
REMARK    1  A    between atoms: C_1  and  N_2
REMARK    2  A    between atoms: N_2  and  C_3
REMARK    3  A    between atoms: N_2  and  C_6
REMARK    4  A    between atoms: C_3  and  C_4
REMARK    5  A    between atoms: C_4  and  O_5
REMARK    6  A    between atoms: C_6  and  C_8
REMARK    7  A    between atoms: C_6  and  C_20
REMARK    8  A    between atoms: C_17  and  O_18
REMARK    9  A    between atoms: O_18  and  C_19
REMARK                            x       y       z     vdW  Elec       q    Type
REMARK                         _______ _______ _______ _____ _____    ______ ____
ROOT
ATOM      1  C   UNL     1       0.713  -0.844  -1.121  0.00  0.00    +0.009 C 
ENDROOT
BRANCH   1   2
ATOM      2  C   UNL     1       0.163  -0.571  -2.498  0.00  0.00    -0.007 A 
ATOM      3  C   UNL     1       1.036  -0.322  -3.570  0.00  0.00    -0.012 A 
ATOM      4  C   UNL     1       2.430  -0.321  -3.390  0.00  0.00    +0.009 A 
ATOM      5  C   UNL     1       3.246  -0.076  -4.451  0.00  0.00    +0.001 A 
ATOM      6  C   UNL     1       2.720   0.175  -5.717  0.00  0.00    +0.001 A 
ATOM      7  C   UNL     1       1.375   0.182  -5.929  0.00  0.00    +0.008 A 
ATOM      8  C   UNL     1       0.501  -0.067  -4.857  0.00  0.00    -0.017 A 
ATOM      9  C   UNL     1      -0.893  -0.069  -5.040  0.00  0.00    +0.012 A 
ATOM     10  C   UNL     1      -1.711  -0.313  -3.981  0.00  0.00    +0.046 A 
ATOM     11  C   UNL     1      -1.186  -0.570  -2.711  0.00  0.00    +0.123 A 
BRANCH  11  12
ATOM     12  O   UNL     1      -2.029  -0.816  -1.674  0.00  0.00    -0.495 OA
ATOM     13  C   UNL     1      -3.429  -0.801  -1.958  0.00  0.00    +0.277 C 
ENDBRANCH  11  12
ENDBRANCH   1   2
BRANCH   1  14
ATOM     14  C   UNL     1       0.561  -2.309  -0.801  0.00  0.00    +0.050 A 
ATOM     15  C   UNL     1       1.506  -3.215  -0.523  0.00  0.00    +0.282 A 
ATOM     16  N   UNL     1       1.168  -4.519  -0.254  0.00  0.00    -0.170 N 
ATOM     17  C   UNL     1      -0.155  -4.839  -0.285  0.00  0.00    +0.199 A 
ATOM     18  S   UNL     1      -0.927  -3.291  -0.687  0.00  0.00    -0.050 S 
ATOM     19  N   UNL     1      -0.306  -6.106  -0.010  0.00  0.00    -0.208 NA
ATOM     20  C   UNL     1       0.888  -6.655   0.206  0.00  0.00    +0.246 A 
ATOM     21  N   UNL     1       1.812  -5.741   0.071  0.00  0.00    -0.150 NA
ATOM     22  O   UNL     1       2.814  -2.841  -0.506  0.00  0.00    -0.265 OA
ENDBRANCH   1  14
BRANCH   1  24
ATOM     23  C   UNL     1       0.024   1.371  -0.509  0.00  0.00    -0.095 C 
ATOM     24  N   UNL     1      -0.026  -0.048  -0.132  0.00  0.00    +0.387 N 
ATOM     25  H   UNL     1      -0.987  -0.355  -0.104  0.00  0.00    -0.081 HD
BRANCH  24  26
ATOM     26  C   UNL     1       0.583  -0.225   1.193  0.00  0.00    -0.050 C 
BRANCH  26  27
ATOM     27  C   UNL     1      -0.269   0.487   2.245  0.00  0.00    +0.137 C 
BRANCH  27  28
ATOM     28  O   UNL     1      -1.553  -0.136   2.319  0.00  0.00    -0.397 OA
ATOM     29  H   UNL     1      -2.120   0.215   3.019  0.00  0.00    +0.209 HD
ENDBRANCH  27  28
ENDBRANCH  26  27
ENDBRANCH  24  26
ENDBRANCH   1  24
TORSDOF 7
