REMARK  Name = ZINC65499906
REMARK  4 active torsions:
REMARK  status: ('A' for Active; 'I' for Inactive)
REMARK    1  A    between atoms: C_6  and  C_7
REMARK    2  A    between atoms: C_11  and  C_13
REMARK    3  A    between atoms: C_13  and  N_14
REMARK    4  A    between atoms: C_15  and  C_17
REMARK                            x       y       z     vdW  Elec       q    Type
REMARK                         _______ _______ _______ _____ _____    ______ ____
ROOT
ATOM      1  N   UNL     1      -0.879  -4.332  -1.189  0.00  0.00    -0.313 N 
ATOM      2  C   UNL     1      -0.399  -5.080  -2.202  0.00  0.00    +0.236 C 
ATOM      3  O   UNL     1       0.087  -4.543  -3.175  0.00  0.00    -0.274 OA
ATOM      4  H   UNL     1      -1.268  -4.761  -0.411  0.00  0.00    +0.149 HD
ENDROOT
BRANCH   2   5
ATOM      5  C   UNL     1      -0.465  -6.584  -2.125  0.00  0.00    +0.183 C 
ATOM      6  C   UNL     1      -1.907  -7.054  -2.090  0.00  0.00    +0.020 C 
ATOM      7  C   UNL     1      -2.028  -7.980  -3.007  0.00  0.00    +0.003 C 
ATOM      8  C   UNL     1      -3.270  -8.722  -3.427  0.00  0.00    -0.030 C 
ATOM      9  N   UNL     1      -3.230 -10.119  -3.062  0.00  0.00    +0.383 N 
ATOM     10  C   UNL     1      -2.392 -10.972  -3.892  0.00  0.00    -0.081 C 
ATOM     11  C   UNL     1      -0.916 -10.636  -3.656  0.00  0.00    +0.001 C 
ATOM     12  C   UNL     1      -0.561  -9.389  -4.481  0.00  0.00    +0.122 C 
ATOM     13  N   UNL     1      -0.791  -8.212  -3.654  0.00  0.00    -0.272 N 
ATOM     14  N   UNL     1       0.070  -7.194  -3.364  0.00  0.00    -0.225 NA
ATOM     15  H   UNL     1      -2.903 -10.186  -2.110  0.00  0.00    -0.085 HD
ATOM     16  H   UNL     1       0.098  -6.520  -4.115  0.00  0.00    +0.146 HD
ATOM     17  H   UNL     1      -4.172 -10.479  -3.092  0.00  0.00    -0.085 HD
ENDBRANCH   2   5
BRANCH   1  18
ATOM     18  C   UNL     1      -0.815  -2.870  -1.264  0.00  0.00    +0.119 C 
BRANCH  18  23
ATOM     19  C   UNL     1      -1.260  -0.760   0.011  0.00  0.00    +0.080 C 
ATOM     20  N   UNL     1      -2.470  -0.272   0.019  0.00  0.00    -0.153 NA
ATOM     21  N   UNL     1      -3.439  -1.270   0.026  0.00  0.00    -0.161 NA
ATOM     22  C   UNL     1      -2.927  -2.457   0.021  0.00  0.00    +0.119 C 
ATOM     23  C   UNL     1      -1.423  -2.267   0.004  0.00  0.00    +0.100 C 
BRANCH  19  29
ATOM     24  C   UNL     1      -0.017   1.395   0.010  0.00  0.00    +0.012 A 
ATOM     25  C   UNL     1       1.169   2.097   0.002  0.00  0.00    +0.039 A 
ATOM     26  C   UNL     1       2.379   1.420  -0.013  0.00  0.00    +0.123 A 
ATOM     27  C   UNL     1       2.405   0.033  -0.022  0.00  0.00    +0.039 A 
ATOM     28  C   UNL     1       1.226  -0.681  -0.014  0.00  0.00    +0.012 A 
ATOM     29  C   UNL     1       0.002  -0.004   0.002  0.00  0.00    -0.001 A 
ATOM     30  F   UNL     1       3.538   2.114  -0.021  0.00  0.00    -0.205 F 
ENDBRANCH  19  29
ENDBRANCH  18  23
ENDBRANCH   1  18
TORSDOF 4
