REMARK  Name = ZINC05189846
REMARK  7 active torsions:
REMARK  status: ('A' for Active; 'I' for Inactive)
REMARK    1  A    between atoms: C_1  and  C_2
REMARK    2  A    between atoms: C_2  and  C_3
REMARK    3  A    between atoms: C_2  and  C_4
REMARK    4  A    between atoms: C_12  and  C_19
REMARK    5  A    between atoms: C_15  and  O_17
REMARK    6  A    between atoms: O_17  and  C_18
REMARK    7  A    between atoms: N_20  and  O_21
REMARK                            x       y       z     vdW  Elec       q    Type
REMARK                         _______ _______ _______ _____ _____    ______ ____
ROOT
ATOM      1  C   UNL     1      -1.412  -0.526   0.013  0.00  0.00    -0.044 A 
ATOM      2  C   UNL     1      -2.256  -0.201   1.060  0.00  0.00    +0.006 A 
ATOM      3  C   UNL     1      -3.557  -0.673   1.086  0.00  0.00    +0.024 A 
ATOM      4  C   UNL     1      -4.014  -1.474   0.057  0.00  0.00    +0.048 A 
ATOM      5  C   UNL     1      -3.162  -1.804  -1.009  0.00  0.00    -0.003 A 
ATOM      6  C   UNL     1      -1.858  -1.320  -1.026  0.00  0.00    +0.013 A 
ATOM      7  C   UNL     1      -3.684  -2.653  -2.098  0.00  0.00    +0.008 C 
ATOM      8  C   UNL     1      -4.807  -3.337  -1.917  0.00  0.00    +0.004 C 
ATOM      9  C   UNL     1      -5.554  -3.275  -0.612  0.00  0.00    +0.174 C 
ATOM     10  N   UNL     1      -5.318  -1.981   0.041  0.00  0.00    -0.223 N 
ATOM     11  C   UNL     1      -6.331  -1.298   0.610  0.00  0.00    +0.408 C 
ATOM     12  O   UNL     1      -7.458  -1.753   0.587  0.00  0.00    -0.226 OA
ENDROOT
BRANCH   9  13
ATOM     13  C   UNL     1      -5.077  -4.383   0.291  0.00  0.00    +0.157 C 
ATOM     14  N   UNL     1      -4.639  -4.108   1.475  0.00  0.00    -0.074 NA
ATOM     15  N   UNL     1      -5.108  -5.689  -0.146  0.00  0.00    -0.342 N 
ATOM     16  H   UNL     1      -5.437  -5.895  -1.034  0.00  0.00    +0.144 HD
ATOM     17  H   UNL     1      -4.801  -6.402   0.436  0.00  0.00    +0.144 HD
BRANCH  14  18
ATOM     18  O   UNL     1      -4.607  -2.765   1.924  0.00  0.00    -0.408 OA
ATOM     19  H   UNL     1      -4.264  -2.659   2.821  0.00  0.00    +0.328 HD
ENDBRANCH  14  18
ENDBRANCH   9  13
BRANCH   1  21
ATOM     20  C   UNL     1      -0.019   1.526   0.010  0.00  0.00    +0.012 C 
ATOM     21  C   UNL     1       0.002  -0.004   0.002  0.00  0.00    +0.013 C 
ATOM     22  C   UNL     1       0.742  -0.511   1.242  0.00  0.00    +0.012 C 
ENDBRANCH   1  21
BRANCH  11  23
ATOM     23  O   UNL     1      -6.095  -0.113   1.203  0.00  0.00    -0.453 OA
ATOM     24  C   UNL     1      -7.216   0.555   1.786  0.00  0.00    +0.282 C 
ENDBRANCH  11  23
TORSDOF 4
