REMARK  Name = ZINC05634717
REMARK  5 active torsions:
REMARK  status: ('A' for Active; 'I' for Inactive)
REMARK    1  A    between atoms: C_1  and  C_2
REMARK    2  A    between atoms: C_9  and  N_28
REMARK    3  A    between atoms: C_10  and  C_26
REMARK    4  A    between atoms: C_11  and  C_13
REMARK    5  A    between atoms: C_18  and  C_19
REMARK                            x       y       z     vdW  Elec       q    Type
REMARK                         _______ _______ _______ _____ _____    ______ ____
ROOT
ATOM      1  C   UNL     1      -5.996   3.690   0.793  0.00  0.00    +0.068 C 
ATOM      2  C   UNL     1      -4.518   3.948   0.661  0.00  0.00    +0.068 A 
ATOM      3  C   UNL     1      -3.553   3.007   0.329  0.00  0.00    +0.049 A 
ATOM      4  C   UNL     1      -2.337   3.634   0.313  0.00  0.00    +0.222 A 
ATOM      5  N   UNL     1      -2.542   4.923   0.624  0.00  0.00    -0.246 N 
ATOM      6  H   UNL     1      -1.839   5.632   0.691  0.00  0.00    +0.192 HD
ATOM      7  N   UNL     1      -3.918   5.101   0.840  0.00  0.00    -0.176 NA
ATOM      8  O   UNL     1      -1.182   2.984   0.029  0.00  0.00    -0.423 OA
ATOM      9  C   UNL     1      -1.209   1.636   0.017  0.00  0.00    +0.200 C 
ATOM     10  C   UNL     1      -2.346   0.906   0.018  0.00  0.00    +0.098 C 
ATOM     11  C   UNL     1      -3.715   1.540   0.023  0.00  0.00    +0.105 C 
ENDROOT
BRANCH  11  12
ATOM     12  C   UNL     1      -4.359   1.371  -1.329  0.00  0.00    +0.010 A 
ATOM     13  C   UNL     1      -3.880   1.840  -2.502  0.00  0.00    +0.110 A 
ATOM     14  N   UNL     1      -4.741   1.478  -3.478  0.00  0.00    -0.284 N 
ATOM     15  H   UNL     1      -4.643   1.681  -4.452  0.00  0.00    +0.188 HD
ATOM     16  N   UNL     1      -5.795   0.768  -2.888  0.00  0.00    -0.174 NA
ATOM     17  C   UNL     1      -5.569   0.701  -1.593  0.00  0.00    +0.097 A 
BRANCH  17  18
ATOM     18  C   UNL     1      -6.436   0.036  -0.589  0.00  0.00    +0.002 A 
ATOM     19  C   UNL     1      -5.868  -0.614   0.505  0.00  0.00    +0.011 A 
ATOM     20  C   UNL     1      -6.679  -1.226   1.439  0.00  0.00    +0.020 A 
ATOM     21  C   UNL     1      -8.054  -1.204   1.285  0.00  0.00    +0.041 A 
ATOM     22  C   UNL     1      -8.624  -0.564   0.197  0.00  0.00    +0.020 A 
ATOM     23  C   UNL     1      -7.822   0.055  -0.739  0.00  0.00    +0.011 A 
ATOM     24 CL   UNL     1      -9.069  -1.982   2.460  0.00  0.00    -0.084 Cl
ENDBRANCH  17  18
ENDBRANCH  11  12
BRANCH   9  25
ATOM     25  N   UNL     1      -0.011   0.966   0.007  0.00  0.00    -0.328 N 
ATOM     26  H   UNL     1       0.002  -0.004   0.002  0.00  0.00    +0.145 HD
ATOM     27  H   UNL     1       0.822   1.462   0.002  0.00  0.00    +0.145 HD
ENDBRANCH   9  25
BRANCH  10  28
ATOM     28  C   UNL     1      -2.249  -0.523   0.014  0.00  0.00    +0.101 C 
ATOM     29  N   UNL     1      -2.171  -1.656   0.011  0.00  0.00    -0.191 NA
ENDBRANCH  10  28
TORSDOF 4
