REMARK  Name = ZINC10129487
REMARK  10 active torsions:
REMARK  status: ('A' for Active; 'I' for Inactive)
REMARK    1  A    between atoms: C_1  and  C_2
REMARK    2  A    between atoms: C_5  and  S_8
REMARK    3  A    between atoms: S_8  and  N_11
REMARK    4  A    between atoms: N_11  and  C_12
REMARK    5  A    between atoms: C_12  and  C_14
REMARK    6  A    between atoms: C_12  and  C_18
REMARK    7  A    between atoms: C_14  and  C_16
REMARK    8  A    between atoms: C_14  and  C_17
REMARK    9  A    between atoms: N_20  and  C_21
REMARK   10  A    between atoms: C_27  and  C_29
REMARK                            x       y       z     vdW  Elec       q    Type
REMARK                         _______ _______ _______ _____ _____    ______ ____
ROOT
ATOM      1  C   UNL     1      -0.858   3.290   1.307  0.00  0.00    +0.165 C 
ENDROOT
BRANCH   1   2
ATOM      2  C   UNL     1      -1.476   4.196   0.273  0.00  0.00    +0.232 C 
ATOM      3  O   UNL     1      -2.306   5.016   0.604  0.00  0.00    -0.274 OA
ATOM      4  N   UNL     1      -1.106   4.095  -1.019  0.00  0.00    -0.311 N 
ATOM      5  H   UNL     1      -0.497   3.392  -1.296  0.00  0.00    +0.149 HD
BRANCH   4   6
ATOM      6  C   UNL     1      -1.624   5.045  -2.006  0.00  0.00    +0.076 C 
ATOM      7  C   UNL     1      -0.754   6.303  -2.008  0.00  0.00    +0.022 C 
ATOM      8  C   UNL     1      -1.295   7.297  -3.038  0.00  0.00    +0.002 C 
ATOM      9  C   UNL     1      -1.268   6.656  -4.427  0.00  0.00    +0.000 C 
ATOM     10  C   UNL     1      -2.138   5.398  -4.425  0.00  0.00    +0.005 C 
ATOM     11  C   UNL     1      -1.597   4.405  -3.395  0.00  0.00    +0.006 C 
ATOM     12  C   UNL     1      -2.468   3.147  -3.393  0.00  0.00    +0.009 C 
ENDBRANCH   4   6
ENDBRANCH   1   2
BRANCH   1  13
ATOM     13  C   UNL     1      -1.520   1.912   1.239  0.00  0.00    +0.010 C 
ATOM     14  C   UNL     1      -0.812   0.958   2.203  0.00  0.00    +0.009 C 
ATOM     15  C   UNL     1      -2.993   2.034   1.632  0.00  0.00    +0.009 C 
ENDBRANCH   1  13
BRANCH   1  16
ATOM     16  N   UNL     1      -1.058   3.862   2.640  0.00  0.00    -0.178 NA
ATOM     17  H   UNL     1      -1.946   4.134   2.923  0.00  0.00    +0.149 HD
BRANCH  16  18
ATOM     18  S   UNL     1       0.230   4.046   3.665  0.00  0.00    +0.059 S 
ATOM     19  O   UNL     1      -0.268   4.685   4.832  0.00  0.00    -0.153 OA
ATOM     20  O   UNL     1       0.896   2.792   3.708  0.00  0.00    -0.153 OA
BRANCH  18  25
ATOM     21  C   UNL     1       4.040   7.934   1.064  0.00  0.00    +0.044 C 
ATOM     22  C   UNL     1       3.088   6.963   1.713  0.00  0.00    -0.050 A 
ATOM     23  C   UNL     1       2.092   7.428   2.551  0.00  0.00    +0.005 A 
ATOM     24  C   UNL     1       1.219   6.537   3.147  0.00  0.00    +0.029 A 
ATOM     25  C   UNL     1       1.342   5.181   2.905  0.00  0.00    +0.105 A 
ATOM     26  C   UNL     1       2.342   4.716   2.071  0.00  0.00    +0.029 A 
ATOM     27  C   UNL     1       3.211   5.608   1.470  0.00  0.00    +0.005 A 
ENDBRANCH  18  25
ENDBRANCH  16  18
ENDBRANCH   1  16
TORSDOF 6
