REMARK  Name = ZINC17091978
REMARK  6 active torsions:
REMARK  status: ('A' for Active; 'I' for Inactive)
REMARK    1  A    between atoms: C_1  and  C_2
REMARK    2  A    between atoms: C_2  and  C_3
REMARK    3  A    between atoms: C_4  and  C_29
REMARK    4  A    between atoms: C_7  and  C_8
REMARK    5  A    between atoms: N_10  and  N_11
REMARK    6  A    between atoms: C_24  and  C_28
REMARK                            x       y       z     vdW  Elec       q    Type
REMARK                         _______ _______ _______ _____ _____    ______ ____
ROOT
ATOM      1  N   UNL     1       2.366   1.218  -0.014  0.00  0.00    -0.200 N 
ATOM      2  C   UNL     1       3.099   1.163   1.113  0.00  0.00    +0.280 A 
ATOM      3  O   UNL     1       2.704   1.701   2.131  0.00  0.00    -0.265 OA
ATOM      4  C   UNL     1       4.388   0.438   1.100  0.00  0.00    +0.075 A 
ATOM      5  C   UNL     1       5.337   0.247   2.198  0.00  0.00    -0.023 A 
ATOM      6  C   UNL     1       6.446  -0.459   1.902  0.00  0.00    -0.004 A 
ATOM      7  S   UNL     1       6.269  -0.884   0.192  0.00  0.00    -0.075 S 
ATOM      8  C   UNL     1       4.748  -0.136  -0.119  0.00  0.00    +0.092 A 
ATOM      9  N   UNL     1       3.944  -0.029  -1.221  0.00  0.00    -0.328 N 
ATOM     10  H   UNL     1       4.250  -0.490  -2.172  0.00  0.00    +0.168 HD
ATOM     11  C   UNL     1       2.777   0.640  -1.155  0.00  0.00    +0.179 A 
ATOM     12  S   UNL     1       1.796   0.756  -2.553  0.00  0.00    -0.011 S 
ATOM     13  C   UNL     1       7.574  -0.801   2.826  0.00  0.00    +0.046 C 
ATOM     14  C   UNL     1       7.464   0.087   4.073  0.00  0.00    -0.009 C 
ATOM     15  C   UNL     1       6.018   0.054   4.577  0.00  0.00    +0.008 C 
ATOM     16  C   UNL     1       5.109   0.802   3.599  0.00  0.00    +0.037 C 
ATOM     17  C   UNL     1       8.399  -0.440   5.163  0.00  0.00    +0.008 C 
ENDROOT
BRANCH   1  20
ATOM     18  C   UNL     1      -0.014   1.212   0.009  0.00  0.00    +0.263 C 
ATOM     19  O   UNL     1       0.002  -0.004   0.002  0.00  0.00    -0.268 OA
ATOM     20  N   UNL     1       1.143   1.902   0.001  0.00  0.00    -0.214 N 
ATOM     21  H   UNL     1       1.129   3.002   0.007  0.00  0.00    +0.176 HD
BRANCH  18  26
ATOM     22  C   UNL     1      -2.556   1.225   0.021  0.00  0.00    -0.026 A 
ATOM     23  C   UNL     1      -3.678   1.972   0.030  0.00  0.00    -0.009 A 
ATOM     24  S   UNL     1      -3.053   3.639   0.036  0.00  0.00    -0.101 S 
ATOM     25  C   UNL     1      -1.353   3.309   0.032  0.00  0.00    +0.058 A 
ATOM     26  C   UNL     1      -1.299   1.931   0.019  0.00  0.00    +0.049 A 
ATOM     27  C   UNL     1      -5.112   1.508   0.034  0.00  0.00    +0.052 C 
BRANCH  22  29
ATOM     28  C   UNL     1      -2.625  -0.798   1.452  0.00  0.00    +0.009 C 
ATOM     29  C   UNL     1      -2.613  -0.281   0.013  0.00  0.00    +0.033 C 
ENDBRANCH  22  29
ENDBRANCH  18  26
ENDBRANCH   1  20
TORSDOF 3
