REMARK  Name = ZINC64053352
REMARK  7 active torsions:
REMARK  status: ('A' for Active; 'I' for Inactive)
REMARK    1  A    between atoms: C_1  and  C_2
REMARK    2  A    between atoms: C_3  and  C_9
REMARK    3  A    between atoms: C_4  and  C_8
REMARK    4  A    between atoms: N_5  and  C_7
REMARK    5  A    between atoms: C_9  and  C_10
REMARK    6  A    between atoms: C_10  and  C_11
REMARK    7  A    between atoms: C_26  and  C_28
REMARK                            x       y       z     vdW  Elec       q    Type
REMARK                         _______ _______ _______ _____ _____    ______ ____
ROOT
ATOM      1  C   UNL     1       1.412   0.765  -4.413  0.00  0.00    +0.216 C 
ATOM      2  O   UNL     1       0.362   0.915  -5.001  0.00  0.00    -0.276 OA
ATOM      3  N   UNL     1       2.576   0.802  -5.092  0.00  0.00    -0.292 N 
ATOM      4  C   UNL     1       3.845   0.739  -4.360  0.00  0.00    +0.113 C 
ATOM      5  C   UNL     1       4.689   1.984  -4.691  0.00  0.00    +0.052 C 
ATOM      6  C   UNL     1       4.625   2.165  -6.187  0.00  0.00    -0.035 C 
ATOM      7  C   UNL     1       5.581   2.314  -7.095  0.00  0.00    -0.001 A 
ATOM      8  C   UNL     1       7.039   2.466  -6.966  0.00  0.00    +0.010 A 
ATOM      9  C   UNL     1       7.735   2.579  -8.129  0.00  0.00    +0.001 A 
ATOM     10  C   UNL     1       7.133   2.556  -9.391  0.00  0.00    +0.002 A 
ATOM     11  C   UNL     1       5.799   2.428  -9.602  0.00  0.00    +0.026 A 
ATOM     12  C   UNL     1       4.962   2.310  -8.456  0.00  0.00    +0.043 A 
ATOM     13  N   UNL     1       3.669   2.201  -8.366  0.00  0.00    -0.375 N 
ATOM     14  C   UNL     1       3.304   2.185  -6.949  0.00  0.00    +0.131 C 
ATOM     15  C   UNL     1       2.559   0.898  -6.560  0.00  0.00    +0.135 C 
ATOM     16  H   UNL     1       3.051   2.140  -9.111  0.00  0.00    +0.160 HD
ENDROOT
BRANCH  15  17
ATOM     17  C   UNL     1       1.136   0.962  -7.052  0.00  0.00    +0.013 A 
ATOM     18  C   UNL     1       0.571   2.180  -7.378  0.00  0.00    +0.046 A 
ATOM     19  C   UNL     1      -0.736   2.239  -7.830  0.00  0.00    +0.124 A 
ATOM     20  C   UNL     1      -1.478   1.076  -7.954  0.00  0.00    +0.041 A 
ATOM     21  C   UNL     1      -0.914  -0.142  -7.628  0.00  0.00    +0.041 A 
ATOM     22  C   UNL     1       0.396  -0.201  -7.181  0.00  0.00    +0.129 A 
ATOM     23  F   UNL     1       0.949  -1.393  -6.867  0.00  0.00    -0.205 F 
ATOM     24  F   UNL     1      -1.288   3.430  -8.148  0.00  0.00    -0.205 F 
ENDBRANCH  15  17
BRANCH   1  25
ATOM     25  C   UNL     1       1.416   0.537  -2.924  0.00  0.00    +0.101 C 
BRANCH  25  26
ATOM     26  C   UNL     1      -0.023   0.540  -2.404  0.00  0.00    +0.048 C 
BRANCH  26  29
ATOM     27  C   UNL     1       0.127   2.789  -0.175  0.00  0.00    +0.068 C 
ATOM     28  C   UNL     1       0.046   1.304   0.070  0.00  0.00    +0.063 A 
ATOM     29  C   UNL     1      -0.020   0.312  -0.914  0.00  0.00    -0.004 A 
ATOM     30  C   UNL     1      -0.080  -0.888  -0.292  0.00  0.00    +0.039 A 
ATOM     31  N   UNL     1      -0.054  -0.663   1.038  0.00  0.00    -0.271 N 
ATOM     32  N   UNL     1       0.031   0.720   1.241  0.00  0.00    -0.176 NA
ATOM     33  C   UNL     1      -0.100  -1.687   2.086  0.00  0.00    +0.172 C 
ATOM     34  C   UNL     1      -0.163  -2.234  -0.965  0.00  0.00    +0.065 C 
ENDBRANCH  26  29
ENDBRANCH  25  26
ENDBRANCH   1  25
TORSDOF 4
