REMARK  Name = ZINC43757202
REMARK  4 active torsions:
REMARK  status: ('A' for Active; 'I' for Inactive)
REMARK    1  A    between atoms: C_1  and  C_2
REMARK    2  A    between atoms: C_17  and  C_35
REMARK    3  A    between atoms: C_22  and  C_23
REMARK    4  A    between atoms: N_30  and  N_31
REMARK                            x       y       z     vdW  Elec       q    Type
REMARK                         _______ _______ _______ _____ _____    ______ ____
ROOT
ATOM      1  C   UNL     1      -0.700   2.100  -0.133  0.00  0.00    +0.012 C 
ATOM      2  C   UNL     1      -0.477   0.661   0.348  0.00  0.00    -0.026 C 
ATOM      3  C   UNL     1       0.573  -0.011  -0.533  0.00  0.00    +0.007 C 
ATOM      4  C   UNL     1       1.914   0.714  -0.403  0.00  0.00    +0.001 C 
ATOM      5  C   UNL     1       2.371   0.730   1.055  0.00  0.00    +0.000 C 
ATOM      6  C   UNL     1       1.316   1.413   1.929  0.00  0.00    +0.004 C 
ATOM      7  C   UNL     1      -0.003   0.650   1.799  0.00  0.00    -0.005 C 
ATOM      8  C   UNL     1      -1.054   1.225   2.742  0.00  0.00    +0.004 C 
ATOM      9  C   UNL     1      -2.359   0.424   2.625  0.00  0.00    +0.004 C 
ATOM     10  C   UNL     1      -2.144  -0.692   1.606  0.00  0.00    -0.003 C 
ATOM     11  C   UNL     1      -1.820  -0.074   0.247  0.00  0.00    -0.001 C 
ATOM     12  C   UNL     1      -1.839  -1.098  -0.869  0.00  0.00    +0.005 C 
ATOM     13  C   UNL     1      -3.160  -1.872  -0.964  0.00  0.00    +0.013 C 
ATOM     14  C   UNL     1      -4.059  -1.576   0.205  0.00  0.00    +0.015 C 
ATOM     15  C   UNL     1      -3.258  -1.679   1.521  0.00  0.00    +0.009 C 
ATOM     16  C   UNL     1      -4.412  -1.593   2.531  0.00  0.00    +0.041 C 
ATOM     17  C   UNL     1      -5.436  -2.528   1.878  0.00  0.00    -0.023 C 
ATOM     18  C   UNL     1      -6.428  -3.177   2.518  0.00  0.00    +0.013 C 
ATOM     19  C   UNL     1      -5.156  -2.590   0.472  0.00  0.00    +0.069 C 
ATOM     20  N   UNL     1      -5.718  -3.354  -0.411  0.00  0.00    -0.183 NA
ATOM     21  C   UNL     1      -4.767  -0.232   0.034  0.00  0.00    +0.018 C 
ENDROOT
BRANCH  20  22
ATOM     22  N   UNL     1      -6.478  -4.457  -0.001  0.00  0.00    -0.191 N 
ATOM     23  C   UNL     1      -7.152  -5.187  -0.911  0.00  0.00    +0.317 C 
ATOM     24  O   UNL     1      -7.812  -6.144  -0.555  0.00  0.00    -0.251 OA
ATOM     25  N   UNL     1      -7.096  -4.856  -2.216  0.00  0.00    -0.312 N 
ATOM     26  H   UNL     1      -6.519  -4.696   0.939  0.00  0.00    +0.179 HD
ATOM     27  H   UNL     1      -6.569  -4.092  -2.500  0.00  0.00    +0.147 HD
ATOM     28  H   UNL     1      -7.581  -5.381  -2.872  0.00  0.00    +0.147 HD
ENDBRANCH  20  22
BRANCH  18  29
ATOM     29  C   UNL     1      -6.520  -3.116   3.986  0.00  0.00    -0.025 A 
ATOM     30  C   UNL     1      -6.063  -1.987   4.672  0.00  0.00    +0.008 A 
ATOM     31  C   UNL     1      -6.152  -1.938   6.048  0.00  0.00    +0.001 A 
ATOM     32  C   UNL     1      -6.693  -3.002   6.748  0.00  0.00    +0.000 A 
ATOM     33  C   UNL     1      -7.148  -4.123   6.075  0.00  0.00    +0.001 A 
ATOM     34  C   UNL     1      -7.071  -4.185   4.700  0.00  0.00    +0.008 A 
ENDBRANCH  18  29
TORSDOF 2
