REMARK  Name = ZINC63251272
REMARK  8 active torsions:
REMARK  status: ('A' for Active; 'I' for Inactive)
REMARK    1  A    between atoms: C_2  and  C_3
REMARK    2  A    between atoms: C_3  and  N_4
REMARK    3  A    between atoms: N_4  and  C_5
REMARK    4  A    between atoms: C_5  and  C_6
REMARK    5  A    between atoms: C_10  and  C_12
REMARK    6  A    between atoms: C_14  and  C_16
REMARK    7  A    between atoms: C_20  and  S_22
REMARK    8  A    between atoms: S_22  and  N_25
REMARK                            x       y       z     vdW  Elec       q    Type
REMARK                         _______ _______ _______ _____ _____    ______ ____
ROOT
ATOM      1  N   UNL     1       1.892  -1.934   0.897  0.00  0.00    -0.289 N 
ATOM      2  C   UNL     1       1.864  -1.423   2.144  0.00  0.00    +0.247 C 
ATOM      3  O   UNL     1       1.419  -2.084   3.062  0.00  0.00    -0.270 OA
ENDROOT
BRANCH   2   4
ATOM      4  C   UNL     1       2.373  -0.059   2.396  0.00  0.00    +0.039 A 
ATOM      5  C   UNL     1       2.280   0.918   1.402  0.00  0.00    +0.016 A 
ATOM      6  C   UNL     1       2.756   2.189   1.641  0.00  0.00    +0.041 A 
ATOM      7  C   UNL     1       3.327   2.498   2.867  0.00  0.00    +0.150 A 
ATOM      8  C   UNL     1       3.421   1.533   3.857  0.00  0.00    +0.141 A 
ATOM      9  C   UNL     1       2.943   0.260   3.630  0.00  0.00    +0.044 A 
ATOM     10  F   UNL     1       3.792   3.746   3.096  0.00  0.00    -0.203 F 
BRANCH   8  11
ATOM     11  S   UNL     1       4.148   1.935   5.411  0.00  0.00    +0.059 S 
ATOM     12  O   UNL     1       3.538   3.143   5.844  0.00  0.00    -0.153 OA
ATOM     13  O   UNL     1       4.124   0.747   6.190  0.00  0.00    -0.153 OA
BRANCH  11  14
ATOM     14  N   UNL     1       5.742   2.284   5.130  0.00  0.00    -0.203 NA
ATOM     15  H   UNL     1       6.097   2.240   4.228  0.00  0.00    +0.144 HD
ATOM     16  H   UNL     1       6.322   2.532   5.867  0.00  0.00    +0.144 HD
ENDBRANCH  11  14
ENDBRANCH   8  11
ENDBRANCH   2   4
BRANCH   1  17
ATOM     17  C   UNL     1       2.285  -1.087  -0.232  0.00  0.00    +0.135 C 
BRANCH  17  19
ATOM     18  C   UNL     1       1.050   0.440  -1.683  0.00  0.00    +0.005 C 
ATOM     19  C   UNL     1       1.057  -0.682  -1.007  0.00  0.00    -0.016 C 
ENDBRANCH  17  19
ENDBRANCH   1  17
BRANCH   1  20
ATOM     20  C   UNL     1       1.530  -3.335   0.672  0.00  0.00    +0.143 C 
BRANCH  20  21
ATOM     21  C   UNL     1       2.762  -4.196   0.781  0.00  0.00    -0.029 A 
ATOM     22  C   UNL     1       3.530  -4.448  -0.343  0.00  0.00    +0.005 A 
ATOM     23  C   UNL     1       4.663  -5.237  -0.251  0.00  0.00    +0.002 A 
ATOM     24  C   UNL     1       5.034  -5.778   0.962  0.00  0.00    +0.019 A 
ATOM     25  C   UNL     1       4.265  -5.528   2.100  0.00  0.00    +0.052 A 
ATOM     26  C   UNL     1       3.125  -4.726   2.001  0.00  0.00    +0.024 A 
BRANCH  25  27
ATOM     27  C   UNL     1       4.644  -6.086   3.363  0.00  0.00    +0.099 C 
ATOM     28  N   UNL     1       4.946  -6.529   4.364  0.00  0.00    -0.191 NA
ENDBRANCH  25  27
ENDBRANCH  20  21
ENDBRANCH   1  20
TORSDOF 8
