REMARK  Name = ZINC20710987
REMARK  10 active torsions:
REMARK  status: ('A' for Active; 'I' for Inactive)
REMARK    1  A    between atoms: C_1  and  C_2
REMARK    2  A    between atoms: C_2  and  C_3
REMARK    3  A    between atoms: C_3  and  C_5
REMARK    4  A    between atoms: C_3  and  N_6
REMARK    5  A    between atoms: N_6  and  S_7
REMARK    6  A    between atoms: S_7  and  C_10
REMARK    7  A    between atoms: C_23  and  C_26
REMARK    8  A    between atoms: C_31  and  O_32
REMARK    9  A    between atoms: O_32  and  C_33
REMARK   10  A    between atoms: C_33  and  C_34
REMARK                            x       y       z     vdW  Elec       q    Type
REMARK                         _______ _______ _______ _____ _____    ______ ____
ROOT
ATOM      1  C   UNL     1      -4.872  -0.325   1.602  0.00  0.00    +0.106 A 
ATOM      2  C   UNL     1      -5.106  -0.246   0.241  0.00  0.00    +0.030 A 
ATOM      3  C   UNL     1      -4.683   0.864  -0.462  0.00  0.00    +0.025 A 
ATOM      4  C   UNL     1      -4.026   1.895   0.196  0.00  0.00    +0.031 A 
ATOM      5  C   UNL     1      -3.790   1.821   1.560  0.00  0.00    -0.018 A 
ATOM      6  C   UNL     1      -4.220   0.700   2.256  0.00  0.00    +0.034 A 
ATOM      7  C   UNL     1      -3.092   2.909   2.312  0.00  0.00    +0.049 C 
ATOM      8  C   UNL     1      -1.675   2.519   2.659  0.00  0.00    -0.023 C 
ATOM      9  C   UNL     1      -0.885   3.562   2.582  0.00  0.00    -0.030 C 
ATOM     10  C   UNL     1      -1.671   4.795   2.177  0.00  0.00    +0.033 C 
ATOM     11  C   UNL     1      -2.938   4.205   1.491  0.00  0.00    +0.029 C 
ATOM     12  C   UNL     1      -2.557   3.865   0.047  0.00  0.00    +0.108 C 
ATOM     13  N   UNL     1      -3.602   3.013  -0.531  0.00  0.00    -0.336 N 
ATOM     14  H   UNL     1      -4.031   3.259  -1.514  0.00  0.00    +0.147 HD
ENDROOT
BRANCH  12  15
ATOM     15  C   UNL     1      -1.241   3.131   0.031  0.00  0.00    +0.015 A 
ATOM     16  C   UNL     1      -1.216   1.753   0.128  0.00  0.00    +0.009 A 
ATOM     17  C   UNL     1      -0.009   1.080   0.119  0.00  0.00    +0.001 A 
ATOM     18  C   UNL     1       1.176   1.782   0.001  0.00  0.00    +0.004 A 
ATOM     19  C   UNL     1       1.157   3.159  -0.103  0.00  0.00    +0.046 A 
ATOM     20  C   UNL     1      -0.054   3.838  -0.088  0.00  0.00    +0.126 A 
BRANCH  20  21
ATOM     21  O   UNL     1      -0.075   5.193  -0.190  0.00  0.00    -0.487 OA
BRANCH  21  22
ATOM     22  C   UNL     1       1.185   5.855  -0.309  0.00  0.00    +0.264 C 
BRANCH  22  23
ATOM     23  C   UNL     1       0.964   7.342  -0.409  0.00  0.00    -0.010 A 
ATOM     24  C   UNL     1       0.803   7.935  -1.648  0.00  0.00    +0.007 A 
ATOM     25  C   UNL     1       0.596   9.299  -1.740  0.00  0.00    +0.000 A 
ATOM     26  C   UNL     1       0.559  10.071  -0.594  0.00  0.00    +0.000 A 
ATOM     27  C   UNL     1       0.725   9.479   0.644  0.00  0.00    +0.000 A 
ATOM     28  C   UNL     1       0.928   8.115   0.737  0.00  0.00    +0.007 A 
ENDBRANCH  22  23
ENDBRANCH  21  22
ENDBRANCH  20  21
ENDBRANCH  12  15
BRANCH   1  29
ATOM     29  S   UNL     1      -5.409  -1.740   2.504  0.00  0.00    +0.059 S 
ATOM     30  O   UNL     1      -5.555  -1.329   3.856  0.00  0.00    -0.153 OA
ATOM     31  O   UNL     1      -6.477  -2.313   1.763  0.00  0.00    -0.153 OA
BRANCH  29  32
ATOM     32  N   UNL     1      -4.170  -2.839   2.475  0.00  0.00    -0.187 NA
ATOM     33  H   UNL     1      -4.248  -3.720   1.822  0.00  0.00    +0.148 HD
BRANCH  32  34
ATOM     34  C   UNL     1      -2.901  -2.529   3.138  0.00  0.00    +0.073 C 
ATOM     35  C   UNL     1      -2.905  -3.120   4.549  0.00  0.00    +0.025 C 
BRANCH  34  37
ATOM     36  C   UNL     1      -1.664  -2.451   0.969  0.00  0.00    +0.005 C 
ATOM     37  C   UNL     1      -1.746  -3.132   2.336  0.00  0.00    +0.017 C 
ENDBRANCH  34  37
ENDBRANCH  32  34
ENDBRANCH  29  32
ENDBRANCH   1  29
TORSDOF 8
