REMARK  Name = ZINC47625340
REMARK  5 active torsions:
REMARK  status: ('A' for Active; 'I' for Inactive)
REMARK    1  A    between atoms: C_1  and  C_2
REMARK    2  A    between atoms: C_2  and  C_4
REMARK    3  A    between atoms: C_2  and  N_13
REMARK    4  A    between atoms: N_13  and  C_14
REMARK    5  A    between atoms: C_15  and  C_17
REMARK                            x       y       z     vdW  Elec       q    Type
REMARK                         _______ _______ _______ _____ _____    ______ ____
ROOT
ATOM      1  C   UNL     1       0.575   1.346  -0.167  0.00  0.00    +0.035 C 
ATOM      2  C   UNL     1       0.317  -0.156  -0.037  0.00  0.00    +0.129 C 
ENDROOT
BRANCH   2   3
ATOM      3  C   UNL     1       1.133  -0.897  -1.065  0.00  0.00    +0.100 A 
ATOM      4  N   UNL     1       2.412  -1.135  -1.047  0.00  0.00    -0.242 NA
ATOM      5  C   UNL     1       3.030  -1.815  -2.035  0.00  0.00    +0.079 A 
ATOM      6  C   UNL     1       4.390  -2.162  -2.181  0.00  0.00    +0.029 A 
ATOM      7  C   UNL     1       4.812  -2.861  -3.271  0.00  0.00    +0.002 A 
ATOM      8  C   UNL     1       3.932  -3.254  -4.269  0.00  0.00    +0.001 A 
ATOM      9  C   UNL     1       2.592  -2.933  -4.160  0.00  0.00    +0.017 A 
ATOM     10  C   UNL     1       2.155  -2.228  -3.065  0.00  0.00    +0.039 A 
ATOM     11  S   UNL     1       0.595  -1.608  -2.493  0.00  0.00    -0.070 S 
ENDBRANCH   2   3
BRANCH   2  12
ATOM     12  N   UNL     1       0.700  -0.604   1.304  0.00  0.00    -0.290 N 
ATOM     13  C   UNL     1       2.081  -0.441   1.764  0.00  0.00    +0.133 C 
ATOM     14  C   UNL     1      -0.219  -1.165   2.115  0.00  0.00    +0.269 C 
ATOM     15  O   UNL     1      -1.340  -1.389   1.700  0.00  0.00    -0.268 OA
BRANCH  14  16
ATOM     16  C   UNL     1       0.136  -1.508   3.508  0.00  0.00    +0.167 A 
ATOM     17  C   UNL     1      -0.657  -2.202   4.444  0.00  0.00    +0.169 A 
ATOM     18  N   UNL     1       0.062  -2.273   5.538  0.00  0.00    -0.163 NA
ATOM     19  H   UNL     1       1.895  -1.617   5.999  0.00  0.00    +0.213 HD
ATOM     20  N   UNL     1       1.192  -1.694   5.336  0.00  0.00    -0.196 N 
ATOM     21  N   UNL     1       1.268  -1.233   4.138  0.00  0.00    -0.150 NA
ENDBRANCH  14  16
ENDBRANCH   2  12
TORSDOF 3
