REMARK  Name = ZINC19236911
REMARK  10 active torsions:
REMARK  status: ('A' for Active; 'I' for Inactive)
REMARK    1  A    between atoms: C_1  and  C_2
REMARK    2  A    between atoms: C_7  and  C_8
REMARK    3  A    between atoms: C_8  and  O_33
REMARK    4  A    between atoms: N_11  and  C_14
REMARK    5  A    between atoms: C_14  and  C_15
REMARK    6  A    between atoms: C_15  and  C_17
REMARK    7  A    between atoms: C_15  and  O_32
REMARK    8  A    between atoms: C_27  and  C_29
REMARK    9  A    between atoms: C_29  and  C_30
REMARK   10  A    between atoms: C_29  and  C_31
REMARK                            x       y       z     vdW  Elec       q    Type
REMARK                         _______ _______ _______ _____ _____    ______ ____
ROOT
ATOM      1  C   UNL     1      -0.663   1.275   0.881  0.00  0.00    +0.128 C 
ENDROOT
BRANCH   1   2
ATOM      2  C   UNL     1      -0.623   2.781   0.854  0.00  0.00    -0.021 A 
ATOM      3  C   UNL     1      -1.507   3.481   0.054  0.00  0.00    +0.008 A 
ATOM      4  C   UNL     1      -1.469   4.860   0.028  0.00  0.00    +0.024 A 
ATOM      5  C   UNL     1      -0.543   5.545   0.805  0.00  0.00    +0.039 A 
ATOM      6  C   UNL     1       0.342   4.844   1.610  0.00  0.00    -0.026 A 
ATOM      7  C   UNL     1       0.294   3.460   1.632  0.00  0.00    +0.011 A 
ATOM      8  C   UNL     1       1.351   5.553   2.473  0.00  0.00    +0.038 C 
ATOM      9  C   UNL     1       1.595   6.972   1.958  0.00  0.00    +0.024 C 
ATOM     10  C   UNL     1       0.243   7.676   1.785  0.00  0.00    +0.114 C 
ATOM     11  N   UNL     1      -0.515   6.946   0.759  0.00  0.00    -0.271 N 
ATOM     12  C   UNL     1      -1.173   7.613  -0.210  0.00  0.00    +0.222 C 
ATOM     13  O   UNL     1      -1.691   7.003  -1.121  0.00  0.00    -0.275 OA
BRANCH  12  14
ATOM     14  C   UNL     1      -1.264   9.116  -0.162  0.00  0.00    +0.069 C 
ATOM     15  C   UNL     1       0.072   9.723  -0.597  0.00  0.00    +0.017 C 
ATOM     16  C   UNL     1      -2.371   9.590  -1.106  0.00  0.00    +0.017 C 
ENDBRANCH  12  14
ENDBRANCH   1   2
BRANCH   1  17
ATOM     17  O   UNL     1      -2.015   0.832   0.747  0.00  0.00    -0.389 OA
ATOM     18  H   UNL     1      -2.768   1.132   1.491  0.00  0.00    +0.210 HD
ENDBRANCH   1  17
BRANCH   1  19
ATOM     19  C   UNL     1       0.172   0.721  -0.275  0.00  0.00    -0.042 C 
BRANCH  19  23
ATOM     20  C   UNL     1       1.208  -3.427  -0.235  0.00  0.00    +0.088 C 
ATOM     21  C   UNL     1       0.532  -2.830  -1.473  0.00  0.00    +0.021 C 
ATOM     22  C   UNL     1       0.721  -1.312  -1.469  0.00  0.00    -0.076 C 
ATOM     23  N   UNL     1       0.133  -0.747  -0.248  0.00  0.00    +0.382 N 
ATOM     24  C   UNL     1       0.798  -1.270   0.953  0.00  0.00    -0.076 C 
ATOM     25  C   UNL     1       0.612  -2.787   1.021  0.00  0.00    +0.021 C 
ATOM     26  H   UNL     1      -0.922  -1.058  -0.209  0.00  0.00    -0.082 HD
BRANCH  20  33
ATOM     27  C   UNL     1       2.068  -4.973   2.048  0.00  0.00    +0.044 C 
ATOM     28  C   UNL     1       1.386  -5.655   0.891  0.00  0.00    -0.045 A 
ATOM     29  C   UNL     1       1.168  -7.020   0.923  0.00  0.00    +0.004 A 
ATOM     30  C   UNL     1       0.546  -7.646  -0.141  0.00  0.00    +0.000 A 
ATOM     31  C   UNL     1       0.139  -6.907  -1.236  0.00  0.00    +0.000 A 
ATOM     32  C   UNL     1       0.353  -5.542  -1.267  0.00  0.00    +0.007 A 
ATOM     33  C   UNL     1       0.974  -4.915  -0.202  0.00  0.00    -0.013 A 
ENDBRANCH  20  33
BRANCH  20  34
ATOM     34  O   UNL     1       2.612  -3.164  -0.285  0.00  0.00    -0.384 OA
ATOM     35  H   UNL     1       2.976  -2.126  -0.315  0.00  0.00    +0.211 HD
ENDBRANCH  20  34
ENDBRANCH  19  23
ENDBRANCH   1  19
TORSDOF 7
