REMARK  Name = ZINC41498407
REMARK  5 active torsions:
REMARK  status: ('A' for Active; 'I' for Inactive)
REMARK    1  A    between atoms: C_1  and  C_2
REMARK    2  A    between atoms: C_3  and  O_20
REMARK    3  A    between atoms: C_10  and  C_11
REMARK    4  A    between atoms: O_20  and  C_21
REMARK    5  A    between atoms: C_21  and  C_22
REMARK                            x       y       z     vdW  Elec       q    Type
REMARK                         _______ _______ _______ _____ _____    ______ ____
ROOT
ATOM      1  C   UNL     1       0.074   1.497   0.006  0.00  0.00    +0.051 C 
ATOM      2  C   UNL     1       0.088  -0.010   0.000  0.00  0.00    +0.034 A 
ATOM      3  C   UNL     1       0.109  -0.698  -1.203  0.00  0.00    +0.128 A 
ATOM      4  C   UNL     1       0.121  -2.090  -1.222  0.00  0.00    +0.047 A 
ATOM      5  C   UNL     1       0.113  -2.793  -0.051  0.00  0.00    +0.019 A 
ATOM      6  C   UNL     1       0.092  -2.114   1.168  0.00  0.00    +0.068 A 
ATOM      7  C   UNL     1       0.085  -0.710   1.200  0.00  0.00    +0.146 A 
ATOM      8  O   UNL     1       0.071  -0.283   2.482  0.00  0.00    -0.451 OA
ATOM      9  C   UNL     1       0.074  -1.317   3.357  0.00  0.00    +0.176 C 
ATOM     10  C   UNL     1       0.063  -1.222   4.709  0.00  0.00    +0.058 C 
ATOM     11  C   UNL     1       0.078  -2.562   2.572  0.00  0.00    +0.231 C 
ATOM     12  O   UNL     1       0.082  -3.707   2.990  0.00  0.00    -0.283 OA
ENDROOT
BRANCH  10  13
ATOM     13  C   UNL     1       0.162   0.095   5.355  0.00  0.00    -0.021 A 
ATOM     14  C   UNL     1       0.284   0.189   6.746  0.00  0.00    +0.009 A 
ATOM     15  C   UNL     1       0.376   1.428   7.343  0.00  0.00    +0.016 A 
ATOM     16  C   UNL     1       0.347   2.577   6.571  0.00  0.00    +0.018 A 
ATOM     17  C   UNL     1       0.226   2.492   5.194  0.00  0.00    +0.016 A 
ATOM     18  C   UNL     1       0.139   1.261   4.581  0.00  0.00    +0.009 A 
ATOM     19 BR   UNL     1       0.474   4.272   7.401  0.00  0.00    -0.050 Br
ENDBRANCH  10  13
BRANCH   3  20
ATOM     20  O   UNL     1       0.116  -0.009  -2.372  0.00  0.00    -0.482 OA
BRANCH  20  21
ATOM     21  C   UNL     1       0.138  -0.776  -3.577  0.00  0.00    +0.324 C 
BRANCH  21  22
ATOM     22  C   UNL     1       0.144   0.153  -4.764  0.00  0.00    +0.248 C 
ATOM     23  O   UNL     1       0.130   1.354  -4.594  0.00  0.00    -0.272 OA
ATOM     24  N   UNL     1       0.163  -0.351  -6.014  0.00  0.00    -0.327 N 
ATOM     25  H   UNL     1       0.174  -1.311  -6.150  0.00  0.00    +0.145 HD
ATOM     26  H   UNL     1       0.167   0.247  -6.778  0.00  0.00    +0.145 HD
ENDBRANCH  21  22
ENDBRANCH  20  21
ENDBRANCH   3  20
TORSDOF 4
