REMARK  Name = ZINC38918606
REMARK  9 active torsions:
REMARK  status: ('A' for Active; 'I' for Inactive)
REMARK    1  A    between atoms: C_1  and  C_2
REMARK    2  A    between atoms: C_9  and  C_14
REMARK    3  A    between atoms: C_14  and  N_15
REMARK    4  A    between atoms: N_15  and  C_16
REMARK    5  A    between atoms: C_18  and  C_23
REMARK    6  A    between atoms: C_21  and  C_22
REMARK    7  A    between atoms: C_24  and  C_26
REMARK    8  A    between atoms: C_29  and  O_32
REMARK    9  A    between atoms: O_32  and  C_33
REMARK                            x       y       z     vdW  Elec       q    Type
REMARK                         _______ _______ _______ _____ _____    ______ ____
ROOT
ATOM      1  N   UNL     1      -1.229  -6.481   2.978  0.00  0.00    -0.266 N 
ATOM      2  C   UNL     1      -1.208  -7.002   1.734  0.00  0.00    +0.251 C 
ATOM      3  O   UNL     1      -1.601  -6.341   0.792  0.00  0.00    -0.270 OA
ENDROOT
BRANCH   1   4
ATOM      4  C   UNL     1      -0.837  -7.262   4.069  0.00  0.00    +0.040 A 
ATOM      5  C   UNL     1       0.381  -7.023   4.694  0.00  0.00    +0.027 A 
ATOM      6  C   UNL     1       0.765  -7.795   5.772  0.00  0.00    -0.049 A 
ATOM      7  C   UNL     1      -0.059  -8.807   6.229  0.00  0.00    +0.004 A 
ATOM      8  C   UNL     1      -1.271  -9.048   5.609  0.00  0.00    +0.005 A 
ATOM      9  C   UNL     1      -1.665  -8.275   4.534  0.00  0.00    -0.029 A 
ATOM     10  C   UNL     1      -2.989  -8.534   3.863  0.00  0.00    +0.045 C 
ATOM     11  C   UNL     1       2.086  -7.537   6.450  0.00  0.00    +0.044 C 
ENDBRANCH   1   4
BRANCH   2  12
ATOM     12  C   UNL     1      -0.706  -8.372   1.517  0.00  0.00    +0.037 A 
ATOM     13  C   UNL     1      -1.234  -9.156   0.487  0.00  0.00    +0.016 A 
ATOM     14  C   UNL     1      -0.764 -10.435   0.287  0.00  0.00    +0.046 A 
ATOM     15  C   UNL     1       0.234 -10.946   1.109  0.00  0.00    +0.120 A 
ATOM     16  C   UNL     1       0.762 -10.170   2.134  0.00  0.00    +0.046 A 
ATOM     17  C   UNL     1       0.301  -8.888   2.336  0.00  0.00    +0.016 A 
BRANCH  15  18
ATOM     18  O   UNL     1       0.695 -12.207   0.909  0.00  0.00    -0.495 OA
ATOM     19  C   UNL     1       1.721 -12.670   1.789  0.00  0.00    +0.277 C 
ENDBRANCH  15  18
ENDBRANCH   2  12
BRANCH   1  20
ATOM     20  C   UNL     1      -1.665  -5.098   3.185  0.00  0.00    +0.131 C 
BRANCH  20  29
ATOM     21  C   UNL     1      -1.266   2.032   3.075  0.00  0.00    +0.044 C 
ATOM     22  C   UNL     1      -0.862   0.654   2.619  0.00  0.00    -0.050 A 
ATOM     23  C   UNL     1      -0.269   0.496   1.366  0.00  0.00    +0.005 A 
ATOM     24  C   UNL     1       0.123  -0.714   0.887  0.00  0.00    +0.024 A 
ATOM     25  C   UNL     1      -0.059  -1.878   1.655  0.00  0.00    +0.040 A 
ATOM     26  N   UNL     1       0.329  -3.060   1.175  0.00  0.00    -0.284 N 
ATOM     27  C   UNL     1       0.187  -4.192   1.843  0.00  0.00    +0.226 C 
ATOM     28  O   UNL     1       0.561  -5.241   1.354  0.00  0.00    -0.275 OA
ATOM     29  C   UNL     1      -0.442  -4.178   3.219  0.00  0.00    +0.116 C 
ATOM     30  C   UNL     1      -0.885  -2.837   3.769  0.00  0.00    -0.003 C 
ATOM     31  C   UNL     1      -0.684  -1.742   2.982  0.00  0.00    -0.007 A 
ATOM     32  C   UNL     1      -1.077  -0.407   3.438  0.00  0.00    +0.012 A 
ATOM     33  H   UNL     1       0.735  -3.091   0.295  0.00  0.00    +0.155 HD
ENDBRANCH  20  29
ENDBRANCH   1  20
TORSDOF 5
