REMARK  Name = ZINC58272200
REMARK  8 active torsions:
REMARK  status: ('A' for Active; 'I' for Inactive)
REMARK    1  A    between atoms: C_1  and  C_2
REMARK    2  A    between atoms: C_6  and  N_9
REMARK    3  A    between atoms: C_7  and  C_8
REMARK    4  A    between atoms: N_12  and  C_15
REMARK    5  A    between atoms: C_15  and  C_17
REMARK    6  A    between atoms: C_15  and  C_18
REMARK    7  A    between atoms: N_20  and  C_21
REMARK    8  A    between atoms: C_22  and  C_26
REMARK                            x       y       z     vdW  Elec       q    Type
REMARK                         _______ _______ _______ _____ _____    ______ ____
ROOT
ATOM      1  C   UNL     1       0.065  -2.992   6.583  0.00  0.00    +0.140 C 
ATOM      2  C   UNL     1       0.111  -1.481   6.822  0.00  0.00    +0.034 C 
ENDROOT
BRANCH   1   6
ATOM      3  N   UNL     1       0.051  -2.796   2.390  0.00  0.00    -0.327 N 
ATOM      4  C   UNL     1      -1.203  -3.201   3.044  0.00  0.00    +0.120 C 
ATOM      5  C   UNL     1      -1.157  -2.746   4.507  0.00  0.00    +0.104 C 
ATOM      6  N   UNL     1       0.066  -3.259   5.138  0.00  0.00    -0.289 NA
ATOM      7  C   UNL     1       1.268  -2.704   4.501  0.00  0.00    +0.104 C 
ATOM      8  C   UNL     1       1.322  -3.162   3.035  0.00  0.00    +0.120 C 
BRANCH   3  14
ATOM      9  C   UNL     1      -0.018   1.503   0.010  0.00  0.00    +0.044 C 
ATOM     10  C   UNL     1       0.002  -0.004   0.002  0.00  0.00    -0.046 A 
ATOM     11  C   UNL     1       0.006  -0.688  -1.200  0.00  0.00    +0.004 A 
ATOM     12  C   UNL     1       0.024  -2.071  -1.212  0.00  0.00    +0.002 A 
ATOM     13  C   UNL     1       0.039  -2.773  -0.023  0.00  0.00    +0.023 A 
ATOM     14  C   UNL     1       0.036  -2.089   1.186  0.00  0.00    +0.033 A 
ATOM     15  C   UNL     1       0.023  -0.700   1.194  0.00  0.00    -0.027 A 
ATOM     16  C   UNL     1       0.025   0.046   2.504  0.00  0.00    +0.046 C 
ENDBRANCH   3  14
ENDBRANCH   1   6
BRANCH   1  17
ATOM     17  C   UNL     1       1.272  -3.637   7.214  0.00  0.00    +0.235 C 
ATOM     18  O   UNL     1       2.055  -4.259   6.528  0.00  0.00    -0.274 OA
ATOM     19  N   UNL     1       1.480  -3.524   8.541  0.00  0.00    -0.278 N 
ATOM     20  H   UNL     1       0.853  -3.027   9.089  0.00  0.00    +0.155 HD
BRANCH  19  21
ATOM     21  C   UNL     1       2.590  -4.118   9.121  0.00  0.00    +0.084 A 
ATOM     22  C   UNL     1       2.959  -4.111  10.459  0.00  0.00    +0.065 A 
ATOM     23  C   UNL     1       4.175  -4.815  10.797  0.00  0.00    +0.022 A 
ATOM     24  C   UNL     1       4.818  -5.402   9.770  0.00  0.00    +0.048 A 
ATOM     25  S   UNL     1       3.791  -5.016   8.369  0.00  0.00    -0.081 S 
BRANCH  22  26
ATOM     26  C   UNL     1       2.157  -3.425  11.476  0.00  0.00    +0.244 C 
ATOM     27  O   UNL     1       1.138  -2.841  11.156  0.00  0.00    -0.270 OA
ATOM     28  N   UNL     1       2.548  -3.441  12.766  0.00  0.00    -0.325 N 
ATOM     29  H   UNL     1       3.360  -3.906  13.021  0.00  0.00    +0.145 HD
ATOM     30  H   UNL     1       2.018  -2.986  13.439  0.00  0.00    +0.145 HD
ENDBRANCH  22  26
ENDBRANCH  19  21
ENDBRANCH   1  17
TORSDOF 5
