REMARK  Name = ZINC66758157
REMARK  5 active torsions:
REMARK  status: ('A' for Active; 'I' for Inactive)
REMARK    1  A    between atoms: C_1  and  C_2
REMARK    2  A    between atoms: C_5  and  C_30
REMARK    3  A    between atoms: C_14  and  C_16
REMARK    4  A    between atoms: N_21  and  C_23
REMARK    5  A    between atoms: C_26  and  C_29
REMARK                            x       y       z     vdW  Elec       q    Type
REMARK                         _______ _______ _______ _____ _____    ______ ____
ROOT
ATOM      1  C   UNL     1       0.220   2.097   0.289  0.00  0.00    +0.028 C 
ATOM      2  C   UNL     1       0.762   0.773  -0.252  0.00  0.00    +0.079 C 
ATOM      3  C   UNL     1       1.833   1.046  -1.317  0.00  0.00    +0.040 C 
ATOM      4  C   UNL     1       2.309  -0.288  -1.892  0.00  0.00    +0.108 C 
ATOM      5  C   UNL     1       2.701  -1.230  -0.785  0.00  0.00    -0.014 A 
ATOM      6  C   UNL     1       3.543  -2.291  -1.075  0.00  0.00    +0.006 A 
ATOM      7  C   UNL     1       3.919  -3.174  -0.082  0.00  0.00    +0.000 A 
ATOM      8  C   UNL     1       3.455  -3.004   1.210  0.00  0.00    +0.002 A 
ATOM      9  C   UNL     1       2.616  -1.949   1.508  0.00  0.00    +0.024 A 
ATOM     10  C   UNL     1       2.239  -1.058   0.510  0.00  0.00    +0.040 A 
ATOM     11  N   UNL     1       1.392   0.011   0.835  0.00  0.00    -0.268 N 
ATOM     12  C   UNL     1       1.161   0.336   2.122  0.00  0.00    +0.225 C 
ATOM     13  O   UNL     1       0.197   1.012   2.414  0.00  0.00    -0.275 OA
ENDROOT
BRANCH  12  14
ATOM     14  C   UNL     1       2.101  -0.140   3.200  0.00  0.00    +0.101 C 
ATOM     15  C   UNL     1       1.430  -1.216   4.084  0.00  0.00    +0.110 C 
ATOM     16  C   UNL     1       1.945  -0.926   5.477  0.00  0.00    +0.217 C 
ATOM     17  O   UNL     1       1.887  -1.695   6.413  0.00  0.00    -0.276 OA
ATOM     18  N   UNL     1       2.476   0.308   5.525  0.00  0.00    -0.298 N 
ATOM     19  C   UNL     1       2.380   0.982   4.224  0.00  0.00    +0.121 C 
BRANCH  18  20
ATOM     20  C   UNL     1       3.073   0.904   6.723  0.00  0.00    +0.076 C 
ATOM     21  C   UNL     1       4.251   0.044   7.187  0.00  0.00    +0.023 C 
ATOM     22  C   UNL     1       4.875   0.667   8.437  0.00  0.00    +0.005 C 
ATOM     23  C   UNL     1       3.826   0.738   9.549  0.00  0.00    -0.014 C 
ATOM     24  C   UNL     1       2.649   1.598   9.085  0.00  0.00    +0.005 C 
ATOM     25  C   UNL     1       2.025   0.976   7.835  0.00  0.00    +0.023 C 
ATOM     26  C   UNL     1       4.451   1.361  10.800  0.00  0.00    +0.007 C 
ENDBRANCH  18  20
ENDBRANCH  12  14
BRANCH   4  27
ATOM     27  C   UNL     1       3.499  -0.048  -2.785  0.00  0.00    +0.218 C 
ATOM     28  O   UNL     1       4.303   0.816  -2.505  0.00  0.00    -0.275 OA
ATOM     29  N   UNL     1       3.669  -0.793  -3.895  0.00  0.00    -0.329 N 
ATOM     30  H   UNL     1       2.990  -1.433  -4.159  0.00  0.00    +0.145 HD
ATOM     31  H   UNL     1       4.471  -0.688  -4.431  0.00  0.00    +0.145 HD
ENDBRANCH   4  27
TORSDOF 3
