REMARK  Name = ZINC06945003
REMARK  7 active torsions:
REMARK  status: ('A' for Active; 'I' for Inactive)
REMARK    1  A    between atoms: C_1  and  C_2
REMARK    2  A    between atoms: C_2  and  C_3
REMARK    3  A    between atoms: C_3  and  N_4
REMARK    4  A    between atoms: C_5  and  C_7
REMARK    5  A    between atoms: C_17  and  C_20
REMARK    6  A    between atoms: C_21  and  C_31
REMARK    7  A    between atoms: N_22  and  C_24
REMARK                            x       y       z     vdW  Elec       q    Type
REMARK                         _______ _______ _______ _____ _____    ______ ____
ROOT
ATOM      1  C   UNL     1      -2.289   4.353  -0.017  0.00  0.00    +0.092 C 
ATOM      2  C   UNL     1      -3.169   3.957  -1.206  0.00  0.00    +0.016 C 
ATOM      3  C   UNL     1      -3.366   2.438  -1.202  0.00  0.00    +0.020 C 
ATOM      4  C   UNL     1      -1.999   1.752  -1.258  0.00  0.00    +0.106 C 
ATOM      5  N   UNL     1      -1.196   2.162  -0.099  0.00  0.00    -0.311 N 
ATOM      6  C   UNL     1      -0.954   3.611  -0.107  0.00  0.00    +0.119 C 
ATOM      7  C   UNL     1      -0.003   1.459  -0.047  0.00  0.00    +0.172 A 
ATOM      8  C   UNL     1       0.009  -0.003  -0.030  0.00  0.00    +0.137 A 
ATOM      9  C   UNL     1       1.336  -0.648   0.019  0.00  0.00    +0.049 A 
ATOM     10  C   UNL     1       2.461   0.204   0.045  0.00  0.00    +0.072 A 
ATOM     11  N   UNL     1       2.289   1.501   0.024  0.00  0.00    -0.152 NA
ATOM     12  N   UNL     1       1.156   2.090  -0.018  0.00  0.00    -0.132 NA
ATOM     13  C   UNL     1       3.851  -0.375   0.096  0.00  0.00    +0.068 C 
ATOM     14  C   UNL     1       1.107  -2.006   0.028  0.00  0.00    +0.051 A 
ATOM     15  N   UNL     1      -0.223  -2.200  -0.011  0.00  0.00    -0.236 N 
ATOM     16  N   UNL     1      -0.884  -0.965  -0.047  0.00  0.00    -0.163 NA
ATOM     17  C   UNL     1       2.160  -3.083   0.074  0.00  0.00    +0.066 C 
ENDROOT
BRANCH  15  18
ATOM     18  C   UNL     1      -0.854  -3.451  -0.017  0.00  0.00    +0.066 A 
ATOM     19  C   UNL     1      -1.936  -3.681  -0.857  0.00  0.00    +0.029 A 
ATOM     20  C   UNL     1      -2.552  -4.916  -0.865  0.00  0.00    +0.022 A 
ATOM     21  C   UNL     1      -2.100  -5.922  -0.028  0.00  0.00    +0.041 A 
ATOM     22  C   UNL     1      -1.026  -5.694   0.814  0.00  0.00    +0.022 A 
ATOM     23  C   UNL     1      -0.403  -4.462   0.822  0.00  0.00    +0.029 A 
ATOM     24 CL   UNL     1      -2.882  -7.472  -0.035  0.00  0.00    -0.084 Cl
ENDBRANCH  15  18
BRANCH   1  26
ATOM     25  N   UNL     1      -3.079   6.697   0.020  0.00  0.00    -0.315 N 
ATOM     26  C   UNL     1      -2.042   5.839  -0.048  0.00  0.00    +0.218 C 
ATOM     27  O   UNL     1      -0.909   6.263  -0.132  0.00  0.00    -0.275 OA
ATOM     28  H   UNL     1      -3.985   6.357   0.088  0.00  0.00    +0.149 HD
BRANCH  25  29
ATOM     29  C   UNL     1      -2.838   8.141  -0.009  0.00  0.00    +0.104 C 
BRANCH  29  31
ATOM     30  C   UNL     1      -3.922  10.392   0.050  0.00  0.00    +0.005 C 
ATOM     31  C   UNL     1      -4.174   8.883   0.080  0.00  0.00    +0.015 C 
ENDBRANCH  29  31
ENDBRANCH  25  29
ENDBRANCH   1  26
TORSDOF 4
