REMARK  Name = ZINC35485970
REMARK  7 active torsions:
REMARK  status: ('A' for Active; 'I' for Inactive)
REMARK    1  A    between atoms: C_1  and  C_2
REMARK    2  A    between atoms: C_8  and  C_24
REMARK    3  A    between atoms: C_27  and  O_32
REMARK    4  A    between atoms: C_28  and  O_30
REMARK    5  A    between atoms: O_30  and  C_31
REMARK    6  A    between atoms: O_32  and  C_33
REMARK    7  A    between atoms: C_33  and  C_34
REMARK                            x       y       z     vdW  Elec       q    Type
REMARK                         _______ _______ _______ _____ _____    ______ ____
ROOT
ATOM      1  C   UNL     1      -0.018   1.503   0.010  0.00  0.00    +0.075 C 
ATOM      2  C   UNL     1       0.002  -0.004   0.002  0.00  0.00    +0.101 A 
ATOM      3  N   UNL     1       0.010  -0.846  -1.013  0.00  0.00    -0.145 NA
ATOM      4  N   UNL     1       0.028  -2.096  -0.848  0.00  0.00    -0.125 NA
ATOM      5  C   UNL     1       0.041  -2.642   0.360  0.00  0.00    +0.191 A 
ATOM      6  S   UNL     1       0.031  -1.162   1.367  0.00  0.00    -0.035 S 
ATOM      7  N   UNL     1       0.061  -3.979   0.736  0.00  0.00    -0.230 N 
ATOM      8  C   UNL     1       0.079  -5.134  -0.176  0.00  0.00    +0.152 C 
ATOM      9  C   UNL     1       0.094  -6.344   0.700  0.00  0.00    +0.072 A 
ATOM     10  C   UNL     1       0.105  -7.773   0.373  0.00  0.00    +0.199 A 
ATOM     11  O   UNL     1       0.281  -8.198  -0.756  0.00  0.00    -0.287 OA
ATOM     12  C   UNL     1      -0.117  -8.653   1.548  0.00  0.00    +0.067 A 
ATOM     13  C   UNL     1      -0.332 -10.021   1.374  0.00  0.00    +0.053 A 
ATOM     14  C   UNL     1      -0.542 -10.822   2.476  0.00  0.00    +0.124 A 
ATOM     15  C   UNL     1      -0.540 -10.268   3.750  0.00  0.00    +0.042 A 
ATOM     16  C   UNL     1      -0.327  -8.920   3.932  0.00  0.00    +0.050 A 
ATOM     17  C   UNL     1      -0.109  -8.089   2.833  0.00  0.00    +0.140 A 
ATOM     18  O   UNL     1       0.107  -6.770   3.042  0.00  0.00    -0.450 OA
ATOM     19  C   UNL     1       0.090  -5.918   1.998  0.00  0.00    +0.199 A 
ATOM     20  C   UNL     1       0.072  -4.446   2.002  0.00  0.00    +0.289 C 
ATOM     21  O   UNL     1       0.066  -3.752   2.999  0.00  0.00    -0.266 OA
ATOM     22  F   UNL     1      -0.751 -12.148   2.316  0.00  0.00    -0.205 F 
ENDROOT
BRANCH   8  23
ATOM     23  C   UNL     1      -1.154  -5.132  -1.042  0.00  0.00    -0.018 A 
ATOM     24  C   UNL     1      -2.371  -4.751  -0.508  0.00  0.00    +0.009 A 
ATOM     25  C   UNL     1      -3.505  -4.748  -1.299  0.00  0.00    +0.050 A 
ATOM     26  C   UNL     1      -3.424  -5.126  -2.629  0.00  0.00    +0.162 A 
ATOM     27  C   UNL     1      -2.199  -5.509  -3.167  0.00  0.00    +0.162 A 
ATOM     28  C   UNL     1      -1.065  -5.506  -2.370  0.00  0.00    +0.055 A 
BRANCH  27  29
ATOM     29  O   UNL     1      -2.113  -5.882  -4.472  0.00  0.00    -0.491 OA
ATOM     30  C   UNL     1      -0.824  -6.263  -4.955  0.00  0.00    +0.277 C 
ENDBRANCH  27  29
BRANCH  26  31
ATOM     31  O   UNL     1      -4.539  -5.124  -3.408  0.00  0.00    -0.484 OA
BRANCH  31  32
ATOM     32  C   UNL     1      -5.761  -4.719  -2.789  0.00  0.00    +0.256 C 
BRANCH  32  33
ATOM     33  C   UNL     1      -6.879  -4.779  -3.799  0.00  0.00    +0.006 C 
ATOM     34  C   UNL     1      -8.029  -5.314  -3.471  0.00  0.00    +0.007 C 
ENDBRANCH  32  33
ENDBRANCH  31  32
ENDBRANCH  26  31
ENDBRANCH   8  23
TORSDOF 5
