REMARK  Name = ZINC01171728
REMARK  9 active torsions:
REMARK  status: ('A' for Active; 'I' for Inactive)
REMARK    1  A    between atoms: C_1  and  C_2
REMARK    2  A    between atoms: C_2  and  C_3
REMARK    3  A    between atoms: C_6  and  C_8
REMARK    4  A    between atoms: C_10  and  C_31
REMARK    5  A    between atoms: C_11  and  N_30
REMARK    6  A    between atoms: N_12  and  C_22
REMARK    7  A    between atoms: C_18  and  C_20
REMARK    8  A    between atoms: C_18  and  C_21
REMARK    9  A    between atoms: C_27  and  C_28
REMARK                            x       y       z     vdW  Elec       q    Type
REMARK                         _______ _______ _______ _____ _____    ______ ____
ROOT
ATOM      1  C   UNL     1      -0.455  -4.285  -0.732  0.00  0.00    +0.104 C 
ATOM      2  C   UNL     1      -1.837  -4.854  -0.611  0.00  0.00    +0.077 C 
ATOM      3  C   UNL     1      -2.829  -4.162   0.007  0.00  0.00    +0.107 C 
ATOM      4  N   UNL     1      -2.579  -2.912   0.528  0.00  0.00    -0.259 N 
ATOM      5  C   UNL     1      -1.497  -2.186   0.102  0.00  0.00    +0.025 C 
ATOM      6  C   UNL     1      -0.457  -2.794  -0.507  0.00  0.00    +0.026 C 
ATOM      7  C   UNL     1       0.658  -2.057  -0.945  0.00  0.00    +0.162 C 
ATOM      8  O   UNL     1       1.569  -2.632  -1.506  0.00  0.00    -0.292 OA
ATOM      9  C   UNL     1       0.747  -0.570  -0.729  0.00  0.00    +0.086 C 
ATOM     10  C   UNL     1      -0.066  -0.199   0.516  0.00  0.00    -0.023 C 
ATOM     11  C   UNL     1      -1.501  -0.694   0.328  0.00  0.00    +0.058 C 
ATOM     12  C   UNL     1      -0.065   1.321   0.695  0.00  0.00    +0.011 C 
ATOM     13  C   UNL     1       0.551  -0.862   1.749  0.00  0.00    +0.011 C 
ENDROOT
BRANCH   4  14
ATOM     14  C   UNL     1      -3.432  -2.381   1.494  0.00  0.00    +0.057 A 
ATOM     15  C   UNL     1      -3.172  -2.585   2.842  0.00  0.00    +0.025 A 
ATOM     16  C   UNL     1      -4.018  -2.059   3.798  0.00  0.00    +0.002 A 
ATOM     17  C   UNL     1      -5.131  -1.325   3.421  0.00  0.00    +0.001 A 
ATOM     18  C   UNL     1      -5.405  -1.111   2.087  0.00  0.00    +0.021 A 
ATOM     19  C   UNL     1      -4.555  -1.633   1.109  0.00  0.00    +0.073 A 
BRANCH  19  20
ATOM     20  C   UNL     1      -4.831  -1.411  -0.278  0.00  0.00    +0.101 C 
ATOM     21  N   UNL     1      -5.050  -1.235  -1.379  0.00  0.00    -0.191 NA
ENDBRANCH  19  20
ENDBRANCH   4  14
BRANCH   1  25
ATOM     22  C   UNL     1       1.740  -5.928   2.435  0.00  0.00    -0.010 A 
ATOM     23  C   UNL     1       2.232  -6.175   1.196  0.00  0.00    +0.011 A 
ATOM     24  C   UNL     1       1.565  -5.668   0.097  0.00  0.00    +0.012 A 
ATOM     25  C   UNL     1       0.440  -4.938   0.290  0.00  0.00    +0.003 A 
ATOM     26  S   UNL     1       0.295  -4.945   2.069  0.00  0.00    -0.097 S 
BRANCH  22  28
ATOM     27  C   UNL     1       3.251  -5.309   4.301  0.00  0.00    +0.009 C 
ATOM     28  C   UNL     1       2.277  -6.364   3.774  0.00  0.00    +0.039 C 
ENDBRANCH  22  28
ENDBRANCH   1  25
BRANCH   3  29
ATOM     29  N   UNL     1      -4.085  -4.710   0.112  0.00  0.00    -0.345 N 
ATOM     30  H   UNL     1      -4.795  -4.217   0.553  0.00  0.00    +0.144 HD
ATOM     31  H   UNL     1      -4.263  -5.591  -0.254  0.00  0.00    +0.144 HD
ENDBRANCH   3  29
BRANCH   2  32
ATOM     32  C   UNL     1      -2.116  -6.149  -1.156  0.00  0.00    +0.099 C 
ATOM     33  N   UNL     1      -2.337  -7.176  -1.588  0.00  0.00    -0.191 NA
ENDBRANCH   2  32
TORSDOF 6
