REMARK  Name = ZINC63112034
REMARK  11 active torsions:
REMARK  status: ('A' for Active; 'I' for Inactive)
REMARK    1  A    between atoms: C_1  and  C_2
REMARK    2  A    between atoms: C_6  and  C_8
REMARK    3  A    between atoms: C_8  and  C_10
REMARK    4  A    between atoms: C_8  and  N_34
REMARK    5  A    between atoms: C_10  and  C_11
REMARK    6  A    between atoms: N_13  and  C_14
REMARK    7  A    between atoms: C_14  and  C_15
REMARK    8  A    between atoms: C_15  and  C_17
REMARK    9  A    between atoms: C_15  and  C_25
REMARK   10  A    between atoms: C_20  and  O_23
REMARK   11  A    between atoms: O_23  and  C_24
REMARK                            x       y       z     vdW  Elec       q    Type
REMARK                         _______ _______ _______ _____ _____    ______ ____
ROOT
ATOM      1  C   UNL     1       1.363  -3.947   4.282  0.00  0.00    +0.215 C 
ATOM      2  O   UNL     1       0.320  -3.912   4.902  0.00  0.00    -0.276 OA
ATOM      3  N   UNL     1       2.463  -4.486   4.845  0.00  0.00    -0.314 N 
ATOM      4  H   UNL     1       3.296  -4.514   4.350  0.00  0.00    +0.149 HD
ENDROOT
BRANCH   1   5
ATOM      5  C   UNL     1       1.427  -3.390   2.884  0.00  0.00    +0.122 C 
BRANCH   5   6
ATOM      6  C   UNL     1       0.054  -2.845   2.488  0.00  0.00    +0.113 C 
BRANCH   6  12
ATOM      7  C   UNL     1       0.471  -3.170  -2.488  0.00  0.00    +0.044 C 
ATOM      8  C   UNL     1       0.348  -2.333  -1.241  0.00  0.00    -0.050 A 
ATOM      9  C   UNL     1       0.321  -0.954  -1.333  0.00  0.00    +0.003 A 
ATOM     10  C   UNL     1       0.208  -0.187  -0.189  0.00  0.00    +0.001 A 
ATOM     11  C   UNL     1       0.121  -0.799   1.048  0.00  0.00    +0.005 A 
ATOM     12  C   UNL     1       0.147  -2.178   1.140  0.00  0.00    -0.026 A 
ATOM     13  C   UNL     1       0.256  -2.945  -0.005  0.00  0.00    +0.008 A 
ENDBRANCH   6  12
BRANCH   6  14
ATOM     14  N   UNL     1      -0.909  -3.947   2.422  0.00  0.00    -0.292 N 
ATOM     15  C   UNL     1      -2.221  -3.708   2.617  0.00  0.00    +0.298 C 
ATOM     16  O   UNL     1      -2.617  -2.567   2.758  0.00  0.00    -0.253 OA
ATOM     17  N   UNL     1      -3.094  -4.734   2.656  0.00  0.00    -0.313 N 
ATOM     18  H   UNL     1      -0.602  -4.848   2.238  0.00  0.00    +0.151 HD
ATOM     19  H   UNL     1      -2.778  -5.644   2.544  0.00  0.00    +0.146 HD
ATOM     20  H   UNL     1      -4.038  -4.562   2.797  0.00  0.00    +0.146 HD
ENDBRANCH   6  14
ENDBRANCH   5   6
ENDBRANCH   1   5
BRANCH   3  21
ATOM     21  C   UNL     1       2.400  -5.027   6.205  0.00  0.00    +0.116 C 
BRANCH  21  22
ATOM     22  C   UNL     1       3.773  -5.573   6.600  0.00  0.00    +0.064 C 
BRANCH  22  23
ATOM     23  C   UNL     1       4.121  -6.746   5.720  0.00  0.00    -0.033 C 
ATOM     24  C   UNL     1       5.188  -6.856   4.897  0.00  0.00    -0.000 A 
ATOM     25  C   UNL     1       6.302  -5.952   4.586  0.00  0.00    +0.010 A 
ATOM     26  C   UNL     1       7.242  -6.350   3.699  0.00  0.00    +0.001 A 
ATOM     27  C   UNL     1       7.179  -7.601   3.069  0.00  0.00    +0.002 A 
ATOM     28  C   UNL     1       6.186  -8.486   3.303  0.00  0.00    +0.026 A 
ATOM     29  C   UNL     1       5.145  -8.172   4.219  0.00  0.00    +0.043 A 
ATOM     30  N   UNL     1       4.091  -8.848   4.608  0.00  0.00    -0.380 N 
ATOM     31  C   UNL     1       3.350  -8.040   5.582  0.00  0.00    +0.145 C 
ATOM     32  H   UNL     1       3.845  -9.736   4.306  0.00  0.00    +0.160 HD
ENDBRANCH  22  23
BRANCH  22  33
ATOM     33  C   UNL     1       3.741  -6.018   8.040  0.00  0.00    -0.038 A 
ATOM     34  C   UNL     1       2.865  -7.012   8.436  0.00  0.00    +0.008 A 
ATOM     35  C   UNL     1       2.833  -7.421   9.755  0.00  0.00    +0.046 A 
ATOM     36  C   UNL     1       3.683  -6.835  10.682  0.00  0.00    +0.120 A 
ATOM     37  C   UNL     1       4.561  -5.839  10.282  0.00  0.00    +0.046 A 
ATOM     38  C   UNL     1       4.593  -5.436   8.961  0.00  0.00    +0.008 A 
BRANCH  36  39
ATOM     39  O   UNL     1       3.653  -7.236  11.981  0.00  0.00    -0.495 OA
ATOM     40  C   UNL     1       4.555  -6.588  12.880  0.00  0.00    +0.277 C 
ENDBRANCH  36  39
ENDBRANCH  22  33
ENDBRANCH  21  22
ENDBRANCH   3  21
TORSDOF 9
