REMARK  Name = ZINC59911172
REMARK  15 active torsions:
REMARK  status: ('A' for Active; 'I' for Inactive)
REMARK    1  A    between atoms: C_1  and  C_2
REMARK    2  A    between atoms: C_5  and  N_9
REMARK    3  A    between atoms: C_6  and  C_8
REMARK    4  A    between atoms: N_9  and  S_10
REMARK    5  A    between atoms: S_10  and  C_13
REMARK    6  A    between atoms: C_16  and  N_19
REMARK    7  A    between atoms: C_20  and  C_22
REMARK    8  A    between atoms: C_22  and  C_23
REMARK    9  A    between atoms: C_23  and  S_24
REMARK   10  A    between atoms: S_24  and  C_25
REMARK   11  A    between atoms: C_28  and  C_33
REMARK   12  A    between atoms: N_29  and  C_30
REMARK   13  A    between atoms: C_30  and  C_31
REMARK   14  A    between atoms: C_33  and  C_34
REMARK   15  A    between atoms: C_33  and  C_35
REMARK                            x       y       z     vdW  Elec       q    Type
REMARK                         _______ _______ _______ _____ _____    ______ ____
ROOT
ATOM      1  C   UNL     1       2.438  -4.473  -0.936  0.00  0.00    +0.109 A 
ATOM      2  C   UNL     1       3.120  -4.775   0.229  0.00  0.00    +0.030 A 
ATOM      3  C   UNL     1       4.435  -4.382   0.383  0.00  0.00    +0.025 A 
ATOM      4  C   UNL     1       5.073  -3.683  -0.633  0.00  0.00    +0.033 A 
ATOM      5  C   UNL     1       4.386  -3.382  -1.802  0.00  0.00    +0.025 A 
ATOM      6  C   UNL     1       3.073  -3.783  -1.952  0.00  0.00    +0.030 A 
ENDROOT
BRANCH   4   7
ATOM      7  N   UNL     1       6.405  -3.283  -0.479  0.00  0.00    -0.285 N 
ATOM      8  C   UNL     1       7.271  -4.068   0.191  0.00  0.00    +0.218 C 
ATOM      9  O   UNL     1       6.879  -5.080   0.733  0.00  0.00    -0.275 OA
ATOM     10  H   UNL     1       6.705  -2.441  -0.855  0.00  0.00    +0.155 HD
BRANCH   8  11
ATOM     11  C   UNL     1       8.728  -3.689   0.267  0.00  0.00    +0.107 C 
BRANCH  11  12
ATOM     12  C   UNL     1       9.487  -4.741   1.079  0.00  0.00    +0.086 C 
BRANCH  12  13
ATOM     13  S   UNL     1      11.240  -4.284   1.171  0.00  0.00    -0.086 S 
BRANCH  13  14
ATOM     14  C   UNL     1      11.967  -5.575   2.124  0.00  0.00    +0.192 A 
ATOM     15  N   UNL     1      11.347  -6.617   2.629  0.00  0.00    -0.122 NA
ATOM     16  N   UNL     1      12.184  -7.356   3.267  0.00  0.00    -0.133 NA
ATOM     17  C   UNL     1      13.377  -6.835   3.208  0.00  0.00    +0.137 A 
ATOM     18  N   UNL     1      13.283  -5.685   2.473  0.00  0.00    -0.302 N 
BRANCH  17  19
ATOM     19  C   UNL     1      14.629  -7.398   3.829  0.00  0.00    +0.051 C 
ATOM     20  C   UNL     1      14.445  -7.502   5.344  0.00  0.00    +0.015 C 
ATOM     21  C   UNL     1      14.903  -8.788   3.251  0.00  0.00    +0.015 C 
ENDBRANCH  17  19
BRANCH  18  22
ATOM     22  C   UNL     1      14.368  -4.761   2.133  0.00  0.00    +0.152 C 
BRANCH  22  23
ATOM     23  C   UNL     1      14.486  -3.710   3.206  0.00  0.00    -0.013 C 
ATOM     24  C   UNL     1      15.633  -3.516   3.809  0.00  0.00    +0.005 C 
ENDBRANCH  22  23
ENDBRANCH  18  22
ENDBRANCH  13  14
ENDBRANCH  12  13
ENDBRANCH  11  12
ENDBRANCH   8  11
ENDBRANCH   4   7
BRANCH   1  25
ATOM     25  S   UNL     1       0.761  -4.977  -1.129  0.00  0.00    +0.072 S 
ATOM     26  O   UNL     1       0.183  -4.103  -2.089  0.00  0.00    -0.150 OA
ATOM     27  O   UNL     1       0.230  -5.130   0.180  0.00  0.00    -0.150 OA
BRANCH  25  28
ATOM     28  N   UNL     1       0.778  -6.486  -1.812  0.00  0.00    -0.216 N 
ATOM     29  H   UNL     1       0.350  -6.635  -2.670  0.00  0.00    +0.174 HD
BRANCH  28  34
ATOM     30  C   UNL     1       3.337 -10.781   0.863  0.00  0.00    +0.044 C 
ATOM     31  C   UNL     1       2.657  -9.639   0.152  0.00  0.00    -0.050 A 
ATOM     32  C   UNL     1       1.991  -8.671   0.881  0.00  0.00    +0.005 A 
ATOM     33  C   UNL     1       1.367  -7.624   0.233  0.00  0.00    +0.025 A 
ATOM     34  C   UNL     1       1.409  -7.543  -1.153  0.00  0.00    +0.051 A 
ATOM     35  C   UNL     1       2.079  -8.517  -1.883  0.00  0.00    -0.028 A 
ATOM     36  C   UNL     1       2.706  -9.559  -1.228  0.00  0.00    +0.008 A 
ATOM     37  C   UNL     1       2.126  -8.434  -3.387  0.00  0.00    +0.046 C 
ENDBRANCH  28  34
ENDBRANCH  25  28
ENDBRANCH   1  25
TORSDOF 11
