REMARK  Name = ZINC58366719
REMARK  6 active torsions:
REMARK  status: ('A' for Active; 'I' for Inactive)
REMARK    1  A    between atoms: C_1  and  C_2
REMARK    2  A    between atoms: C_3  and  N_9
REMARK    3  A    between atoms: C_4  and  C_8
REMARK    4  A    between atoms: C_10  and  C_12
REMARK    5  A    between atoms: C_12  and  C_13
REMARK    6  A    between atoms: C_13  and  N_14
REMARK                            x       y       z     vdW  Elec       q    Type
REMARK                         _______ _______ _______ _____ _____    ______ ____
ROOT
ATOM      1  C   UNL     1       0.909  -1.299  -5.807  0.00  0.00    +0.120 C 
ENDROOT
BRANCH   1   2
ATOM      2  N   UNL     1       0.971  -0.695  -7.140  0.00  0.00    -0.298 N 
ATOM      3  C   UNL     1      -0.157  -0.754  -7.966  0.00  0.00    +0.048 A 
ATOM      4  C   UNL     1      -0.957  -1.886  -7.978  0.00  0.00    +0.024 A 
ATOM      5  C   UNL     1      -2.070  -1.938  -8.799  0.00  0.00    +0.002 A 
ATOM      6  C   UNL     1      -2.393  -0.866  -9.609  0.00  0.00    +0.001 A 
ATOM      7  C   UNL     1      -1.601   0.271  -9.605  0.00  0.00    +0.017 A 
ATOM      8  C   UNL     1      -0.488   0.327  -8.787  0.00  0.00    +0.034 A 
ATOM      9  S   UNL     1       0.541   1.762  -8.759  0.00  0.00    -0.086 S 
ATOM     10  C   UNL     1       2.114   1.089  -8.322  0.00  0.00    +0.034 A 
ATOM     11  C   UNL     1       2.154  -0.072  -7.550  0.00  0.00    +0.048 A 
ATOM     12  C   UNL     1       3.384  -0.605  -7.197  0.00  0.00    +0.024 A 
ATOM     13  C   UNL     1       4.551   0.017  -7.608  0.00  0.00    +0.002 A 
ATOM     14  C   UNL     1       4.500   1.168  -8.370  0.00  0.00    +0.001 A 
ATOM     15  C   UNL     1       3.283   1.701  -8.731  0.00  0.00    +0.017 A 
ENDBRANCH   1   2
BRANCH   1  16
ATOM     16  C   UNL     1       0.417  -0.259  -4.798  0.00  0.00    +0.115 C 
BRANCH  16  18
ATOM     17  N   UNL     1      -0.056  -0.145  -2.373  0.00  0.00    -0.283 N 
ATOM     18  C   UNL     1       0.353  -0.879  -3.427  0.00  0.00    +0.219 C 
ATOM     19  O   UNL     1       0.670  -2.040  -3.271  0.00  0.00    -0.275 OA
ATOM     20  H   UNL     1      -0.381   0.759  -2.509  0.00  0.00    +0.155 HD
BRANCH  17  23
ATOM     21  C   UNL     1       2.046   0.576  -0.244  0.00  0.00    +0.067 C 
ATOM     22  C   UNL     1       0.900  -0.394  -0.115  0.00  0.00    +0.054 A 
ATOM     23  C   UNL     1      -0.012  -0.690  -1.076  0.00  0.00    +0.077 A 
ATOM     24  C   UNL     1      -0.902  -1.636  -0.547  0.00  0.00    +0.081 A 
ATOM     25  N   UNL     1      -0.541  -1.897   0.683  0.00  0.00    -0.177 NA
ATOM     26  N   UNL     1       0.595  -1.134   0.982  0.00  0.00    -0.280 N 
ATOM     27  H   UNL     1       1.077  -1.133   1.823  0.00  0.00    +0.189 HD
ATOM     28  C   UNL     1      -2.075  -2.245  -1.271  0.00  0.00    +0.069 C 
ENDBRANCH  17  23
ENDBRANCH  16  18
ENDBRANCH   1  16
TORSDOF 4
