REMARK  Name = ZINC36558432
REMARK  17 active torsions:
REMARK  status: ('A' for Active; 'I' for Inactive)
REMARK    1  A    between atoms: C_1  and  C_2
REMARK    2  A    between atoms: C_2  and  C_3
REMARK    3  A    between atoms: C_3  and  C_4
REMARK    4  A    between atoms: C_4  and  N_5
REMARK    5  A    between atoms: C_6  and  C_8
REMARK    6  A    between atoms: C_8  and  C_10
REMARK    7  A    between atoms: C_8  and  N_19
REMARK    8  A    between atoms: C_11  and  O_18
REMARK    9  A    between atoms: C_13  and  O_17
REMARK   10  A    between atoms: C_15  and  O_16
REMARK   11  A    between atoms: N_19  and  C_20
REMARK   12  A    between atoms: C_20  and  C_21
REMARK   13  A    between atoms: C_24  and  C_26
REMARK   14  A    between atoms: C_27  and  C_29
REMARK   15  A    between atoms: C_29  and  C_31
REMARK   16  A    between atoms: C_29  and  C_33
REMARK   17  A    between atoms: C_31  and  C_32
REMARK                            x       y       z     vdW  Elec       q    Type
REMARK                         _______ _______ _______ _____ _____    ______ ____
ROOT
ATOM      1  C   UNL     1      -4.558  -4.849  -0.021  0.00  0.00    +0.200 C 
ENDROOT
BRANCH   1   2
ATOM      2  C   UNL     1      -5.972  -4.576  -0.465  0.00  0.00    +0.065 A 
ATOM      3  C   UNL     1      -6.610  -5.454  -1.328  0.00  0.00    +0.129 A 
ATOM      4  C   UNL     1      -7.911  -5.202  -1.736  0.00  0.00    +0.091 A 
ATOM      5  C   UNL     1      -8.574  -4.073  -1.280  0.00  0.00    +0.124 A 
ATOM      6  C   UNL     1      -7.937  -3.196  -0.416  0.00  0.00    +0.091 A 
ATOM      7  C   UNL     1      -6.637  -3.450  -0.005  0.00  0.00    +0.129 A 
BRANCH   7   8
ATOM      8  O   UNL     1      -6.014  -2.592   0.846  0.00  0.00    -0.506 OA
ATOM      9  H   UNL     1      -5.529  -1.883   0.403  0.00  0.00    +0.292 HD
ENDBRANCH   7   8
BRANCH   5  10
ATOM     10  O   UNL     1      -9.849  -3.826  -1.681  0.00  0.00    -0.507 OA
ATOM     11  H   UNL     1     -10.524  -4.213  -1.107  0.00  0.00    +0.292 HD
ENDBRANCH   5  10
BRANCH   3  12
ATOM     12  O   UNL     1      -5.959  -6.561  -1.775  0.00  0.00    -0.506 OA
ATOM     13  H   UNL     1      -6.002  -7.313  -1.169  0.00  0.00    +0.292 HD
ENDBRANCH   3  12
ENDBRANCH   1   2
BRANCH   1  15
ATOM     14  N   UNL     1      -3.708  -3.795  -2.091  0.00  0.00    -0.313 N 
ATOM     15  C   UNL     1      -3.641  -4.819  -1.217  0.00  0.00    +0.238 C 
ATOM     16  O   UNL     1      -2.844  -5.715  -1.393  0.00  0.00    -0.273 OA
ATOM     17  H   UNL     1      -4.346  -3.078  -1.950  0.00  0.00    +0.149 HD
BRANCH  14  18
ATOM     18  C   UNL     1      -2.817  -3.766  -3.254  0.00  0.00    +0.104 C 
BRANCH  18  19
ATOM     19  C   UNL     1      -3.096  -2.507  -4.078  0.00  0.00    +0.018 C 
BRANCH  19  21
ATOM     20  C   UNL     1      -2.445  -1.218  -6.116  0.00  0.00    +0.004 C 
ATOM     21  C   UNL     1      -2.166  -2.476  -5.292  0.00  0.00    -0.002 C 
ENDBRANCH  19  21
ENDBRANCH  18  19
ENDBRANCH  14  18
ENDBRANCH   1  15
BRANCH   1  22
ATOM     22  N   UNL     1      -4.491  -6.169   0.612  0.00  0.00    -0.278 N 
ATOM     23  C   UNL     1      -4.961  -6.341   1.863  0.00  0.00    +0.224 C 
ATOM     24  O   UNL     1      -5.536  -5.433   2.425  0.00  0.00    -0.275 OA
BRANCH  22  25
ATOM     25  C   UNL     1      -3.913  -7.302  -0.116  0.00  0.00    +0.183 C 
BRANCH  25  26
ATOM     26  C   UNL     1      -2.486  -7.507   0.326  0.00  0.00    +0.122 A 
ATOM     27  C   UNL     1      -2.043  -8.498   1.119  0.00  0.00    +0.046 A 
ATOM     28  C   UNL     1      -0.651  -8.308   1.273  0.00  0.00    +0.045 A 
ATOM     29  C   UNL     1      -0.327  -7.212   0.565  0.00  0.00    +0.102 A 
ATOM     30  O   UNL     1      -1.441  -6.734  -0.012  0.00  0.00    -0.463 OA
ATOM     31  C   UNL     1       1.055  -6.623   0.435  0.00  0.00    +0.086 C 
ENDBRANCH  25  26
ENDBRANCH  22  25
BRANCH  23  32
ATOM     32  C   UNL     1      -4.772  -7.662   2.564  0.00  0.00    +0.105 C 
BRANCH  32  33
ATOM     33  C   UNL     1      -4.163  -7.427   3.922  0.00  0.00    -0.036 A 
ATOM     34  C   UNL     1      -4.830  -6.655   4.855  0.00  0.00    +0.004 A 
ATOM     35  C   UNL     1      -4.272  -6.440   6.101  0.00  0.00    +0.000 A 
ATOM     36  C   UNL     1      -3.046  -6.996   6.414  0.00  0.00    +0.000 A 
ATOM     37  C   UNL     1      -2.378  -7.768   5.482  0.00  0.00    +0.000 A 
ATOM     38  C   UNL     1      -2.939  -7.987   4.237  0.00  0.00    +0.004 A 
ENDBRANCH  32  33
BRANCH  32  39
ATOM     39  C   UNL     1      -6.128  -8.351   2.726  0.00  0.00    +0.014 C 
ATOM     40  C   UNL     1      -6.655  -8.769   1.352  0.00  0.00    +0.005 C 
ENDBRANCH  32  39
ENDBRANCH  23  32
ENDBRANCH   1  22
TORSDOF 14
