REMARK  Name = ZINC12659222
REMARK  8 active torsions:
REMARK  status: ('A' for Active; 'I' for Inactive)
REMARK    1  A    between atoms: C_1  and  C_2
REMARK    2  A    between atoms: C_2  and  C_3
REMARK    3  A    between atoms: C_2  and  O_4
REMARK    4  A    between atoms: O_4  and  C_5
REMARK    5  A    between atoms: C_8  and  C_11
REMARK    6  A    between atoms: C_12  and  C_13
REMARK    7  A    between atoms: C_12  and  N_16
REMARK    8  A    between atoms: C_17  and  C_19
REMARK                            x       y       z     vdW  Elec       q    Type
REMARK                         _______ _______ _______ _____ _____    ______ ____
ROOT
ATOM      1  C   UNL     1       2.352   1.022  -0.018  0.00  0.00    +0.036 C 
ATOM      2  C   UNL     1       1.157   1.653  -0.096  0.00  0.00    +0.096 C 
ENDROOT
BRANCH   1   6
ATOM      3  C   UNL     1       2.517  -3.215   0.041  0.00  0.00    +0.121 A 
ATOM      4  C   UNL     1       3.589  -2.488  -0.462  0.00  0.00    +0.046 A 
ATOM      5  C   UNL     1       3.541  -1.112  -0.484  0.00  0.00    +0.011 A 
ATOM      6  C   UNL     1       2.409  -0.446   0.002  0.00  0.00    -0.023 A 
ATOM      7  C   UNL     1       1.335  -1.184   0.512  0.00  0.00    +0.011 A 
ATOM      8  C   UNL     1       1.391  -2.559   0.525  0.00  0.00    +0.046 A 
BRANCH   3   9
ATOM      9  O   UNL     1       2.570  -4.572   0.061  0.00  0.00    -0.489 OA
BRANCH   9  11
ATOM     10  C   UNL     1       3.916  -6.565   0.303  0.00  0.00    +0.051 C 
ATOM     11  C   UNL     1       3.802  -5.179  -0.336  0.00  0.00    +0.167 C 
ATOM     12  C   UNL     1       3.836  -5.315  -1.859  0.00  0.00    +0.051 C 
ENDBRANCH   9  11
ENDBRANCH   3   9
ENDBRANCH   1   6
BRANCH   2  13
ATOM     13  C   UNL     1       1.086   3.113   0.038  0.00  0.00    +0.256 C 
ATOM     14  O   UNL     1       2.084   3.747   0.328  0.00  0.00    -0.269 OA
ATOM     15  N   UNL     1      -0.084   3.753  -0.159  0.00  0.00    -0.324 N 
ATOM     16  H   UNL     1      -0.894   3.243  -0.320  0.00  0.00    +0.145 HD
ATOM     17  H   UNL     1      -0.116   4.722  -0.139  0.00  0.00    +0.145 HD
ENDBRANCH   2  13
BRANCH   2  18
ATOM     18  N   UNL     1      -0.012   0.912  -0.305  0.00  0.00    -0.277 N 
ATOM     19  C   UNL     1      -1.028   0.994   0.576  0.00  0.00    +0.249 C 
ATOM     20  O   UNL     1      -0.962   1.770   1.510  0.00  0.00    -0.270 OA
ATOM     21  H   UNL     1      -0.092   0.343  -1.087  0.00  0.00    +0.155 HD
BRANCH  19  22
ATOM     22  C   UNL     1      -2.223   0.141   0.408  0.00  0.00    +0.051 A 
ATOM     23  C   UNL     1      -2.305  -0.747  -0.666  0.00  0.00    +0.014 A 
ATOM     24  C   UNL     1      -3.420  -1.544  -0.815  0.00  0.00    +0.001 A 
ATOM     25  C   UNL     1      -4.462  -1.459   0.092  0.00  0.00    +0.001 A 
ATOM     26  C   UNL     1      -4.391  -0.578   1.156  0.00  0.00    +0.016 A 
ATOM     27  C   UNL     1      -3.278   0.222   1.320  0.00  0.00    +0.030 A 
ATOM     28 BR   UNL     1      -3.182   1.427   2.775  0.00  0.00    -0.050 Br
ENDBRANCH  19  22
ENDBRANCH   2  18
TORSDOF 6
