REMARK  Name = ZINC20827019
REMARK  9 active torsions:
REMARK  status: ('A' for Active; 'I' for Inactive)
REMARK    1  A    between atoms: C_1  and  O_2
REMARK    2  A    between atoms: O_2  and  C_3
REMARK    3  A    between atoms: C_6  and  C_17
REMARK    4  A    between atoms: C_8  and  C_9
REMARK    5  A    between atoms: C_9  and  O_10
REMARK    6  A    between atoms: O_10  and  C_11
REMARK    7  A    between atoms: N_18  and  N_19
REMARK    8  A    between atoms: C_20  and  C_22
REMARK    9  A    between atoms: C_24  and  N_30
REMARK                            x       y       z     vdW  Elec       q    Type
REMARK                         _______ _______ _______ _____ _____    ______ ____
ROOT
ATOM      1  C   UNL     1      -1.533   9.823   0.070  0.00  0.00    +0.138 C 
ATOM      2  N   UNL     1      -1.662  11.114   0.079  0.00  0.00    -0.187 NA
ENDROOT
BRANCH   1   6
ATOM      3  C   UNL     1       2.336   8.077   0.025  0.00  0.00    +0.127 A 
ATOM      4  C   UNL     1       2.200   9.459   0.034  0.00  0.00    +0.046 A 
ATOM      5  C   UNL     1       0.947  10.030   0.048  0.00  0.00    +0.013 A 
ATOM      6  C   UNL     1      -0.190   9.216   0.054  0.00  0.00    -0.005 A 
ATOM      7  C   UNL     1      -0.048   7.826   0.040  0.00  0.00    +0.020 A 
ATOM      8  C   UNL     1       1.210   7.264   0.031  0.00  0.00    +0.032 A 
BRANCH   3  10
ATOM      9  C   UNL     1       4.689   8.412   0.005  0.00  0.00    +0.277 C 
ATOM     10  O   UNL     1       3.574   7.518   0.011  0.00  0.00    -0.495 OA
ENDBRANCH   3  10
BRANCH   8  11
ATOM     11  C   UNL     1       1.364   5.765   0.021  0.00  0.00    +0.270 C 
BRANCH  11  12
ATOM     12  O   UNL     1       0.072   5.153   0.030  0.00  0.00    -0.471 OA
BRANCH  12  13
ATOM     13  C   UNL     1       0.033   3.797   0.022  0.00  0.00    +0.215 A 
ATOM     14  C   UNL     1      -1.194   3.144   0.030  0.00  0.00    +0.067 A 
ATOM     15  C   UNL     1      -1.220   1.761   0.017  0.00  0.00    +0.007 A 
ATOM     16  C   UNL     1      -0.013   1.076   0.008  0.00  0.00    +0.020 A 
ATOM     17  C   UNL     1       1.169   1.790   0.001  0.00  0.00    +0.114 A 
ATOM     18  N   UNL     1       1.162   3.109   0.008  0.00  0.00    -0.221 NA
ENDBRANCH  12  13
ENDBRANCH  11  12
ENDBRANCH   8  11
ENDBRANCH   1   6
BRANCH   2  19
ATOM     19  N   UNL     1      -2.939  11.691   0.094  0.00  0.00    -0.202 N 
ATOM     20  C   UNL     1      -3.073  13.032   0.103  0.00  0.00    +0.283 C 
ATOM     21  O   UNL     1      -2.086  13.742   0.097  0.00  0.00    -0.267 OA
ATOM     22  H   UNL     1      -3.832  11.049   0.099  0.00  0.00    +0.178 HD
BRANCH  20  23
ATOM     23  C   UNL     1      -4.422  13.640   0.119  0.00  0.00    +0.149 A 
ATOM     24  C   UNL     1      -4.553  15.026   0.133  0.00  0.00    +0.094 A 
ATOM     25  C   UNL     1      -5.832  15.584   0.143  0.00  0.00    +0.067 A 
ATOM     26  C   UNL     1      -6.929  14.725   0.148  0.00  0.00    +0.100 A 
ATOM     27  C   UNL     1      -6.717  13.355   0.139  0.00  0.00    +0.150 A 
ATOM     28  N   UNL     1      -5.497  12.858   0.125  0.00  0.00    -0.228 NA
ATOM     29 CL   UNL     1      -8.079  12.279   0.146  0.00  0.00    -0.060 Cl
ATOM     30 CL   UNL     1      -8.543  15.362   0.168  0.00  0.00    -0.078 Cl
ATOM     31 CL   UNL     1      -3.147  16.044   0.133  0.00  0.00    -0.079 Cl
BRANCH  25  32
ATOM     32  N   UNL     1      -6.008  16.967   0.152  0.00  0.00    -0.356 N 
ATOM     33  H   UNL     1      -7.022  17.392   0.159  0.00  0.00    +0.142 HD
ATOM     34  H   UNL     1      -5.132  17.632   0.152  0.00  0.00    +0.142 HD
ENDBRANCH  25  32
ENDBRANCH  20  23
ENDBRANCH   2  19
TORSDOF 8
