REMARK  Name = ZINC13548976
REMARK  10 active torsions:
REMARK  status: ('A' for Active; 'I' for Inactive)
REMARK    1  A    between atoms: C_1  and  C_2
REMARK    2  A    between atoms: C_2  and  C_3
REMARK    3  A    between atoms: C_2  and  C_4
REMARK    4  A    between atoms: C_4  and  C_6
REMARK    5  A    between atoms: C_4  and  N_22
REMARK    6  A    between atoms: C_11  and  C_14
REMARK    7  A    between atoms: C_11  and  O_21
REMARK    8  A    between atoms: C_23  and  C_25
REMARK    9  A    between atoms: C_25  and  C_26
REMARK   10  A    between atoms: C_33  and  O_36
REMARK                            x       y       z     vdW  Elec       q    Type
REMARK                         _______ _______ _______ _____ _____    ______ ____
ROOT
ATOM      1  C   UNL     1      -5.784   2.115   3.107  0.00  0.00    +0.162 C 
ENDROOT
BRANCH   1   2
ATOM      2  C   UNL     1      -7.182   1.657   3.434  0.00  0.00    +0.236 C 
ATOM      3  O   UNL     1      -7.850   1.099   2.589  0.00  0.00    -0.274 OA
ATOM      4  N   UNL     1      -7.689   1.866   4.665  0.00  0.00    -0.300 N 
ATOM      5  C   UNL     1      -6.927   2.617   5.671  0.00  0.00    +0.111 C 
ATOM      6  C   UNL     1      -7.808   3.759   6.200  0.00  0.00    +0.058 C 
ATOM      7  C   UNL     1      -9.128   3.180   6.715  0.00  0.00    +0.094 C 
ATOM      8  C   UNL     1      -9.869   2.493   5.566  0.00  0.00    +0.058 C 
ATOM      9  C   UNL     1      -9.013   1.341   5.027  0.00  0.00    +0.111 C 
BRANCH   7  10
ATOM     10  C   UNL     1      -9.981   4.292   7.269  0.00  0.00    -0.016 A 
ATOM     11  C   UNL     1     -10.861   4.965   6.442  0.00  0.00    +0.008 A 
ATOM     12  C   UNL     1     -11.648   5.981   6.951  0.00  0.00    +0.020 A 
ATOM     13  C   UNL     1     -11.547   6.332   8.285  0.00  0.00    +0.041 A 
ATOM     14  C   UNL     1     -10.662   5.661   9.111  0.00  0.00    +0.020 A 
ATOM     15  C   UNL     1      -9.880   4.642   8.602  0.00  0.00    +0.008 A 
ATOM     16 CL   UNL     1     -12.530   7.612   8.923  0.00  0.00    -0.084 Cl
ENDBRANCH   7  10
BRANCH   7  17
ATOM     17  O   UNL     1      -8.860   2.227   7.746  0.00  0.00    -0.384 OA
ATOM     18  H   UNL     1      -8.391   2.593   8.508  0.00  0.00    +0.211 HD
ENDBRANCH   7  17
ENDBRANCH   1   2
BRANCH   1  19
ATOM     19  N   UNL     1      -5.608   2.148   1.653  0.00  0.00    -0.303 N 
ATOM     20  C   UNL     1      -4.687   2.965   1.104  0.00  0.00    +0.220 C 
ATOM     21  O   UNL     1      -4.004   3.672   1.814  0.00  0.00    -0.275 OA
ATOM     22  H   UNL     1      -6.155   1.583   1.085  0.00  0.00    +0.149 HD
BRANCH  20  23
ATOM     23  C   UNL     1      -4.506   2.998  -0.392  0.00  0.00    +0.153 C 
BRANCH  23  24
ATOM     24  C   UNL     1      -3.423   3.985  -0.745  0.00  0.00    +0.080 A 
ATOM     25  C   UNL     1      -2.081   3.571  -0.831  0.00  0.00    +0.011 A 
ATOM     26  C   UNL     1      -1.681   2.247  -0.607  0.00  0.00    +0.010 A 
ATOM     27  C   UNL     1      -0.360   1.922  -0.705  0.00  0.00    +0.001 A 
ATOM     28  C   UNL     1       0.594   2.882  -1.035  0.00  0.00    +0.001 A 
ATOM     29  C   UNL     1       0.237   4.178  -1.264  0.00  0.00    +0.014 A 
ATOM     30  C   UNL     1      -1.109   4.548  -1.167  0.00  0.00    +0.047 A 
ATOM     31  C   UNL     1      -1.556   5.868  -1.391  0.00  0.00    +0.240 A 
ATOM     32  N   UNL     1      -2.845   6.130  -1.278  0.00  0.00    -0.111 NA
ATOM     33  N   UNL     1      -3.718   5.244  -0.975  0.00  0.00    -0.150 NA
BRANCH  31  34
ATOM     34  O   UNL     1      -0.679   6.849  -1.714  0.00  0.00    -0.491 OA
ATOM     35  H   UNL     1      -0.536   6.951  -2.665  0.00  0.00    +0.294 HD
ENDBRANCH  31  34
ENDBRANCH  23  24
ENDBRANCH  20  23
ENDBRANCH   1  19
BRANCH   1  37
ATOM     36  C   UNL     1      -4.907  -0.224   3.051  0.00  0.00    +0.009 C 
ATOM     37  C   UNL     1      -4.773   1.145   3.721  0.00  0.00    +0.012 C 
ATOM     38  C   UNL     1      -3.356   1.682   3.506  0.00  0.00    +0.009 C 
ENDBRANCH   1  37
TORSDOF 8
