REMARK  Name = ZINC14248999
REMARK  9 active torsions:
REMARK  status: ('A' for Active; 'I' for Inactive)
REMARK    1  A    between atoms: C_1  and  C_2
REMARK    2  A    between atoms: C_2  and  C_3
REMARK    3  A    between atoms: C_2  and  C_4
REMARK    4  A    between atoms: C_2  and  N_5
REMARK    5  A    between atoms: N_5  and  S_6
REMARK    6  A    between atoms: S_6  and  C_9
REMARK    7  A    between atoms: C_13  and  C_15
REMARK    8  A    between atoms: N_17  and  N_18
REMARK    9  A    between atoms: C_19  and  C_21
REMARK                            x       y       z     vdW  Elec       q    Type
REMARK                         _______ _______ _______ _____ _____    ______ ____
ROOT
ATOM      1  C   UNL     1      -3.855   3.993   3.753  0.00  0.00    +0.260 C 
ATOM      2  O   UNL     1      -3.666   4.355   2.608  0.00  0.00    -0.269 OA
ATOM      3  N   UNL     1      -4.060   2.688   4.022  0.00  0.00    -0.230 N 
ATOM      4  H   UNL     1      -4.210   2.399   4.936  0.00  0.00    +0.173 HD
ENDROOT
BRANCH   1   9
ATOM      5  C   UNL     1      -3.655   7.254   5.604  0.00  0.00    +0.106 A 
ATOM      6  C   UNL     1      -3.871   6.839   6.906  0.00  0.00    +0.028 A 
ATOM      7  C   UNL     1      -4.081   5.500   7.186  0.00  0.00    +0.003 A 
ATOM      8  C   UNL     1      -4.082   4.571   6.165  0.00  0.00    +0.013 A 
ATOM      9  C   UNL     1      -3.860   4.983   4.851  0.00  0.00    +0.040 A 
ATOM     10  C   UNL     1      -3.649   6.335   4.576  0.00  0.00    +0.041 A 
BRANCH   5  11
ATOM     11  S   UNL     1      -3.389   8.962   5.259  0.00  0.00    +0.059 S 
ATOM     12  O   UNL     1      -3.125   9.592   6.505  0.00  0.00    -0.153 OA
ATOM     13  O   UNL     1      -2.479   9.018   4.169  0.00  0.00    -0.153 OA
BRANCH  11  14
ATOM     14  N   UNL     1      -4.824   9.580   4.710  0.00  0.00    -0.185 NA
ATOM     15  H   UNL     1      -4.904   9.874   3.789  0.00  0.00    +0.149 HD
BRANCH  14  17
ATOM     16  C   UNL     1      -5.666  10.703   6.713  0.00  0.00    +0.029 C 
ATOM     17  C   UNL     1      -5.971   9.682   5.615  0.00  0.00    +0.032 C 
ATOM     18  C   UNL     1      -7.203  10.133   4.828  0.00  0.00    +0.029 C 
ATOM     19  C   UNL     1      -6.243   8.317   6.250  0.00  0.00    +0.029 C 
ENDBRANCH  14  17
ENDBRANCH  11  14
ENDBRANCH   5  11
ENDBRANCH   1   9
BRANCH   3  20
ATOM     20  N   UNL     1      -4.055   1.749   2.982  0.00  0.00    -0.234 N 
ATOM     21  C   UNL     1      -4.260   0.444   3.251  0.00  0.00    +0.235 C 
ATOM     22  O   UNL     1      -4.448   0.083   4.393  0.00  0.00    -0.274 OA
ATOM     23  H   UNL     1      -3.904   2.038   2.069  0.00  0.00    +0.173 HD
BRANCH  21  24
ATOM     24  C   UNL     1      -4.254  -0.565   2.132  0.00  0.00    +0.049 C 
ATOM     25  C   UNL     1      -2.895  -0.541   1.430  0.00  0.00    +0.019 C 
ATOM     26  C   UNL     1      -2.890  -1.567   0.294  0.00  0.00    -0.009 C 
ATOM     27  C   UNL     1      -3.144  -2.963   0.866  0.00  0.00    +0.007 C 
ATOM     28  C   UNL     1      -4.503  -2.987   1.569  0.00  0.00    -0.009 C 
ATOM     29  C   UNL     1      -4.508  -1.962   2.704  0.00  0.00    +0.019 C 
ATOM     30  C   UNL     1      -5.603  -2.639   0.563  0.00  0.00    +0.007 C 
ATOM     31  C   UNL     1      -5.349  -1.243  -0.009  0.00  0.00    -0.009 C 
ATOM     32  C   UNL     1      -3.990  -1.220  -0.711  0.00  0.00    +0.007 C 
ATOM     33  C   UNL     1      -5.354  -0.218   1.127  0.00  0.00    +0.019 C 
ENDBRANCH  21  24
ENDBRANCH   3  20
TORSDOF 6
