REMARK  Name = ZINC39756666
REMARK  6 active torsions:
REMARK  status: ('A' for Active; 'I' for Inactive)
REMARK    1  A    between atoms: C_6  and  C_8
REMARK    2  A    between atoms: C_11  and  C_13
REMARK    3  A    between atoms: C_13  and  C_15
REMARK    4  A    between atoms: C_15  and  N_16
REMARK    5  A    between atoms: N_21  and  C_24
REMARK    6  A    between atoms: C_24  and  C_25
REMARK                            x       y       z     vdW  Elec       q    Type
REMARK                         _______ _______ _______ _____ _____    ______ ____
ROOT
ATOM      1  C   UNL     1      -1.160  -7.118  -0.674  0.00  0.00    +0.197 C 
ENDROOT
BRANCH   1   2
ATOM      2  N   UNL     1      -0.982  -8.572  -0.641  0.00  0.00    -0.210 N 
ATOM      3  C   UNL     1      -0.467  -9.324  -1.638  0.00  0.00    +0.310 C 
ATOM      4  O   UNL     1      -0.069  -8.940  -2.717  0.00  0.00    -0.264 OA
ATOM      5  C   UNL     1      -0.493 -10.734  -1.128  0.00  0.00    +0.310 C 
ATOM      6  O   UNL     1      -0.120 -11.732  -1.708  0.00  0.00    -0.264 OA
ATOM      7  N   UNL     1      -1.020 -10.659   0.113  0.00  0.00    -0.214 N 
ATOM      8  C   UNL     1      -1.299  -9.374   0.389  0.00  0.00    +0.319 C 
ATOM      9  O   UNL     1      -1.780  -8.988   1.435  0.00  0.00    -0.252 OA
BRANCH   7  10
ATOM     10  C   UNL     1      -1.246 -11.792   1.013  0.00  0.00    +0.163 C 
BRANCH  10  11
ATOM     11  C   UNL     1      -0.003 -12.012   1.878  0.00  0.00    +0.194 C 
ATOM     12  C   UNL     1      -0.175 -13.251   2.790  0.00  0.00    +0.076 C 
ATOM     13  C   UNL     1       1.221 -13.850   2.762  0.00  0.00    +0.014 C 
ATOM     14  C   UNL     1       1.867 -13.293   1.759  0.00  0.00    +0.183 C 
ATOM     15  O   UNL     1       1.126 -12.396   1.069  0.00  0.00    -0.495 OA
ENDBRANCH  10  11
ENDBRANCH   7  10
ENDBRANCH   1   2
BRANCH   1  16
ATOM     16  C   UNL     1       0.084  -6.448  -0.150  0.00  0.00    +0.179 C 
ATOM     17  O   UNL     1       1.026  -7.119   0.216  0.00  0.00    -0.291 OA
BRANCH  16  21
ATOM     18  C   UNL     1       0.839  -2.821   0.254  0.00  0.00    +0.121 C 
ATOM     19  N   UNL     1      -0.355  -2.674  -0.228  0.00  0.00    -0.274 NA
ATOM     20  C   UNL     1      -0.917  -4.004  -0.492  0.00  0.00    +0.181 C 
ATOM     21  C   UNL     1       0.155  -4.990  -0.082  0.00  0.00    +0.020 C 
ATOM     22  C   UNL     1       1.195  -4.243   0.354  0.00  0.00    +0.041 C 
BRANCH  18  28
ATOM     23  C   UNL     1      -0.019   1.539   0.011  0.00  0.00    +0.020 C 
ATOM     24  C   UNL     1       1.488   1.907  -0.002  0.00  0.00    +0.020 C 
ATOM     25  C   UNL     1       2.092   0.776   0.868  0.00  0.00    +0.108 C 
ATOM     26  N   UNL     1       1.313  -0.426   0.518  0.00  0.00    -0.296 N 
ATOM     27  C   UNL     1       0.002  -0.004   0.002  0.00  0.00    +0.108 C 
ATOM     28  C   UNL     1       1.733  -1.700   0.648  0.00  0.00    +0.265 C 
ATOM     29  O   UNL     1       2.841  -1.932   1.087  0.00  0.00    -0.268 OA
ENDBRANCH  18  28
ENDBRANCH  16  21
ENDBRANCH   1  16
TORSDOF 6
