REMARK  Name = ZINC02332797
REMARK  15 active torsions:
REMARK  status: ('A' for Active; 'I' for Inactive)
REMARK    1  A    between atoms: C_1  and  C_2
REMARK    2  A    between atoms: N_8  and  C_9
REMARK    3  A    between atoms: C_9  and  C_10
REMARK    4  A    between atoms: C_10  and  C_11
REMARK    5  A    between atoms: C_14  and  O_19
REMARK    6  A    between atoms: C_15  and  O_17
REMARK    7  A    between atoms: O_17  and  C_18
REMARK    8  A    between atoms: O_19  and  C_20
REMARK    9  A    between atoms: C_21  and  C_29
REMARK   10  A    between atoms: C_23  and  C_27
REMARK   11  A    between atoms: C_24  and  N_26
REMARK   12  A    between atoms: C_32  and  O_37
REMARK   13  A    between atoms: C_34  and  O_35
REMARK   14  A    between atoms: O_35  and  C_36
REMARK   15  A    between atoms: O_37  and  C_38
REMARK                            x       y       z     vdW  Elec       q    Type
REMARK                         _______ _______ _______ _____ _____    ______ ____
ROOT
ATOM      1  C   UNL     1      -1.702  -3.900   4.825  0.00  0.00    +0.064 C 
ATOM      2  C   UNL     1      -1.551  -3.119   3.545  0.00  0.00    +0.022 A 
ATOM      3  C   UNL     1      -1.105  -3.742   2.434  0.00  0.00    +0.068 A 
ATOM      4  C   UNL     1      -0.961  -3.016   1.234  0.00  0.00    +0.141 A 
ATOM      5  C   UNL     1      -1.284  -1.675   1.221  0.00  0.00    +0.072 A 
ATOM      6  C   UNL     1      -1.744  -1.071   2.398  0.00  0.00    +0.259 A 
ATOM      7  O   UNL     1      -2.034   0.115   2.402  0.00  0.00    -0.267 OA
ATOM      8  N   UNL     1      -1.868  -1.798   3.525  0.00  0.00    -0.312 N 
ATOM      9  C   UNL     1      -1.145  -0.863  -0.037  0.00  0.00    +0.107 C 
ATOM     10  C   UNL     1      -1.027  -1.770  -1.229  0.00  0.00    +0.098 C 
ATOM     11  C   UNL     1      -0.723  -3.082  -1.086  0.00  0.00    +0.199 C 
ATOM     12  O   UNL     1      -0.513  -3.636   0.121  0.00  0.00    -0.441 OA
ENDROOT
BRANCH   9  13
ATOM     13  C   UNL     1       0.088  -0.001   0.059  0.00  0.00    +0.007 A 
ATOM     14  C   UNL     1       1.331  -0.587   0.204  0.00  0.00    +0.012 A 
ATOM     15  C   UNL     1       2.462   0.201   0.292  0.00  0.00    +0.046 A 
ATOM     16  C   UNL     1       2.354   1.583   0.233  0.00  0.00    +0.124 A 
ATOM     17  C   UNL     1       1.108   2.173   0.088  0.00  0.00    +0.091 A 
ATOM     18  C   UNL     1      -0.026   1.381   0.000  0.00  0.00    +0.128 A 
BRANCH  18  19
ATOM     19  O   UNL     1      -1.248   1.957  -0.148  0.00  0.00    -0.495 OA
ATOM     20  C   UNL     1      -1.291   3.384  -0.201  0.00  0.00    +0.277 C 
ENDBRANCH  18  19
BRANCH  16  21
ATOM     21  O   UNL     1       3.467   2.357   0.319  0.00  0.00    -0.495 OA
ATOM     22  C   UNL     1       4.717   1.681   0.468  0.00  0.00    +0.277 C 
ENDBRANCH  16  21
ENDBRANCH   9  13
BRANCH  11  23
ATOM     23  N   UNL     1      -0.627  -3.870  -2.206  0.00  0.00    -0.328 N 
ATOM     24  H   UNL     1      -0.776  -3.485  -3.084  0.00  0.00    +0.145 HD
ATOM     25  H   UNL     1      -0.410  -4.811  -2.120  0.00  0.00    +0.145 HD
ENDBRANCH  11  23
BRANCH  10  26
ATOM     26  C   UNL     1      -1.240  -1.238  -2.541  0.00  0.00    +0.101 C 
ATOM     27  N   UNL     1      -1.410  -0.816  -3.582  0.00  0.00    -0.191 NA
ENDBRANCH  10  26
BRANCH   8  28
ATOM     28  C   UNL     1      -2.350  -1.153   4.749  0.00  0.00    +0.130 C 
BRANCH  28  29
ATOM     29  C   UNL     1      -3.879  -1.211   4.787  0.00  0.00    +0.057 C 
BRANCH  29  30
ATOM     30  C   UNL     1      -4.375  -0.548   6.046  0.00  0.00    -0.042 A 
ATOM     31  C   UNL     1      -4.553  -1.296   7.195  0.00  0.00    +0.007 A 
ATOM     32  C   UNL     1      -5.003  -0.691   8.354  0.00  0.00    +0.049 A 
ATOM     33  C   UNL     1      -5.288   0.665   8.363  0.00  0.00    +0.161 A 
ATOM     34  C   UNL     1      -5.114   1.416   7.205  0.00  0.00    +0.162 A 
ATOM     35  C   UNL     1      -4.657   0.805   6.048  0.00  0.00    +0.053 A 
BRANCH  34  36
ATOM     36  O   UNL     1      -5.391   2.748   7.208  0.00  0.00    -0.491 OA
ATOM     37  C   UNL     1      -5.189   3.455   5.983  0.00  0.00    +0.277 C 
ENDBRANCH  34  36
BRANCH  33  38
ATOM     38  O   UNL     1      -5.735   1.260   9.501  0.00  0.00    -0.491 OA
ATOM     39  C   UNL     1      -5.890   0.427  10.651  0.00  0.00    +0.277 C 
ENDBRANCH  33  38
ENDBRANCH  29  30
ENDBRANCH  28  29
ENDBRANCH   8  28
TORSDOF 10
