REMARK  Name = ZINC22240229
REMARK  4 active torsions:
REMARK  status: ('A' for Active; 'I' for Inactive)
REMARK    1  A    between atoms: C_1  and  C_2
REMARK    2  A    between atoms: N_11  and  C_15
REMARK    3  A    between atoms: C_15  and  C_16
REMARK    4  A    between atoms: C_29  and  C_31
REMARK                            x       y       z     vdW  Elec       q    Type
REMARK                         _______ _______ _______ _____ _____    ______ ____
ROOT
ATOM      1  C   UNL     1       0.979  -4.155  -3.742  0.00  0.00    +0.238 C 
ATOM      2  O   UNL     1       1.900  -3.399  -3.971  0.00  0.00    -0.273 OA
ATOM      3  N   UNL     1       0.977  -5.394  -4.272  0.00  0.00    -0.256 N 
ATOM      4  C   UNL     1      -0.077  -6.281  -4.013  0.00  0.00    +0.058 A 
ATOM      5  C   UNL     1      -0.219  -6.869  -2.772  0.00  0.00    +0.025 A 
ATOM      6  C   UNL     1      -1.247  -7.766  -2.546  0.00  0.00    +0.002 A 
ATOM      7  C   UNL     1      -2.136  -8.076  -3.559  0.00  0.00    +0.002 A 
ATOM      8  C   UNL     1      -2.012  -7.481  -4.801  0.00  0.00    +0.025 A 
ATOM      9  C   UNL     1      -0.993  -6.572  -5.030  0.00  0.00    +0.055 A 
ATOM     10  N   UNL     1      -0.864  -5.931  -6.268  0.00  0.00    -0.284 N 
ATOM     11  C   UNL     1       0.331  -5.888  -6.898  0.00  0.00    +0.219 C 
ATOM     12  O   UNL     1       0.445  -5.263  -7.932  0.00  0.00    -0.275 OA
ATOM     13  C   UNL     1       1.523  -6.611  -6.327  0.00  0.00    +0.128 C 
ATOM     14  C   UNL     1       2.078  -5.843  -5.125  0.00  0.00    +0.194 C 
ATOM     15  H   UNL     1      -1.740  -5.457  -6.736  0.00  0.00    +0.155 HD
ENDROOT
BRANCH  14  16
ATOM     16  C   UNL     1       3.003  -6.758  -4.322  0.00  0.00    +0.409 C 
ATOM     17  F   UNL     1       2.283  -7.868  -3.867  0.00  0.00    -0.169 F 
ATOM     18  F   UNL     1       4.056  -7.189  -5.136  0.00  0.00    -0.169 F 
ATOM     19  F   UNL     1       3.518  -6.056  -3.227  0.00  0.00    -0.169 F 
ENDBRANCH  14  16
BRANCH   1  20
ATOM     20  C   UNL     1      -0.163  -3.709  -2.865  0.00  0.00    +0.214 C 
BRANCH  20  30
ATOM     21  C   UNL     1       2.857  -0.446  -2.550  0.00  0.00    +0.010 C 
ATOM     22  C   UNL     1       2.160   0.040  -1.277  0.00  0.00    +0.018 C 
ATOM     23  C   UNL     1       2.132   1.570  -1.264  0.00  0.00    +0.006 C 
ATOM     24  C   UNL     1       1.417   2.055  -0.000  0.00  0.00    +0.000 C 
ATOM     25  C   UNL     1      -0.019   1.527   0.010  0.00  0.00    +0.003 C 
ATOM     26  C   UNL     1       0.002  -0.004   0.002  0.00  0.00    +0.035 C 
ATOM     27  C   UNL     1       0.734  -0.497  -1.242  0.00  0.00    +0.115 C 
ATOM     28  C   UNL     1       0.736  -2.007  -1.289  0.00  0.00    +0.247 C 
ATOM     29  O   UNL     1       1.230  -2.766  -0.482  0.00  0.00    -0.273 OA
ATOM     30  N   UNL     1       0.074  -2.334  -2.418  0.00  0.00    -0.215 N 
ATOM     31  C   UNL     1      -0.340  -1.246  -3.079  0.00  0.00    +0.310 C 
ATOM     32  O   UNL     1      -0.958  -1.284  -4.125  0.00  0.00    -0.252 OA
ATOM     33  N   UNL     1       0.006  -0.103  -2.455  0.00  0.00    -0.285 N 
ATOM     34  H   UNL     1      -0.149   0.962  -2.682  0.00  0.00    +0.151 HD
ENDBRANCH  20  30
ENDBRANCH   1  20
TORSDOF 3
