REMARK  Name = ZINC39691027
REMARK  5 active torsions:
REMARK  status: ('A' for Active; 'I' for Inactive)
REMARK    1  A    between atoms: C_1  and  C_2
REMARK    2  A    between atoms: C_2  and  C_4
REMARK    3  A    between atoms: C_4  and  N_5
REMARK    4  A    between atoms: C_6  and  C_8
REMARK    5  A    between atoms: C_19  and  C_21
REMARK                            x       y       z     vdW  Elec       q    Type
REMARK                         _______ _______ _______ _____ _____    ______ ____
ROOT
ATOM      1  C   UNL     1      -3.381  -1.742   3.055  0.00  0.00    +0.100 C 
ATOM      2  C   UNL     1      -3.575  -0.365   3.728  0.00  0.00    +0.121 C 
ATOM      3  N   UNL     1      -5.010  -0.050   3.531  0.00  0.00    -0.295 N 
ATOM      4  C   UNL     1      -5.702  -1.347   3.728  0.00  0.00    +0.115 C 
ATOM      5  C   UNL     1      -4.778  -2.385   3.060  0.00  0.00    -0.004 C 
ATOM      6  C   UNL     1      -4.763  -3.677   3.871  0.00  0.00    -0.010 C 
ATOM      7  C   UNL     1      -6.148  -4.328   3.812  0.00  0.00    -0.082 C 
ATOM      8  N   UNL     1      -6.501  -4.607   2.415  0.00  0.00    +0.379 N 
ATOM      9  C   UNL     1      -6.605  -3.350   1.664  0.00  0.00    -0.082 C 
ATOM     10  C   UNL     1      -5.239  -2.658   1.632  0.00  0.00    -0.010 C 
ATOM     11  C   UNL     1      -5.561   1.144   3.238  0.00  0.00    +0.265 C 
ATOM     12  O   UNL     1      -4.849   2.102   3.008  0.00  0.00    -0.268 OA
ATOM     13  H   UNL     1      -5.788  -5.188   2.000  0.00  0.00    -0.086 HD
ATOM     14  H   UNL     1      -7.386  -5.090   2.384  0.00  0.00    -0.086 HD
ENDROOT
BRANCH  11  15
ATOM     15  C   UNL     1      -7.036   1.290   3.197  0.00  0.00    +0.126 A 
ATOM     16  C   UNL     1      -7.593   2.507   2.777  0.00  0.00    +0.033 A 
ATOM     17  C   UNL     1      -8.949   2.654   2.735  0.00  0.00    +0.012 A 
ATOM     18  C   UNL     1      -9.750   1.563   3.120  0.00  0.00    +0.000 A 
ATOM     19  C   UNL     1     -11.152   1.644   3.100  0.00  0.00    +0.010 A 
ATOM     20  C   UNL     1     -11.894   0.568   3.479  0.00  0.00    +0.001 A 
ATOM     21  C   UNL     1     -11.282  -0.616   3.888  0.00  0.00    +0.002 A 
ATOM     22  C   UNL     1      -9.927  -0.732   3.920  0.00  0.00    +0.028 A 
ATOM     23  C   UNL     1      -9.124   0.359   3.535  0.00  0.00    +0.072 A 
ATOM     24  N   UNL     1      -7.794   0.271   3.552  0.00  0.00    -0.242 NA
ENDBRANCH  11  15
BRANCH   1  26
ATOM     25  N   UNL     1      -2.096  -2.509   1.085  0.00  0.00    -0.311 N 
ATOM     26  C   UNL     1      -2.888  -1.570   1.642  0.00  0.00    +0.218 C 
ATOM     27  O   UNL     1      -3.203  -0.587   1.005  0.00  0.00    -0.275 OA
ATOM     28  H   UNL     1      -1.845  -3.295   1.595  0.00  0.00    +0.149 HD
BRANCH  25  29
ATOM     29  C   UNL     1      -1.617  -2.341  -0.289  0.00  0.00    +0.134 C 
BRANCH  29  31
ATOM     30  C   UNL     1       0.706  -3.531  -0.312  0.00  0.00    +0.040 C 
ATOM     31  C   UNL     1      -0.758  -3.520  -0.668  0.00  0.00    -0.063 C 
ATOM     32  C   UNL     1      -1.284  -4.535  -1.307  0.00  0.00    +0.009 C 
ENDBRANCH  29  31
ENDBRANCH  25  29
ENDBRANCH   1  26
TORSDOF 4
