REMARK  Name = ZINC43093359
REMARK  14 active torsions:
REMARK  status: ('A' for Active; 'I' for Inactive)
REMARK    1  A    between atoms: C_1  and  C_2
REMARK    2  A    between atoms: C_2  and  C_3
REMARK    3  A    between atoms: C_3  and  C_5
REMARK    4  A    between atoms: C_3  and  N_23
REMARK    5  A    between atoms: C_5  and  C_7
REMARK    6  A    between atoms: C_5  and  N_14
REMARK    7  A    between atoms: N_14  and  C_15
REMARK    8  A    between atoms: N_14  and  C_18
REMARK    9  A    between atoms: C_15  and  C_16
REMARK   10  A    between atoms: C_16  and  O_17
REMARK   11  A    between atoms: C_18  and  C_19
REMARK   12  A    between atoms: C_18  and  C_21
REMARK   13  A    between atoms: C_19  and  C_20
REMARK   14  A    between atoms: C_21  and  C_22
REMARK                            x       y       z     vdW  Elec       q    Type
REMARK                         _______ _______ _______ _____ _____    ______ ____
ROOT
ATOM      1  C   UNL     1       0.254  -1.795  -1.375  0.00  0.00    -0.051 C 
ENDROOT
BRANCH   1   2
ATOM      2  C   UNL     1       1.186  -1.752  -0.192  0.00  0.00    -0.048 A 
ATOM      3  C   UNL     1       0.761  -1.203   1.003  0.00  0.00    +0.003 A 
ATOM      4  C   UNL     1       1.615  -1.163   2.089  0.00  0.00    +0.000 A 
ATOM      5  C   UNL     1       2.896  -1.673   1.979  0.00  0.00    +0.001 A 
ATOM      6  C   UNL     1       3.322  -2.222   0.785  0.00  0.00    +0.015 A 
ATOM      7  C   UNL     1       2.465  -2.266  -0.300  0.00  0.00    +0.019 A 
ATOM      8 BR   UNL     1       3.045  -3.024  -1.933  0.00  0.00    -0.050 Br
ENDBRANCH   1   2
BRANCH   1   9
ATOM      9  N   UNL     1      -1.042  -2.347  -0.958  0.00  0.00    +0.387 N 
ATOM     10  H   UNL     1      -1.383  -1.836  -0.157  0.00  0.00    -0.081 HD
BRANCH   9  11
ATOM     11  C   UNL     1      -2.005  -2.226  -2.061  0.00  0.00    -0.049 C 
BRANCH  11  12
ATOM     12  C   UNL     1      -3.395  -2.637  -1.573  0.00  0.00    +0.137 C 
BRANCH  12  13
ATOM     13  O   UNL     1      -3.839  -1.719  -0.572  0.00  0.00    -0.397 OA
ATOM     14  H   UNL     1      -4.716  -1.919  -0.216  0.00  0.00    +0.209 HD
ENDBRANCH  12  13
ENDBRANCH  11  12
ENDBRANCH   9  11
BRANCH   9  15
ATOM     15  C   UNL     1      -0.880  -3.763  -0.603  0.00  0.00    -0.068 C 
BRANCH  15  16
ATOM     16  C   UNL     1       0.203  -4.389  -1.484  0.00  0.00    -0.019 C 
ATOM     17  C   UNL     1      -0.268  -4.401  -2.939  0.00  0.00    +0.002 C 
ENDBRANCH  15  16
BRANCH  15  18
ATOM     18  C   UNL     1      -0.471  -3.876   0.867  0.00  0.00    -0.019 C 
ATOM     19  C   UNL     1      -1.585  -3.315   1.752  0.00  0.00    +0.002 C 
ENDBRANCH  15  18
ENDBRANCH   9  15
ENDBRANCH   1   9
BRANCH   1  20
ATOM     20  C   UNL     1       0.054  -0.379  -1.919  0.00  0.00    -0.085 C 
BRANCH  20  21
ATOM     21  N   UNL     1       1.362   0.226  -2.204  0.00  0.00    +0.379 N 
ATOM     22  H   UNL     1       1.931   0.203  -1.371  0.00  0.00    -0.090 HD
ATOM     23  H   UNL     1       1.820  -0.293  -2.938  0.00  0.00    -0.090 HD
ATOM     24  H   UNL     1       1.234   1.182  -2.497  0.00  0.00    -0.090 HD
ENDBRANCH  20  21
BRANCH  20  26
ATOM     25  C   UNL     1      -0.961   1.857  -1.457  0.00  0.00    +0.002 C 
ATOM     26  C   UNL     1      -0.684   0.467  -0.880  0.00  0.00    -0.021 C 
ENDBRANCH  20  26
ENDBRANCH   1  20
TORSDOF 11
