REMARK  Name = ZINC37361442
REMARK  9 active torsions:
REMARK  status: ('A' for Active; 'I' for Inactive)
REMARK    1  A    between atoms: C_1  and  O_2
REMARK    2  A    between atoms: O_2  and  C_3
REMARK    3  A    between atoms: C_3  and  C_4
REMARK    4  A    between atoms: C_4  and  N_5
REMARK    5  A    between atoms: C_13  and  C_29
REMARK    6  A    between atoms: C_15  and  N_28
REMARK    7  A    between atoms: N_16  and  C_20
REMARK    8  A    between atoms: C_23  and  O_26
REMARK    9  A    between atoms: O_26  and  C_27
REMARK                            x       y       z     vdW  Elec       q    Type
REMARK                         _______ _______ _______ _____ _____    ______ ____
ROOT
ATOM      1  N   UNL     1       1.680  -2.782   0.628  0.00  0.00    +0.383 N 
ATOM      2  C   UNL     1       3.097  -2.399   0.584  0.00  0.00    -0.059 C 
ATOM      3  C   UNL     1       3.635  -2.601  -0.837  0.00  0.00    +0.089 C 
ATOM      4  N   UNL     1       3.368  -3.989  -1.244  0.00  0.00    -0.303 N 
ATOM      5  C   UNL     1       2.001  -4.509  -1.079  0.00  0.00    +0.089 C 
ATOM      6  C   UNL     1       1.541  -4.217   0.353  0.00  0.00    -0.059 C 
ATOM      7  C   UNL     1       4.372  -4.782  -1.769  0.00  0.00    +0.220 A 
ATOM      8  N   UNL     1       4.069  -6.027  -2.124  0.00  0.00    -0.213 NA
ATOM      9  C   UNL     1       4.971  -6.855  -2.635  0.00  0.00    +0.091 A 
ATOM     10  C   UNL     1       6.293  -6.384  -2.801  0.00  0.00    +0.086 A 
ATOM     11  C   UNL     1       7.486  -6.913  -3.279  0.00  0.00    +0.131 A 
ATOM     12  N   UNL     1       8.425  -5.953  -3.180  0.00  0.00    -0.216 N 
ATOM     13  N   UNL     1       7.862  -4.791  -2.639  0.00  0.00    -0.144 NA
ATOM     14  C   UNL     1       6.587  -4.998  -2.394  0.00  0.00    +0.189 A 
ATOM     15  N   UNL     1       5.576  -4.261  -1.893  0.00  0.00    -0.193 NA
ATOM     16  H   UNL     1       1.170  -2.256  -0.066  0.00  0.00    -0.082 HD
ENDROOT
BRANCH   9  17
ATOM     17  C   UNL     1       4.603  -8.235  -3.020  0.00  0.00    +0.039 A 
ATOM     18  C   UNL     1       5.271  -9.323  -2.455  0.00  0.00    +0.013 A 
ATOM     19  C   UNL     1       4.925 -10.607  -2.818  0.00  0.00    +0.004 A 
ATOM     20  C   UNL     1       3.916 -10.822  -3.740  0.00  0.00    +0.041 A 
ATOM     21  C   UNL     1       3.247  -9.751  -4.306  0.00  0.00    +0.159 A 
ATOM     22  C   UNL     1       3.582  -8.456  -3.947  0.00  0.00    +0.168 A 
ATOM     23  F   UNL     1       2.926  -7.409  -4.494  0.00  0.00    -0.202 F 
ATOM     24  F   UNL     1       2.263  -9.969  -5.206  0.00  0.00    -0.202 F 
ENDBRANCH   9  17
BRANCH  12  25
ATOM     25  C   UNL     1       9.765  -6.095  -3.562  0.00  0.00    +0.068 A 
ATOM     26  C   UNL     1      10.408  -7.315  -3.398  0.00  0.00    +0.031 A 
ATOM     27  C   UNL     1      11.729  -7.455  -3.775  0.00  0.00    +0.048 A 
ATOM     28  C   UNL     1      12.414  -6.376  -4.316  0.00  0.00    +0.120 A 
ATOM     29  C   UNL     1      11.773  -5.157  -4.479  0.00  0.00    +0.048 A 
ATOM     30  C   UNL     1      10.450  -5.017  -4.108  0.00  0.00    +0.031 A 
BRANCH  28  31
ATOM     31  O   UNL     1      13.715  -6.514  -4.686  0.00  0.00    -0.495 OA
ATOM     32  C   UNL     1      14.359  -5.363  -5.236  0.00  0.00    +0.277 C 
ENDBRANCH  28  31
ENDBRANCH  12  25
BRANCH  11  33
ATOM     33  N   UNL     1       7.674  -8.193  -3.768  0.00  0.00    -0.342 N 
ATOM     34  H   UNL     1       6.934  -8.820  -3.785  0.00  0.00    +0.144 HD
ATOM     35  H   UNL     1       8.546  -8.464  -4.095  0.00  0.00    +0.144 HD
ENDBRANCH  11  33
BRANCH   1  36
ATOM     36  C   UNL     1       1.137  -2.486   1.961  0.00  0.00    -0.050 C 
BRANCH  36  37
ATOM     37  C   UNL     1       1.167  -0.975   2.199  0.00  0.00    +0.141 C 
BRANCH  37  39
ATOM     38  C   UNL     1       0.238   1.092   1.418  0.00  0.00    +0.193 C 
ATOM     39  O   UNL     1       0.284  -0.329   1.279  0.00  0.00    -0.385 OA
ENDBRANCH  37  39
ENDBRANCH  36  37
ENDBRANCH   1  36
TORSDOF 7
