REMARK  Name = ZINC04246597
REMARK  6 active torsions:
REMARK  status: ('A' for Active; 'I' for Inactive)
REMARK    1  A    between atoms: C_1  and  N_2
REMARK    2  A    between atoms: N_2  and  C_3
REMARK    3  A    between atoms: C_3  and  C_4
REMARK    4  A    between atoms: C_9  and  C_11
REMARK    5  A    between atoms: C_11  and  S_12
REMARK    6  A    between atoms: S_12  and  C_13
REMARK                            x       y       z     vdW  Elec       q    Type
REMARK                         _______ _______ _______ _____ _____    ______ ____
ROOT
ATOM      1  C   UNL     1       1.615   4.593   0.010  0.00  0.00    +0.176 A 
ATOM      2  N   UNL     1       1.084   5.789   0.020  0.00  0.00    -0.223 NA
ATOM      3  C   UNL     1      -0.258   5.980   0.034  0.00  0.00    +0.077 A 
ATOM      4  C   UNL     1      -0.810   7.264   0.045  0.00  0.00    +0.028 A 
ATOM      5  C   UNL     1      -2.178   7.419   0.058  0.00  0.00    +0.002 A 
ATOM      6  C   UNL     1      -3.019   6.315   0.060  0.00  0.00    +0.001 A 
ATOM      7  C   UNL     1      -2.498   5.038   0.050  0.00  0.00    +0.013 A 
ATOM      8  C   UNL     1      -1.117   4.859   0.037  0.00  0.00    +0.043 A 
ATOM      9  C   UNL     1      -0.510   3.519   0.025  0.00  0.00    +0.150 A 
ATOM     10  N   UNL     1       0.866   3.446   0.012  0.00  0.00    -0.271 N 
ATOM     11  C   UNL     1       1.198   2.103   0.002  0.00  0.00    +0.076 A 
ATOM     12  C   UNL     1       2.400   1.409  -0.013  0.00  0.00    +0.028 A 
ATOM     13  C   UNL     1       2.394   0.030  -0.021  0.00  0.00    +0.002 A 
ATOM     14  C   UNL     1       1.195  -0.669  -0.013  0.00  0.00    +0.002 A 
ATOM     15  C   UNL     1       0.002  -0.004   0.002  0.00  0.00    +0.030 A 
ATOM     16  C   UNL     1      -0.017   1.395   0.010  0.00  0.00    +0.090 A 
ATOM     17  N   UNL     1      -1.017   2.309   0.019  0.00  0.00    -0.227 NA
ENDROOT
BRANCH   1  18
ATOM     18  S   UNL     1       3.371   4.452  -0.007  0.00  0.00    -0.078 S 
BRANCH  18  19
ATOM     19  C   UNL     1       3.827   6.204  -0.003  0.00  0.00    +0.173 C 
BRANCH  19  22
ATOM     20  C   UNL     1       5.063   8.754  -0.002  0.00  0.00    +0.132 C 
ATOM     21  N   UNL     1       5.901   7.552  -0.016  0.00  0.00    -0.297 N 
ATOM     22  C   UNL     1       5.329   6.332  -0.016  0.00  0.00    +0.226 C 
ATOM     23  O   UNL     1       6.022   5.337  -0.027  0.00  0.00    -0.275 OA
BRANCH  21  24
ATOM     24  C   UNL     1       7.361   7.677  -0.029  0.00  0.00    +0.181 C 
BRANCH  24  25
ATOM     25  C   UNL     1       7.848   7.726  -1.454  0.00  0.00    +0.122 A 
ATOM     26  C   UNL     1       8.009   8.839  -2.192  0.00  0.00    +0.046 A 
ATOM     27  C   UNL     1       8.481   8.425  -3.459  0.00  0.00    +0.041 A 
ATOM     28  C   UNL     1       8.579   7.084  -3.420  0.00  0.00    +0.195 A 
ATOM     29  O   UNL     1       8.200   6.667  -2.201  0.00  0.00    -0.466 OA
ENDBRANCH  24  25
ENDBRANCH  21  24
ENDBRANCH  19  22
ENDBRANCH  18  19
ENDBRANCH   1  18
TORSDOF 5
