REMARK  Name = ZINC16888807
REMARK  11 active torsions:
REMARK  status: ('A' for Active; 'I' for Inactive)
REMARK    1  A    between atoms: C_1  and  C_2
REMARK    2  A    between atoms: C_2  and  C_3
REMARK    3  A    between atoms: C_3  and  C_4
REMARK    4  A    between atoms: C_4  and  C_5
REMARK    5  A    between atoms: C_5  and  C_6
REMARK    6  A    between atoms: C_6  and  N_7
REMARK    7  A    between atoms: C_9  and  C_17
REMARK    8  A    between atoms: C_17  and  C_18
REMARK    9  A    between atoms: C_18  and  C_20
REMARK   10  A    between atoms: C_18  and  N_21
REMARK   11  A    between atoms: C_22  and  C_24
REMARK                            x       y       z     vdW  Elec       q    Type
REMARK                         _______ _______ _______ _____ _____    ______ ____
ROOT
ATOM      1  C   UNL     1       3.097   5.126  -0.007  0.00  0.00    +0.059 C 
ENDROOT
BRANCH   1   4
ATOM      2  N   UNL     1       2.632   1.475  -0.120  0.00  0.00    -0.346 N 
ATOM      3  C   UNL     1       3.409   2.601  -0.080  0.00  0.00    +0.090 A 
ATOM      4  C   UNL     1       2.630   3.694  -0.054  0.00  0.00    -0.020 A 
ATOM      5  C   UNL     1       1.241   3.230  -0.080  0.00  0.00    +0.004 A 
ATOM      6  C   UNL     1       1.300   1.825  -0.121  0.00  0.00    +0.049 A 
ATOM      7  C   UNL     1       0.119   1.092  -0.153  0.00  0.00    +0.027 A 
ATOM      8  C   UNL     1      -1.095   1.743  -0.150  0.00  0.00    +0.017 A 
ATOM      9  C   UNL     1      -1.154   3.130  -0.102  0.00  0.00    +0.019 A 
ATOM     10  C   UNL     1       0.003   3.876  -0.071  0.00  0.00    +0.025 A 
ATOM     11 BR   UNL     1      -2.834   3.999  -0.091  0.00  0.00    -0.050 Br
BRANCH   2  12
ATOM     12  C   UNL     1       3.142   0.102  -0.156  0.00  0.00    +0.122 C 
BRANCH  12  13
ATOM     13  C   UNL     1       3.213  -0.378  -1.607  0.00  0.00    +0.022 C 
BRANCH  13  14
ATOM     14  C   UNL     1       3.745  -1.812  -1.644  0.00  0.00    +0.002 C 
BRANCH  14  15
ATOM     15  C   UNL     1       3.817  -2.292  -3.095  0.00  0.00    -0.000 C 
BRANCH  15  17
ATOM     16  C   UNL     1       4.420  -4.205  -4.584  0.00  0.00    +0.004 C 
ATOM     17  C   UNL     1       4.349  -3.726  -3.133  0.00  0.00    -0.003 C 
ENDBRANCH  15  17
ENDBRANCH  14  15
ENDBRANCH  13  14
ENDBRANCH  12  13
ENDBRANCH   2  12
ENDBRANCH   1   4
BRANCH   1  18
ATOM     18  C   UNL     1       3.123   5.606   1.446  0.00  0.00    +0.074 C 
ATOM     19  C   UNL     1       3.475   7.095   1.484  0.00  0.00    +0.028 C 
BRANCH  18  20
ATOM     20  N   UNL     1       4.128   4.847   2.193  0.00  0.00    -0.312 N 
ATOM     21  C   UNL     1       4.011   4.707   3.529  0.00  0.00    +0.221 C 
ATOM     22  O   UNL     1       3.074   5.210   4.111  0.00  0.00    -0.275 OA
ATOM     23  H   UNL     1       4.877   4.444   1.727  0.00  0.00    +0.149 HD
BRANCH  21  24
ATOM     24  C   UNL     1       5.045   3.925   4.298  0.00  0.00    +0.129 C 
ATOM     25  C   UNL     1       5.194   4.481   5.733  0.00  0.00    +0.137 C 
ATOM     26  C   UNL     1       4.415   3.492   6.580  0.00  0.00    +0.308 C 
ATOM     27  O   UNL     1       3.825   3.735   7.606  0.00  0.00    -0.251 OA
ATOM     28  O   UNL     1       4.504   2.293   5.974  0.00  0.00    -0.457 OA
ATOM     29  C   UNL     1       4.570   2.480   4.534  0.00  0.00    +0.125 C 
ATOM     30  C   UNL     1       5.570   1.502   3.921  0.00  0.00    +0.049 C 
ATOM     31  C   UNL     1       5.095   0.067   4.161  0.00  0.00    +0.004 C 
ATOM     32  C   UNL     1       3.718  -0.127   3.522  0.00  0.00    +0.000 C 
ATOM     33  C   UNL     1       2.720   0.846   4.153  0.00  0.00    +0.004 C 
ATOM     34  C   UNL     1       3.189   2.283   3.913  0.00  0.00    +0.049 C 
ENDBRANCH  21  24
ENDBRANCH  18  20
ENDBRANCH   1  18
TORSDOF 9
