REMARK  Name = ZINC64000086
REMARK  10 active torsions:
REMARK  status: ('A' for Active; 'I' for Inactive)
REMARK    1  A    between atoms: C_1  and  C_2
REMARK    2  A    between atoms: C_2  and  C_3
REMARK    3  A    between atoms: C_2  and  C_4
REMARK    4  A    between atoms: C_4  and  C_6
REMARK    5  A    between atoms: C_4  and  N_17
REMARK    6  A    between atoms: N_17  and  C_18
REMARK    7  A    between atoms: C_18  and  C_19
REMARK    8  A    between atoms: N_21  and  C_22
REMARK    9  A    between atoms: C_22  and  C_23
REMARK   10  A    between atoms: C_23  and  C_24
REMARK                            x       y       z     vdW  Elec       q    Type
REMARK                         _______ _______ _______ _____ _____    ______ ____
ROOT
ATOM      1  N   UNL     1      -2.057  -0.241  -1.302  0.00  0.00    -0.301 NA
ATOM      2  H   UNL     1      -1.305  -0.270  -1.974  0.00  0.00    +0.123 HD
ENDROOT
BRANCH   1   3
ATOM      3  C   UNL     1      -1.611  -0.728   0.010  0.00  0.00    +0.087 C 
BRANCH   3   4
ATOM      4  C   UNL     1      -1.665  -2.234   0.032  0.00  0.00    -0.027 A 
ATOM      5  C   UNL     1      -1.267  -2.954  -1.080  0.00  0.00    +0.009 A 
ATOM      6  C   UNL     1      -1.313  -4.337  -1.067  0.00  0.00    +0.050 A 
ATOM      7  C   UNL     1      -1.760  -4.998   0.065  0.00  0.00    +0.162 A 
ATOM      8  C   UNL     1      -2.160  -4.275   1.180  0.00  0.00    +0.162 A 
ATOM      9  C   UNL     1      -2.108  -2.892   1.165  0.00  0.00    +0.054 A 
ATOM     10  O   UNL     1      -2.598  -4.937   2.290  0.00  0.00    -0.488 OA
ATOM     11  C   UNL     1      -3.845  -5.622   2.158  0.00  0.00    +0.232 C 
ATOM     12  C   UNL     1      -3.639  -7.003   1.553  0.00  0.00    +0.082 C 
ATOM     13  C   UNL     1      -3.117  -6.938   0.127  0.00  0.00    +0.232 C 
ATOM     14  O   UNL     1      -1.810  -6.361   0.091  0.00  0.00    -0.488 OA
ENDBRANCH   3   4
BRANCH   3  16
ATOM     15  C   UNL     1       0.247  -0.663   1.680  0.00  0.00    +0.009 C 
ATOM     16  C   UNL     1      -0.174  -0.266   0.264  0.00  0.00    +0.004 C 
ATOM     17  C   UNL     1       0.761  -0.927  -0.751  0.00  0.00    +0.009 C 
ENDBRANCH   3  16
ENDBRANCH   1   3
BRANCH   1  18
ATOM     18  C   UNL     1      -2.618   1.113  -1.198  0.00  0.00    +0.178 C 
BRANCH  18  19
ATOM     19  C   UNL     1      -3.183   1.526  -2.533  0.00  0.00    +0.227 C 
ATOM     20  O   UNL     1      -3.123   0.768  -3.478  0.00  0.00    -0.274 OA
ATOM     21  N   UNL     1      -3.753   2.739  -2.676  0.00  0.00    -0.314 N 
ATOM     22  H   UNL     1      -3.800   3.345  -1.921  0.00  0.00    +0.149 HD
BRANCH  21  23
ATOM     23  C   UNL     1      -4.302   3.141  -3.974  0.00  0.00    +0.108 C 
BRANCH  23  24
ATOM     24  C   UNL     1      -4.886   4.551  -3.865  0.00  0.00    +0.052 C 
BRANCH  24  25
ATOM     25  C   UNL     1      -5.450   4.965  -5.200  0.00  0.00    -0.040 C 
ATOM     26  C   UNL     1      -6.736   4.860  -5.607  0.00  0.00    -0.001 A 
ATOM     27  C   UNL     1      -7.947   4.347  -4.954  0.00  0.00    +0.010 A 
ATOM     28  C   UNL     1      -9.117   4.373  -5.631  0.00  0.00    +0.001 A 
ATOM     29  C   UNL     1      -9.203   4.875  -6.937  0.00  0.00    +0.002 A 
ATOM     30  C   UNL     1      -8.135   5.363  -7.602  0.00  0.00    +0.026 A 
ATOM     31  C   UNL     1      -6.853   5.385  -6.986  0.00  0.00    +0.043 A 
ATOM     32  N   UNL     1      -5.686   5.799  -7.415  0.00  0.00    -0.380 N 
ATOM     33  C   UNL     1      -4.696   5.588  -6.353  0.00  0.00    +0.144 C 
ATOM     34  H   UNL     1      -5.507   6.184  -8.287  0.00  0.00    +0.160 HD
ENDBRANCH  24  25
ENDBRANCH  23  24
ENDBRANCH  21  23
ENDBRANCH  18  19
ENDBRANCH   1  18
TORSDOF 8
