REMARK  Name = ZINC11879711
REMARK  9 active torsions:
REMARK  status: ('A' for Active; 'I' for Inactive)
REMARK    1  A    between atoms: C_1  and  C_2
REMARK    2  A    between atoms: C_2  and  C_4
REMARK    3  A    between atoms: C_2  and  N_12
REMARK    4  A    between atoms: C_13  and  C_15
REMARK    5  A    between atoms: C_15  and  N_57
REMARK    6  A    between atoms: C_24  and  N_57
REMARK    7  A    between atoms: C_25  and  C_26
REMARK    8  A    between atoms: C_25  and  N_57
REMARK    9  A    between atoms: C_26  and  C_27
REMARK                            x       y       z     vdW  Elec       q    Type
REMARK                         _______ _______ _______ _____ _____    ______ ____
ROOT
ATOM      1  C   UNL     1      -0.759   1.250   3.716  0.00  0.00    +0.020 C 
ATOM      2  C   UNL     1      -1.024   2.729   4.070  0.00  0.00    +0.033 C 
ATOM      3  C   UNL     1      -0.886   2.803   5.579  0.00  0.00    -0.045 A 
ATOM      4  C   UNL     1      -1.311   3.773   6.471  0.00  0.00    +0.004 A 
ATOM      5  C   UNL     1      -1.074   3.626   7.824  0.00  0.00    +0.000 A 
ATOM      6  C   UNL     1      -0.410   2.506   8.289  0.00  0.00    +0.000 A 
ATOM      7  C   UNL     1       0.015   1.537   7.401  0.00  0.00    +0.004 A 
ATOM      8  C   UNL     1      -0.222   1.683   6.044  0.00  0.00    -0.045 A 
ATOM      9  C   UNL     1       0.136   0.781   4.883  0.00  0.00    +0.033 C 
ENDROOT
BRANCH   1  11
ATOM     10  N   UNL     1      -2.777   0.425   2.548  0.00  0.00    -0.307 N 
ATOM     11  C   UNL     1      -2.046   0.468   3.680  0.00  0.00    +0.204 C 
ATOM     12  O   UNL     1      -2.425  -0.122   4.669  0.00  0.00    -0.277 OA
ATOM     13  H   UNL     1      -2.440   0.837   1.737  0.00  0.00    +0.149 HD
BRANCH  10  15
ATOM     14  C   UNL     1      -5.156   0.733   3.026  0.00  0.00    +0.036 C 
ATOM     15  C   UNL     1      -4.081  -0.243   2.543  0.00  0.00    +0.138 C 
BRANCH  15  16
ATOM     16  C   UNL     1      -4.407  -0.697   1.144  0.00  0.00    +0.151 A 
ATOM     17  N   UNL     1      -5.589  -1.272   0.746  0.00  0.00    -0.292 N 
ATOM     18  H   UNL     1      -6.353  -1.455   1.316  0.00  0.00    +0.172 HD
ATOM     19  C   UNL     1      -5.507  -1.540  -0.573  0.00  0.00    +0.342 A 
ATOM     20  O   UNL     1      -6.373  -2.052  -1.260  0.00  0.00    -0.245 OA
ATOM     21  N   UNL     1      -4.290  -1.137  -0.992  0.00  0.00    -0.227 N 
ATOM     22  H   UNL     1      -3.942  -1.201  -1.895  0.00  0.00    +0.194 HD
ATOM     23  N   UNL     1      -3.622  -0.604   0.120  0.00  0.00    -0.155 NA
ENDBRANCH  15  16
ENDBRANCH  10  15
ENDBRANCH   1  11
BRANCH   1  25
ATOM     24  C   UNL     1       0.100  -0.266   2.035  0.00  0.00    -0.095 C 
ATOM     25  N   UNL     1      -0.063   1.153   2.416  0.00  0.00    +0.388 N 
ATOM     26  H   UNL     1      -0.625   1.628   1.700  0.00  0.00    -0.081 HD
BRANCH  25  27
ATOM     27  C   UNL     1       1.259   1.808   2.500  0.00  0.00    -0.073 C 
BRANCH  27  28
ATOM     28  C   UNL     1       1.740   2.126   1.083  0.00  0.00    +0.016 C 
BRANCH  28  29
ATOM     29  C   UNL     1       3.080   2.812   1.149  0.00  0.00    -0.049 A 
ATOM     30  C   UNL     1       3.148   4.190   1.226  0.00  0.00    +0.003 A 
ATOM     31  C   UNL     1       4.378   4.819   1.292  0.00  0.00    +0.000 A 
ATOM     32  C   UNL     1       5.539   4.070   1.269  0.00  0.00    +0.000 A 
ATOM     33  C   UNL     1       5.471   2.692   1.186  0.00  0.00    +0.000 A 
ATOM     34  C   UNL     1       4.242   2.063   1.126  0.00  0.00    +0.003 A 
ENDBRANCH  28  29
ENDBRANCH  27  28
ENDBRANCH  25  27
ENDBRANCH   1  25
TORSDOF 7
