REMARK  Name = ZINC64337862
REMARK  11 active torsions:
REMARK  status: ('A' for Active; 'I' for Inactive)
REMARK    1  A    between atoms: C_1  and  C_2
REMARK    2  A    between atoms: C_16  and  C_17
REMARK    3  A    between atoms: C_17  and  O_19
REMARK    4  A    between atoms: O_19  and  C_20
REMARK    5  A    between atoms: C_20  and  C_21
REMARK    6  A    between atoms: C_21  and  C_23
REMARK    7  A    between atoms: C_25  and  C_34
REMARK    8  A    between atoms: C_27  and  C_30
REMARK    9  A    between atoms: C_28  and  C_29
REMARK   10  A    between atoms: C_30  and  O_32
REMARK   11  A    between atoms: O_32  and  C_33
REMARK                            x       y       z     vdW  Elec       q    Type
REMARK                         _______ _______ _______ _____ _____    ______ ____
ROOT
ATOM      1  C   UNL     1       0.028  -0.170   2.547  0.00  0.00    +0.347 C 
ATOM      2  O   UNL     1       0.012   1.031   2.737  0.00  0.00    -0.244 OA
ENDROOT
BRANCH   1  18
ATOM      3  C   UNL     1      -0.018   1.503   0.010  0.00  0.00    +0.046 C 
ATOM      4  C   UNL     1       0.002  -0.004   0.002  0.00  0.00    -0.015 A 
ATOM      5  C   UNL     1       0.005  -0.697  -1.210  0.00  0.00    +0.076 A 
ATOM      6  C   UNL     1       0.025  -2.108  -1.113  0.00  0.00    +0.116 A 
ATOM      7  N   UNL     1       0.025  -2.884  -2.188  0.00  0.00    -0.226 NA
ATOM      8  C   UNL     1       0.004  -2.387  -3.393  0.00  0.00    +0.114 A 
ATOM      9  N   UNL     1      -0.013  -1.041  -3.612  0.00  0.00    -0.296 N 
ATOM     10  C   UNL     1      -0.008  -0.165  -2.592  0.00  0.00    +0.263 A 
ATOM     11  O   UNL     1      -0.014   1.035  -2.799  0.00  0.00    -0.267 OA
ATOM     12  C   UNL     1      -0.040  -0.564  -5.001  0.00  0.00    +0.126 C 
ATOM     13  C   UNL     1      -1.432  -0.794  -5.583  0.00  0.00    +0.022 C 
ATOM     14  C   UNL     1      -1.537  -2.164  -6.231  0.00  0.00    +0.002 C 
ATOM     15  C   UNL     1      -1.402  -3.288  -5.218  0.00  0.00    +0.008 C 
ATOM     16  C   UNL     1      -0.008  -3.303  -4.595  0.00  0.00    +0.074 C 
ATOM     17  S   UNL     1       0.040  -2.396   0.639  0.00  0.00    -0.062 S 
ATOM     18  C   UNL     1       0.023  -0.695   1.179  0.00  0.00    +0.102 A 
ENDBRANCH   1  18
BRANCH   1  19
ATOM     19  O   UNL     1       0.050  -1.019   3.595  0.00  0.00    -0.453 OA
BRANCH  19  20
ATOM     20  C   UNL     1       0.054  -0.438   4.900  0.00  0.00    +0.313 C 
BRANCH  20  21
ATOM     21  C   UNL     1       0.080  -1.532   5.937  0.00  0.00    +0.218 C 
ATOM     22  O   UNL     1       0.093  -2.690   5.593  0.00  0.00    -0.287 OA
BRANCH  21  23
ATOM     23  C   UNL     1       0.088  -1.187   7.378  0.00  0.00    +0.108 C 
ATOM     24  N   UNL     1       0.069   0.023   7.845  0.00  0.00    -0.272 NA
ATOM     25  C   UNL     1       0.085  -0.045   9.311  0.00  0.00    +0.140 C 
ATOM     26  C   UNL     1       0.117  -1.519   9.651  0.00  0.00    +0.065 C 
ATOM     27  C   UNL     1       0.113  -2.170   8.471  0.00  0.00    -0.010 C 
ATOM     28  C   UNL     1       0.133  -3.667   8.299  0.00  0.00    +0.046 C 
ATOM     29  C   UNL     1      -1.177   0.604   9.884  0.00  0.00    +0.038 C 
BRANCH  26  30
ATOM     30  C   UNL     1       0.143  -2.118  10.993  0.00  0.00    +0.337 C 
ATOM     31  O   UNL     1       0.167  -3.326  11.118  0.00  0.00    -0.245 OA
BRANCH  30  32
ATOM     32  O   UNL     1       0.138  -1.326  12.084  0.00  0.00    -0.465 OA
ATOM     33  C   UNL     1       0.164  -1.976  13.357  0.00  0.00    +0.280 C 
ENDBRANCH  30  32
ENDBRANCH  26  30
ENDBRANCH  21  23
ENDBRANCH  20  21
ENDBRANCH  19  20
ENDBRANCH   1  19
TORSDOF 7
