REMARK  Name = ZINC39623329
REMARK  7 active torsions:
REMARK  status: ('A' for Active; 'I' for Inactive)
REMARK    1  A    between atoms: C_1  and  C_2
REMARK    2  A    between atoms: C_2  and  C_3
REMARK    3  A    between atoms: C_3  and  C_4
REMARK    4  A    between atoms: C_4  and  C_5
REMARK    5  A    between atoms: C_5  and  N_6
REMARK    6  A    between atoms: C_7  and  C_9
REMARK    7  A    between atoms: C_20  and  C_22
REMARK                            x       y       z     vdW  Elec       q    Type
REMARK                         _______ _______ _______ _____ _____    ______ ____
ROOT
ATOM      1  C   UNL     1      -3.966  -6.254   0.006  0.00  0.00    +0.100 C 
ATOM      2  C   UNL     1      -3.178  -6.788   1.224  0.00  0.00    +0.121 C 
ATOM      3  N   UNL     1      -4.213  -7.056   2.250  0.00  0.00    -0.296 N 
ATOM      4  C   UNL     1      -5.349  -7.627   1.488  0.00  0.00    +0.115 C 
ATOM      5  C   UNL     1      -5.389  -6.810   0.182  0.00  0.00    -0.004 C 
ATOM      6  C   UNL     1      -5.753  -7.712  -0.994  0.00  0.00    -0.010 C 
ATOM      7  C   UNL     1      -7.192  -8.205  -0.827  0.00  0.00    -0.082 C 
ATOM      8  N   UNL     1      -8.102  -7.055  -0.766  0.00  0.00    +0.379 N 
ATOM      9  C   UNL     1      -7.805  -6.243   0.420  0.00  0.00    -0.082 C 
ATOM     10  C   UNL     1      -6.391  -5.667   0.305  0.00  0.00    -0.010 C 
ATOM     11  C   UNL     1      -4.138  -6.832   3.577  0.00  0.00    +0.252 C 
ATOM     12  O   UNL     1      -5.079  -7.109   4.295  0.00  0.00    -0.270 OA
ATOM     13  H   UNL     1      -7.986  -6.491  -1.595  0.00  0.00    -0.086 HD
ATOM     14  H   UNL     1      -9.055  -7.383  -0.718  0.00  0.00    -0.086 HD
ENDROOT
BRANCH  11  15
ATOM     15  C   UNL     1      -2.912  -6.252   4.159  0.00  0.00    +0.107 A 
ATOM     16  C   UNL     1      -2.780  -4.864   4.280  0.00  0.00    +0.138 A 
ATOM     17  C   UNL     1      -1.628  -4.329   4.826  0.00  0.00    +0.039 A 
ATOM     18  C   UNL     1      -0.609  -5.161   5.253  0.00  0.00    +0.006 A 
ATOM     19  C   UNL     1      -0.732  -6.534   5.137  0.00  0.00    +0.039 A 
ATOM     20  C   UNL     1      -1.879  -7.086   4.599  0.00  0.00    +0.138 A 
ATOM     21  F   UNL     1      -1.999  -8.428   4.491  0.00  0.00    -0.205 F 
ATOM     22  F   UNL     1      -3.774  -4.050   3.863  0.00  0.00    -0.205 F 
ENDBRANCH  11  15
BRANCH   1  24
ATOM     23  N   UNL     1      -4.084  -4.069  -1.145  0.00  0.00    -0.315 N 
ATOM     24  C   UNL     1      -3.986  -4.748   0.015  0.00  0.00    +0.218 C 
ATOM     25  O   UNL     1      -3.914  -4.146   1.065  0.00  0.00    -0.275 OA
ATOM     26  H   UNL     1      -4.141  -4.550  -1.986  0.00  0.00    +0.149 HD
BRANCH  23  27
ATOM     27  C   UNL     1      -4.104  -2.604  -1.137  0.00  0.00    +0.104 C 
BRANCH  27  28
ATOM     28  C   UNL     1      -4.220  -2.087  -2.573  0.00  0.00    +0.019 C 
BRANCH  28  29
ATOM     29  C   UNL     1      -4.241  -0.557  -2.565  0.00  0.00    +0.001 C 
BRANCH  29  31
ATOM     30  C   UNL     1      -4.378   1.489  -3.992  0.00  0.00    +0.004 C 
ATOM     31  C   UNL     1      -4.357  -0.041  -4.000  0.00  0.00    -0.003 C 
ENDBRANCH  29  31
ENDBRANCH  28  29
ENDBRANCH  27  28
ENDBRANCH  23  27
ENDBRANCH   1  24
TORSDOF 6
