REMARK  Name = ZINC40089676
REMARK  7 active torsions:
REMARK  status: ('A' for Active; 'I' for Inactive)
REMARK    1  A    between atoms: C_1  and  C_2
REMARK    2  A    between atoms: C_2  and  C_4
REMARK    3  A    between atoms: C_2  and  S_15
REMARK    4  A    between atoms: N_8  and  C_9
REMARK    5  A    between atoms: S_15  and  C_16
REMARK    6  A    between atoms: C_19  and  S_22
REMARK    7  A    between atoms: S_22  and  N_25
REMARK                            x       y       z     vdW  Elec       q    Type
REMARK                         _______ _______ _______ _____ _____    ______ ____
ROOT
ATOM      1  C   UNL     1       2.533  -0.042   1.241  0.00  0.00    +0.098 A 
ATOM      2  C   UNL     1       3.502  -0.336   2.196  0.00  0.00    +0.037 A 
ATOM      3  C   UNL     1       4.795   0.112   2.002  0.00  0.00    +0.032 A 
ATOM      4  C   UNL     1       5.079   0.842   0.855  0.00  0.00    +0.124 A 
ATOM      5  C   UNL     1       4.070   1.097  -0.052  0.00  0.00    +0.140 A 
ATOM      6  N   UNL     1       2.845   0.652   0.157  0.00  0.00    -0.247 NA
ENDROOT
BRANCH   4   7
ATOM      7  S   UNL     1       6.711   1.437   0.560  0.00  0.00    +0.062 S 
ATOM      8  O   UNL     1       6.586   2.552  -0.312  0.00  0.00    -0.153 OA
ATOM      9  O   UNL     1       7.346   1.528   1.828  0.00  0.00    -0.153 OA
BRANCH   7  10
ATOM     10  N   UNL     1       7.515   0.262  -0.287  0.00  0.00    -0.177 NA
ATOM     11  C   UNL     1       8.258  -0.792   0.416  0.00  0.00    +0.109 C 
ATOM     12  C   UNL     1       7.777  -2.156  -0.089  0.00  0.00    +0.017 C 
ATOM     13  C   UNL     1       7.905  -2.206  -1.613  0.00  0.00    +0.003 C 
ATOM     14  C   UNL     1       7.024  -1.121  -2.237  0.00  0.00    +0.017 C 
ATOM     15  C   UNL     1       7.492   0.251  -1.756  0.00  0.00    +0.109 C 
ENDBRANCH   7  10
ENDBRANCH   4   7
BRANCH   1  16
ATOM     16  S   UNL     1       0.879  -0.605   1.472  0.00  0.00    -0.095 S 
BRANCH  16  18
ATOM     17  C   UNL     1      -0.019   1.526   0.010  0.00  0.00    +0.028 C 
ATOM     18  C   UNL     1       0.002  -0.004   0.002  0.00  0.00    +0.119 C 
BRANCH  18  19
ATOM     19  C   UNL     1      -1.412  -0.526   0.013  0.00  0.00    +0.170 A 
ATOM     20  N   UNL     1      -2.225  -0.539   1.036  0.00  0.00    -0.112 NA
ATOM     21  N   UNL     1      -3.357  -1.050   0.708  0.00  0.00    -0.023 NA
ATOM     22  N   UNL     1      -3.346  -1.397  -0.534  0.00  0.00    -0.039 NA
ATOM     23  N   UNL     1      -2.076  -1.061  -1.034  0.00  0.00    -0.196 N 
BRANCH  23  24
ATOM     24  C   UNL     1      -1.599  -1.246  -2.341  0.00  0.00    +0.069 A 
ATOM     25  C   UNL     1      -0.726  -0.323  -2.899  0.00  0.00    +0.028 A 
ATOM     26  C   UNL     1      -0.258  -0.507  -4.186  0.00  0.00    +0.002 A 
ATOM     27  C   UNL     1      -0.659  -1.610  -4.918  0.00  0.00    +0.000 A 
ATOM     28  C   UNL     1      -1.529  -2.531  -4.364  0.00  0.00    +0.002 A 
ATOM     29  C   UNL     1      -1.995  -2.355  -3.075  0.00  0.00    +0.028 A 
ENDBRANCH  23  24
ENDBRANCH  18  19
ENDBRANCH  16  18
ENDBRANCH   1  16
TORSDOF 6
