REMARK  Name = ZINC40842957
REMARK  7 active torsions:
REMARK  status: ('A' for Active; 'I' for Inactive)
REMARK    1  A    between atoms: C_1  and  C_2
REMARK    2  A    between atoms: C_2  and  C_4
REMARK    3  A    between atoms: C_2  and  N_10
REMARK    4  A    between atoms: C_11  and  C_13
REMARK    5  A    between atoms: C_13  and  C_14
REMARK    6  A    between atoms: C_14  and  N_15
REMARK    7  A    between atoms: C_28  and  C_29
REMARK                            x       y       z     vdW  Elec       q    Type
REMARK                         _______ _______ _______ _____ _____    ______ ____
ROOT
ATOM      1  N   UNL     1      -0.816  -1.103   7.710  0.00  0.00    -0.303 N 
ATOM      2  C   UNL     1      -0.973  -2.375   8.255  0.00  0.00    +0.069 A 
ATOM      3  C   UNL     1      -2.219  -2.991   8.222  0.00  0.00    +0.028 A 
ATOM      4  C   UNL     1      -2.382  -4.252   8.760  0.00  0.00    +0.002 A 
ATOM      5  C   UNL     1      -1.307  -4.909   9.334  0.00  0.00    +0.002 A 
ATOM      6  C   UNL     1      -0.065  -4.307   9.373  0.00  0.00    +0.028 A 
ATOM      7  C   UNL     1       0.110  -3.038   8.835  0.00  0.00    +0.074 A 
ATOM      8  N   UNL     1       1.362  -2.431   8.873  0.00  0.00    -0.269 N 
ATOM      9  C   UNL     1       1.534  -1.177   8.341  0.00  0.00    +0.227 A 
ATOM     10  C   UNL     1       0.386  -0.492   7.730  0.00  0.00    +0.297 A 
ATOM     11  O   UNL     1       0.519   0.617   7.248  0.00  0.00    -0.264 OA
ATOM     12  N   UNL     1       2.797  -0.852   8.512  0.00  0.00    -0.123 NA
ATOM     13  N   UNL     1       3.415  -1.811   9.109  0.00  0.00    -0.128 NA
ATOM     14  C   UNL     1       2.578  -2.804   9.353  0.00  0.00    +0.169 A 
ENDROOT
BRANCH  14  15
ATOM     15  C   UNL     1       2.902  -4.082  10.022  0.00  0.00    +0.020 A 
ATOM     16  C   UNL     1       2.659  -5.294   9.375  0.00  0.00    +0.011 A 
ATOM     17  C   UNL     1       2.964  -6.482  10.005  0.00  0.00    +0.001 A 
ATOM     18  C   UNL     1       3.511  -6.474  11.276  0.00  0.00    +0.000 A 
ATOM     19  C   UNL     1       3.755  -5.276  11.924  0.00  0.00    +0.001 A 
ATOM     20  C   UNL     1       3.459  -4.080  11.302  0.00  0.00    +0.011 A 
ENDBRANCH  14  15
BRANCH   1  21
ATOM     21  C   UNL     1      -1.966  -0.424   7.106  0.00  0.00    +0.135 C 
BRANCH  21  22
ATOM     22  C   UNL     1      -2.045  -0.780   5.620  0.00  0.00    +0.117 C 
BRANCH  22  24
ATOM     23  N   UNL     1      -3.495  -0.250   3.688  0.00  0.00    -0.309 N 
ATOM     24  C   UNL     1      -3.227  -0.082   4.998  0.00  0.00    +0.215 C 
ATOM     25  O   UNL     1      -3.936   0.630   5.677  0.00  0.00    -0.276 OA
ATOM     26  H   UNL     1      -2.928  -0.819   3.146  0.00  0.00    +0.149 HD
BRANCH  23  28
ATOM     27  C   UNL     1      -4.241   1.845   2.670  0.00  0.00    +0.033 C 
ATOM     28  C   UNL     1      -4.645   0.429   3.084  0.00  0.00    +0.100 C 
BRANCH  28  29
ATOM     29  C   UNL     1      -5.100  -0.339   1.870  0.00  0.00    -0.027 A 
ATOM     30  C   UNL     1      -4.167  -0.897   1.015  0.00  0.00    +0.005 A 
ATOM     31  C   UNL     1      -4.585  -1.601  -0.099  0.00  0.00    +0.000 A 
ATOM     32  C   UNL     1      -5.934  -1.748  -0.358  0.00  0.00    +0.000 A 
ATOM     33  C   UNL     1      -6.867  -1.190   0.497  0.00  0.00    +0.000 A 
ATOM     34  C   UNL     1      -6.450  -0.490   1.613  0.00  0.00    +0.005 A 
ENDBRANCH  28  29
ENDBRANCH  23  28
ENDBRANCH  22  24
ENDBRANCH  21  22
ENDBRANCH   1  21
TORSDOF 6
