REMARK  Name = ZINC59941812
REMARK  10 active torsions:
REMARK  status: ('A' for Active; 'I' for Inactive)
REMARK    1  A    between atoms: C_1  and  C_2
REMARK    2  A    between atoms: C_2  and  O_3
REMARK    3  A    between atoms: O_3  and  C_4
REMARK    4  A    between atoms: C_4  and  C_6
REMARK    5  A    between atoms: C_10  and  N_11
REMARK    6  A    between atoms: C_12  and  C_14
REMARK    7  A    between atoms: C_14  and  S_15
REMARK    8  A    between atoms: S_15  and  C_16
REMARK    9  A    between atoms: C_21  and  N_29
REMARK   10  A    between atoms: N_22  and  C_23
REMARK                            x       y       z     vdW  Elec       q    Type
REMARK                         _______ _______ _______ _____ _____    ______ ____
ROOT
ATOM      1  N   UNL     1      -0.677   0.074  -5.036  0.00  0.00    -0.279 N 
ATOM      2  C   UNL     1      -1.175  -0.684  -6.034  0.00  0.00    +0.228 C 
ATOM      3  O   UNL     1      -0.441  -1.091  -6.910  0.00  0.00    -0.275 OA
ATOM      4  H   UNL     1      -1.264   0.400  -4.336  0.00  0.00    +0.155 HD
ENDROOT
BRANCH   1   9
ATOM      5  C   UNL     1       1.353   1.145  -4.079  0.00  0.00    +0.091 A 
ATOM      6  C   UNL     1       2.796   1.340  -4.269  0.00  0.00    -0.021 A 
ATOM      7  C   UNL     1       3.258   0.754  -5.388  0.00  0.00    -0.004 A 
ATOM      8  S   UNL     1       1.858  -0.059  -6.110  0.00  0.00    -0.077 S 
ATOM      9  C   UNL     1       0.672   0.389  -5.012  0.00  0.00    +0.086 A 
ATOM     10  C   UNL     1       4.644   0.812  -5.965  0.00  0.00    +0.043 C 
ATOM     11  C   UNL     1       4.786   2.172  -6.673  0.00  0.00    +0.005 C 
ATOM     12  C   UNL     1       4.422   3.273  -5.671  0.00  0.00    +0.000 C 
ATOM     13  C   UNL     1       5.437   3.159  -4.553  0.00  0.00    +0.000 C 
ATOM     14  C   UNL     1       5.086   2.112  -3.511  0.00  0.00    +0.005 C 
ATOM     15  C   UNL     1       3.594   2.086  -3.204  0.00  0.00    +0.037 C 
BRANCH   5  16
ATOM     16  C   UNL     1       0.658   1.732  -2.931  0.00  0.00    +0.342 C 
ATOM     17  O   UNL     1       0.564   1.106  -1.892  0.00  0.00    -0.245 OA
BRANCH  16  18
ATOM     18  O   UNL     1       0.121   2.965  -3.026  0.00  0.00    -0.461 OA
BRANCH  18  20
ATOM     19  C   UNL     1      -1.082   4.875  -2.163  0.00  0.00    +0.048 C 
ATOM     20  C   UNL     1      -0.543   3.475  -1.867  0.00  0.00    +0.229 C 
ENDBRANCH  18  20
ENDBRANCH  16  18
ENDBRANCH   5  16
ENDBRANCH   1   9
BRANCH   2  21
ATOM     21  C   UNL     1      -2.642  -1.026  -6.060  0.00  0.00    +0.173 C 
BRANCH  21  22
ATOM     22  S   UNL     1      -2.998  -2.050  -7.515  0.00  0.00    -0.078 S 
BRANCH  22  23
ATOM     23  C   UNL     1      -4.729  -2.361  -7.404  0.00  0.00    +0.179 A 
ATOM     24  N   UNL     1      -5.414  -1.854  -6.401  0.00  0.00    -0.185 NA
ATOM     25  C   UNL     1      -6.733  -2.071  -6.287  0.00  0.00    +0.276 A 
ATOM     26  O   UNL     1      -7.355  -1.593  -5.349  0.00  0.00    -0.266 OA
ATOM     27  C   UNL     1      -7.400  -2.853  -7.251  0.00  0.00    +0.114 A 
ATOM     28  C   UNL     1      -6.683  -3.374  -8.289  0.00  0.00    +0.108 A 
ATOM     29  N   UNL     1      -5.336  -3.118  -8.363  0.00  0.00    -0.277 N 
BRANCH  29  30
ATOM     30  C   UNL     1      -4.583  -3.640  -9.423  0.00  0.00    +0.050 A 
ATOM     31  C   UNL     1      -3.995  -4.892  -9.308  0.00  0.00    +0.026 A 
ATOM     32  C   UNL     1      -3.254  -5.404 -10.355  0.00  0.00    +0.002 A 
ATOM     33  C   UNL     1      -3.096  -4.670 -11.516  0.00  0.00    +0.000 A 
ATOM     34  C   UNL     1      -3.680  -3.422 -11.633  0.00  0.00    +0.002 A 
ATOM     35  C   UNL     1      -4.428  -2.908 -10.593  0.00  0.00    +0.026 A 
ENDBRANCH  29  30
BRANCH  28  36
ATOM     36  N   UNL     1      -7.301  -4.142  -9.248  0.00  0.00    -0.344 N 
ATOM     37  H   UNL     1      -8.235  -4.384  -9.148  0.00  0.00    +0.144 HD
ATOM     38  H   UNL     1      -6.803  -4.442 -10.025  0.00  0.00    +0.144 HD
ENDBRANCH  28  36
ENDBRANCH  22  23
ENDBRANCH  21  22
ENDBRANCH   2  21
TORSDOF 9
