REMARK  Name = ZINC43786939
REMARK  10 active torsions:
REMARK  status: ('A' for Active; 'I' for Inactive)
REMARK    1  A    between atoms: C_1  and  C_2
REMARK    2  A    between atoms: C_2  and  O_4
REMARK    3  A    between atoms: O_4  and  C_5
REMARK    4  A    between atoms: C_5  and  C_6
REMARK    5  A    between atoms: C_6  and  C_8
REMARK    6  A    between atoms: C_6  and  O_34
REMARK    7  A    between atoms: C_8  and  O_33
REMARK    8  A    between atoms: C_13  and  C_32
REMARK    9  A    between atoms: C_15  and  O_31
REMARK   10  A    between atoms: C_29  and  C_30
REMARK                            x       y       z     vdW  Elec       q    Type
REMARK                         _______ _______ _______ _____ _____    ______ ____
ROOT
ATOM      1  C   UNL     1      -2.363  -4.247   0.128  0.00  0.00    +0.101 C 
ATOM      2  C   UNL     1      -1.728  -4.618   1.487  0.00  0.00    +0.038 C 
ATOM      3  C   UNL     1      -2.816  -5.374   2.283  0.00  0.00    +0.007 C 
ATOM      4  C   UNL     1      -3.712  -5.999   1.175  0.00  0.00    +0.001 C 
ATOM      5  C   UNL     1      -3.761  -4.863   0.139  0.00  0.00    +0.005 C 
ATOM      6  C   UNL     1      -4.281  -5.324  -1.193  0.00  0.00    +0.041 C 
ATOM      7  C   UNL     1      -3.593  -6.577  -1.734  0.00  0.00    +0.119 C 
ATOM      8  C   UNL     1      -3.568  -7.697  -0.703  0.00  0.00    +0.031 C 
ATOM      9  C   UNL     1      -2.963  -7.214   0.616  0.00  0.00    -0.001 C 
ATOM     10  C   UNL     1      -3.038  -8.316   1.681  0.00  0.00    +0.008 C 
ATOM     11  C   UNL     1      -2.227  -9.539   1.239  0.00  0.00    +0.032 C 
ATOM     12  C   UNL     1      -2.795  -9.954  -0.107  0.00  0.00    -0.060 C 
ATOM     13  C   UNL     1      -3.252 -11.190  -0.259  0.00  0.00    +0.046 C 
ATOM     14  C   UNL     1      -3.862 -11.602  -1.529  0.00  0.00    +0.156 C 
ATOM     15  O   UNL     1      -3.999 -12.766  -1.835  0.00  0.00    -0.293 OA
ATOM     16  C   UNL     1      -4.347 -10.477  -2.426  0.00  0.00    +0.080 C 
ATOM     17  C   UNL     1      -3.207  -9.466  -2.536  0.00  0.00    +0.019 C 
ATOM     18  C   UNL     1      -2.792  -8.914  -1.197  0.00  0.00    -0.005 C 
ATOM     19  C   UNL     1      -1.327  -8.504  -1.377  0.00  0.00    +0.016 C 
ATOM     20  C   UNL     1      -4.737  -3.793   0.670  0.00  0.00    +0.014 C 
ENDROOT
BRANCH   7  21
ATOM     21  O   UNL     1      -4.378  -6.981  -2.874  0.00  0.00    -0.391 OA
ATOM     22  H   UNL     1      -4.428  -6.314  -3.573  0.00  0.00    +0.210 HD
ENDBRANCH   7  21
BRANCH   1  23
ATOM     23  O   UNL     1      -1.568  -4.760  -0.939  0.00  0.00    -0.385 OA
ATOM     24  H   UNL     1      -0.667  -4.409  -0.963  0.00  0.00    +0.210 HD
ENDBRANCH   1  23
BRANCH   1  25
ATOM     25  C   UNL     1      -2.463  -2.721   0.011  0.00  0.00    +0.184 C 
BRANCH  25  26
ATOM     26  O   UNL     1      -3.137  -2.379  -1.202  0.00  0.00    -0.386 OA
ATOM     27  H   UNL     1      -2.695  -2.698  -2.001  0.00  0.00    +0.210 HD
ENDBRANCH  25  26
BRANCH  25  28
ATOM     28  C   UNL     1      -1.057  -2.117   0.001  0.00  0.00    +0.266 C 
BRANCH  28  29
ATOM     29  O   UNL     1      -1.151  -0.691   0.009  0.00  0.00    -0.462 OA
BRANCH  29  31
ATOM     30  C   UNL     1      -0.018   1.503   0.010  0.00  0.00    +0.136 C 
ATOM     31  C   UNL     1       0.002  -0.004   0.002  0.00  0.00    +0.304 C 
ATOM     32  O   UNL     1       1.056  -0.594  -0.011  0.00  0.00    -0.251 OA
ENDBRANCH  29  31
ENDBRANCH  28  29
ENDBRANCH  25  28
ENDBRANCH   1  25
TORSDOF 7
