REMARK  Name = ZINC39775040
REMARK  7 active torsions:
REMARK  status: ('A' for Active; 'I' for Inactive)
REMARK    1  A    between atoms: C_1  and  C_2
REMARK    2  A    between atoms: C_2  and  C_3
REMARK    3  A    between atoms: C_2  and  C_4
REMARK    4  A    between atoms: C_4  and  C_5
REMARK    5  A    between atoms: C_5  and  S_6
REMARK    6  A    between atoms: S_6  and  C_7
REMARK    7  A    between atoms: C_13  and  C_25
REMARK                            x       y       z     vdW  Elec       q    Type
REMARK                         _______ _______ _______ _____ _____    ______ ____
ROOT
ATOM      1  C   UNL     1      -4.502  -0.221  -2.813  0.00  0.00    +0.182 C 
ATOM      2  N   UNL     1      -3.726   0.474  -3.637  0.00  0.00    -0.154 NA
ATOM      3  C   UNL     1      -4.194   0.985  -4.766  0.00  0.00    +0.250 C 
ATOM      4  O   UNL     1      -3.437   1.572  -5.516  0.00  0.00    -0.273 OA
ATOM      5  C   UNL     1      -5.637   0.850  -5.135  0.00  0.00    +0.157 C 
ATOM      6  C   UNL     1      -5.818   0.384  -6.576  0.00  0.00    +0.075 C 
ATOM      7  C   UNL     1      -7.289   0.098  -6.799  0.00  0.00    +0.025 C 
ATOM      8  C   UNL     1      -8.059  -0.401  -5.745  0.00  0.00    +0.050 C 
ATOM      9  C   UNL     1      -9.517  -0.729  -5.964  0.00  0.00    +0.056 C 
ATOM     10  C   UNL     1     -10.090   0.216  -7.025  0.00  0.00    +0.014 C 
ATOM     11  C   UNL     1      -9.273   0.063  -8.311  0.00  0.00    +0.080 C 
ATOM     12  C   UNL     1      -7.823   0.335  -8.019  0.00  0.00    +0.162 C 
ATOM     13  O   UNL     1      -7.038   0.827  -8.995  0.00  0.00    -0.292 OA
ATOM     14  N   UNL     1      -7.544  -0.568  -4.542  0.00  0.00    -0.236 NA
ATOM     15  C   UNL     1      -6.345  -0.106  -4.215  0.00  0.00    +0.145 C 
ATOM     16  N   UNL     1      -5.763  -0.530  -3.111  0.00  0.00    -0.208 NA
ENDROOT
BRANCH   6  17
ATOM     17  C   UNL     1      -5.014  -0.869  -6.810  0.00  0.00    -0.021 A 
ATOM     18  C   UNL     1      -4.013  -0.892  -7.770  0.00  0.00    +0.007 A 
ATOM     19  C   UNL     1      -3.299  -2.066  -7.951  0.00  0.00    +0.020 A 
ATOM     20  C   UNL     1      -3.607  -3.168  -7.174  0.00  0.00    +0.111 A 
ATOM     21  N   UNL     1      -4.566  -3.110  -6.271  0.00  0.00    -0.263 NA
ATOM     22  C   UNL     1      -5.261  -2.008  -6.068  0.00  0.00    +0.115 A 
ENDBRANCH   6  17
BRANCH   1  23
ATOM     23  S   UNL     1      -3.837  -0.759  -1.273  0.00  0.00    -0.088 S 
BRANCH  23  24
ATOM     24  C   UNL     1      -2.135  -0.131  -1.286  0.00  0.00    +0.077 C 
BRANCH  24  25
ATOM     25  C   UNL     1      -1.433  -0.534   0.013  0.00  0.00    +0.014 C 
BRANCH  25  27
ATOM     26  C   UNL     1      -0.019   1.526   0.010  0.00  0.00    +0.007 C 
ATOM     27  C   UNL     1       0.002  -0.004   0.002  0.00  0.00    -0.016 C 
ATOM     28  C   UNL     1       0.742  -0.511   1.242  0.00  0.00    +0.007 C 
ENDBRANCH  25  27
ENDBRANCH  24  25
ENDBRANCH  23  24
ENDBRANCH   1  23
TORSDOF 5
