REMARK  Name = ZINC21229903
REMARK  9 active torsions:
REMARK  status: ('A' for Active; 'I' for Inactive)
REMARK    1  A    between atoms: C_1  and  C_2
REMARK    2  A    between atoms: C_2  and  C_3
REMARK    3  A    between atoms: C_3  and  O_4
REMARK    4  A    between atoms: O_4  and  C_5
REMARK    5  A    between atoms: C_8  and  C_11
REMARK    6  A    between atoms: C_16  and  C_26
REMARK    7  A    between atoms: C_28  and  O_34
REMARK    8  A    between atoms: C_29  and  O_33
REMARK    9  A    between atoms: O_34  and  C_35
REMARK                            x       y       z     vdW  Elec       q    Type
REMARK                         _______ _______ _______ _____ _____    ______ ____
ROOT
ATOM      1  C   UNL     1      -2.692   3.022  -2.738  0.00  0.00    +0.032 C 
ATOM      2  C   UNL     1      -1.219   3.118  -3.128  0.00  0.00    +0.059 C 
ATOM      3  C   UNL     1      -0.346   2.632  -1.984  0.00  0.00    +0.017 C 
ATOM      4  C   UNL     1      -0.780   1.666  -1.155  0.00  0.00    +0.036 C 
ATOM      5  C   UNL     1      -0.013   1.086   0.008  0.00  0.00    +0.136 C 
ATOM      6  N   UNL     1       1.386   1.456   0.052  0.00  0.00    -0.331 N 
ATOM      7  C   UNL     1       1.770   2.782   0.246  0.00  0.00    +0.049 A 
ATOM      8  C   UNL     1       2.460   3.178   1.381  0.00  0.00    +0.025 A 
ATOM      9  C   UNL     1       2.778   4.514   1.552  0.00  0.00    +0.002 A 
ATOM     10  C   UNL     1       2.410   5.449   0.601  0.00  0.00    +0.002 A 
ATOM     11  C   UNL     1       1.736   5.054  -0.542  0.00  0.00    +0.025 A 
ATOM     12  C   UNL     1       1.438   3.715  -0.724  0.00  0.00    +0.052 A 
ATOM     13  N   UNL     1       0.868   3.234  -1.898  0.00  0.00    -0.316 N 
ATOM     14  C   UNL     1      -2.064   1.100  -1.334  0.00  0.00    +0.163 C 
ATOM     15  O   UNL     1      -2.425   0.215  -0.583  0.00  0.00    -0.292 OA
ATOM     16  C   UNL     1      -2.997   1.554  -2.417  0.00  0.00    +0.088 C 
ATOM     17  H   UNL     1       2.163   0.687  -0.068  0.00  0.00    +0.147 HD
ATOM     18  H   UNL     1       1.479   3.371  -2.802  0.00  0.00    +0.152 HD
ENDROOT
BRANCH   5  19
ATOM     19  C   UNL     1      -0.669   1.545   1.285  0.00  0.00    -0.018 A 
ATOM     20  C   UNL     1      -1.267   0.623   2.123  0.00  0.00    +0.055 A 
ATOM     21  C   UNL     1      -1.866   1.043   3.300  0.00  0.00    +0.163 A 
ATOM     22  C   UNL     1      -1.873   2.394   3.630  0.00  0.00    +0.177 A 
ATOM     23  C   UNL     1      -1.277   3.315   2.783  0.00  0.00    +0.086 A 
ATOM     24  C   UNL     1      -0.676   2.888   1.611  0.00  0.00    +0.029 A 
ATOM     25 CL   UNL     1      -1.284   5.003   3.190  0.00  0.00    -0.080 Cl
BRANCH  22  26
ATOM     26  O   UNL     1      -2.464   2.812   4.782  0.00  0.00    -0.502 OA
ATOM     27  H   UNL     1      -2.470   3.881   5.042  0.00  0.00    +0.292 HD
ENDBRANCH  22  26
BRANCH  21  28
ATOM     28  O   UNL     1      -2.450   0.136   4.129  0.00  0.00    -0.491 OA
ATOM     29  C   UNL     1      -2.404  -1.234   3.726  0.00  0.00    +0.277 C 
ENDBRANCH  21  28
ENDBRANCH   5  19
BRANCH   1  33
ATOM     30  C   UNL     1      -5.142   4.332  -5.986  0.00  0.00    +0.121 A 
ATOM     31  C   UNL     1      -5.226   4.963  -4.753  0.00  0.00    +0.046 A 
ATOM     32  C   UNL     1      -4.434   4.537  -3.705  0.00  0.00    +0.007 A 
ATOM     33  C   UNL     1      -3.556   3.484  -3.884  0.00  0.00    -0.043 A 
ATOM     34  C   UNL     1      -3.466   2.857  -5.112  0.00  0.00    +0.007 A 
ATOM     35  C   UNL     1      -4.261   3.275  -6.162  0.00  0.00    +0.046 A 
BRANCH  30  36
ATOM     36  O   UNL     1      -5.921   4.748  -7.019  0.00  0.00    -0.492 OA
BRANCH  36  37
ATOM     37  C   UNL     1      -5.780   4.052  -8.259  0.00  0.00    +0.229 C 
BRANCH  37  39
ATOM     38  C   UNL     1      -6.580   3.912 -10.622  0.00  0.00    +0.007 C 
ATOM     39  C   UNL     1      -6.731   4.657  -9.294  0.00  0.00    +0.038 C 
ENDBRANCH  37  39
ENDBRANCH  36  37
ENDBRANCH  30  36
ENDBRANCH   1  33
TORSDOF 7
