REMARK  Name = ZINC40590683
REMARK  5 active torsions:
REMARK  status: ('A' for Active; 'I' for Inactive)
REMARK    1  A    between atoms: CG2_1  and  CB_2
REMARK    2  A    between atoms: CB_2  and  CA_4
REMARK    3  A    between atoms: CB_2  and  OG1_24
REMARK    4  A    between atoms: CA_4  and  C_6
REMARK    5  A    between atoms: CA_4  and  N_9
REMARK                            x       y       z     vdW  Elec       q    Type
REMARK                         _______ _______ _______ _____ _____    ______ ____
ROOT
ATOM      1  N   THR A   1       0.057  -0.037   2.447  0.00  0.00    -0.284 N 
ATOM      2  C   UNK A   0       0.738   0.093   3.602  0.00  0.00    +0.303 C 
ATOM      3  O   UNK A   0       1.898  -0.266   3.668  0.00  0.00    -0.253 OA
ATOM      4  N   UNK A   0       0.134   0.622   4.684  0.00  0.00    -0.285 N 
ATOM      5  C   UNK A   0      -1.297   0.954   4.657  0.00  0.00    +0.109 C 
ATOM      6  C   UNK A   0      -1.472   2.417   5.075  0.00  0.00    +0.023 C 
ATOM      7  C   UNK A   0      -0.805   2.639   6.436  0.00  0.00    -0.005 C 
ATOM      8  C   UNK A   0      -0.999   4.097   6.860  0.00  0.00    +0.004 C 
ATOM      9  C   UNK A   0      -0.376   5.018   5.809  0.00  0.00    +0.000 C 
ATOM     10  C   UNK A   0       1.119   4.718   5.687  0.00  0.00    +0.000 C 
ATOM     11  C   UNK A   0       1.316   3.258   5.271  0.00  0.00    +0.005 C 
ATOM     12  C   UNK A   0       0.691   2.333   6.327  0.00  0.00    +0.010 C 
ATOM     13  C   UNK A   0       0.892   0.874   5.918  0.00  0.00    +0.113 C 
ATOM     14  H   THR A   1      -0.888   0.180   2.413  0.00  0.00    +0.151 HD
ENDROOT
BRANCH   1  15
ATOM     15  CA  THR A   1       0.743  -0.509   1.241  0.00  0.00    +0.216 C 
BRANCH  15  16
ATOM     16  C   THR A   1       0.764  -2.015   1.231  0.00  0.00    +0.378 C 
ATOM     17  O   THR A   1       1.681  -2.609   0.691  0.00  0.00    -0.244 OA
ATOM     18  OXT THR A   1      -0.137  -2.641   1.764  0.00  0.00    -0.244 OA
ENDBRANCH  15  16
BRANCH  15  20
ATOM     19  CG2 THR A   1      -0.018   1.529   0.012  0.00  0.00    +0.040 C 
ATOM     20  CB  THR A   1       0.003  -0.001   0.002  0.00  0.00    +0.143 C 
BRANCH  20  21
ATOM     21  OG1 THR A   1      -1.337  -0.496   0.011  0.00  0.00    -0.390 OA
ATOM     22  HG1 THR A   1      -1.852  -0.223   0.783  0.00  0.00    +0.210 HD
ENDBRANCH  20  21
ENDBRANCH  15  20
ENDBRANCH   1  15
TORSDOF 4
