REMARK  Name = ZINC21674241
REMARK  7 active torsions:
REMARK  status: ('A' for Active; 'I' for Inactive)
REMARK    1  A    between atoms: C_1  and  O_2
REMARK    2  A    between atoms: O_2  and  C_3
REMARK    3  A    between atoms: C_6  and  O_25
REMARK    4  A    between atoms: N_10  and  C_15
REMARK    5  A    between atoms: C_12  and  O_14
REMARK    6  A    between atoms: C_18  and  N_22
REMARK    7  A    between atoms: O_25  and  C_26
REMARK                            x       y       z     vdW  Elec       q    Type
REMARK                         _______ _______ _______ _____ _____    ______ ____
ROOT
ATOM      1  C   UNL     1      -0.017   1.381   0.010  0.00  0.00    +0.125 A 
ATOM      2  C   UNL     1       0.002  -0.004   0.002  0.00  0.00    +0.049 A 
ATOM      3  C   UNL     1       1.209  -0.676  -0.014  0.00  0.00    +0.049 A 
ATOM      4  C   UNL     1       2.395   0.040  -0.024  0.00  0.00    +0.126 A 
ATOM      5  C   UNL     1       2.378   1.431  -0.017  0.00  0.00    +0.032 A 
ATOM      6  C   UNL     1       1.174   2.101   0.002  0.00  0.00    +0.021 A 
ATOM      7  C   UNL     1       1.103   3.605   0.021  0.00  0.00    +0.144 C 
ATOM      8  N   UNL     1       2.382   4.186  -0.400  0.00  0.00    -0.322 N 
ATOM      9  C   UNL     1       3.484   3.619   0.394  0.00  0.00    +0.141 C 
ATOM     10  C   UNL     1       3.693   2.166  -0.034  0.00  0.00    +0.166 C 
ENDROOT
BRANCH   8  11
ATOM     11  C   UNL     1       2.357   5.579  -0.299  0.00  0.00    +0.049 A 
ATOM     12  C   UNL     1       2.192   6.185   0.940  0.00  0.00    +0.027 A 
ATOM     13  C   UNL     1       2.167   7.562   1.036  0.00  0.00    +0.034 A 
ATOM     14  C   UNL     1       2.307   8.339  -0.100  0.00  0.00    +0.128 A 
ATOM     15  C   UNL     1       2.471   7.741  -1.335  0.00  0.00    +0.054 A 
ATOM     16  C   UNL     1       2.502   6.363  -1.438  0.00  0.00    +0.064 A 
ATOM     17 CL   UNL     1       2.717   5.612  -2.988  0.00  0.00    -0.082 Cl
BRANCH  14  18
ATOM     18  N   UNL     1       2.281   9.815   0.008  0.00  0.00    +0.056 N 
ATOM     19  O   UNL     1       2.136  10.344   1.096  0.00  0.00    -0.126 OA
ATOM     20  O   UNL     1       2.404  10.501  -0.991  0.00  0.00    -0.126 OA
ENDBRANCH  14  18
ENDBRANCH   8  11
BRANCH   1  22
ATOM     21  C   UNL     1      -2.391   1.242   0.020  0.00  0.00    +0.277 C 
ATOM     22  O   UNL     1      -1.206   2.041   0.019  0.00  0.00    -0.495 OA
ENDBRANCH   1  22
BRANCH  10  23
ATOM     23  O   UNL     1       4.603   1.533   0.868  0.00  0.00    -0.385 OA
ATOM     24  H   UNL     1       5.620   1.930   0.992  0.00  0.00    +0.210 HD
ENDBRANCH  10  23
BRANCH   4  25
ATOM     25  O   UNL     1       3.583  -0.622  -0.041  0.00  0.00    -0.495 OA
ATOM     26  C   UNL     1       3.531  -2.050  -0.048  0.00  0.00    +0.277 C 
ENDBRANCH   4  25
TORSDOF 5
