REMARK  Name = ZINC64392179
REMARK  5 active torsions:
REMARK  status: ('A' for Active; 'I' for Inactive)
REMARK    1  A    between atoms: C_4  and  C_7
REMARK    2  A    between atoms: C_7  and  C_8
REMARK    3  A    between atoms: C_8  and  N_9
REMARK    4  A    between atoms: C_15  and  C_22
REMARK    5  A    between atoms: C_25  and  C_28
REMARK                            x       y       z     vdW  Elec       q    Type
REMARK                         _______ _______ _______ _____ _____    ______ ____
ROOT
ATOM      1  N   UNL     1       5.450  -1.678   1.382  0.00  0.00    -0.260 N 
ATOM      2  C   UNL     1       5.453  -3.029   1.370  0.00  0.00    +0.264 A 
ATOM      3  O   UNL     1       4.411  -3.655   1.372  0.00  0.00    -0.267 OA
ATOM      4  C   UNL     1       6.753  -3.724   1.352  0.00  0.00    +0.063 A 
ATOM      5  C   UNL     1       6.840  -5.114   1.338  0.00  0.00    +0.016 A 
ATOM      6  C   UNL     1       8.081  -5.717   1.322  0.00  0.00    +0.009 A 
ATOM      7  C   UNL     1       9.234  -4.948   1.319  0.00  0.00    +0.006 A 
ATOM      8  C   UNL     1       9.162  -3.569   1.333  0.00  0.00    +0.034 A 
ATOM      9  C   UNL     1       7.923  -2.946   1.349  0.00  0.00    +0.056 A 
ATOM     10  N   UNL     1       7.806  -1.563   1.363  0.00  0.00    -0.307 N 
ATOM     11  H   UNL     1       8.605  -1.013   1.361  0.00  0.00    +0.170 HD
ATOM     12  C   UNL     1       6.595  -0.979   1.373  0.00  0.00    +0.330 A 
ATOM     13  O   UNL     1       6.535   0.235   1.381  0.00  0.00    -0.246 OA
ENDROOT
BRANCH   7  14
ATOM     14  C   UNL     1      10.581  -5.624   1.302  0.00  0.00    +0.274 C 
ATOM     15  N   UNL     1      10.499  -6.936   1.954  0.00  0.00    -0.339 N 
ATOM     16  C   UNL     1      10.816  -7.850   1.089  0.00  0.00    +0.134 C 
ATOM     17  N   UNL     1      11.120  -7.301  -0.132  0.00  0.00    -0.247 N 
ATOM     18  O   UNL     1      10.987  -5.890  -0.049  0.00  0.00    -0.243 OA
ATOM     19  H   UNL     1      11.383  -7.797  -0.923  0.00  0.00    +0.196 HD
ATOM     20  H   UNL     1      10.250  -7.095   2.877  0.00  0.00    +0.164 HD
BRANCH  16  21
ATOM     21  C   UNL     1      10.846  -9.301   1.382  0.00  0.00    +0.018 A 
ATOM     22  C   UNL     1       9.984  -9.841   2.336  0.00  0.00    +0.011 A 
ATOM     23  C   UNL     1      10.016 -11.194   2.606  0.00  0.00    +0.002 A 
ATOM     24  C   UNL     1      10.902 -12.015   1.932  0.00  0.00    +0.020 A 
ATOM     25  C   UNL     1      11.761 -11.486   0.984  0.00  0.00    +0.042 A 
ATOM     26  C   UNL     1      11.733 -10.134   0.701  0.00  0.00    +0.031 A 
ATOM     27 CL   UNL     1      12.869 -12.525   0.142  0.00  0.00    -0.084 Cl
ENDBRANCH  16  21
ENDBRANCH   7  14
BRANCH   1  28
ATOM     28  C   UNL     1       4.171  -0.963   1.399  0.00  0.00    +0.134 C 
BRANCH  28  29
ATOM     29  C   UNL     1       3.711  -0.707  -0.038  0.00  0.00    +0.057 C 
BRANCH  29  33
ATOM     30  C   UNL     1      -0.017   1.378   0.010  0.00  0.00    +0.000 A 
ATOM     31  C   UNL     1       1.171   2.086   0.002  0.00  0.00    +0.000 A 
ATOM     32  C   UNL     1       2.377   1.411  -0.013  0.00  0.00    +0.004 A 
ATOM     33  C   UNL     1       2.396   0.029  -0.020  0.00  0.00    -0.046 A 
ATOM     34  C   UNL     1       1.208  -0.679  -0.012  0.00  0.00    +0.004 A 
ATOM     35  C   UNL     1       0.002  -0.004   0.002  0.00  0.00    +0.000 A 
ENDBRANCH  29  33
ENDBRANCH  28  29
ENDBRANCH   1  28
TORSDOF 5
