REMARK  Name = ZINC63267417
REMARK  10 active torsions:
REMARK  status: ('A' for Active; 'I' for Inactive)
REMARK    1  A    between atoms: C_1  and  C_2
REMARK    2  A    between atoms: C_3  and  C_28
REMARK    3  A    between atoms: C_10  and  C_13
REMARK    4  A    between atoms: C_13  and  C_14
REMARK    5  A    between atoms: C_14  and  C_15
REMARK    6  A    between atoms: N_17  and  C_18
REMARK    7  A    between atoms: C_20  and  C_26
REMARK    8  A    between atoms: C_20  and  C_27
REMARK    9  A    between atoms: C_22  and  C_24
REMARK   10  A    between atoms: C_22  and  C_25
REMARK                            x       y       z     vdW  Elec       q    Type
REMARK                         _______ _______ _______ _____ _____    ______ ____
ROOT
ATOM      1  C   UNL     1       0.114  -3.991   7.473  0.00  0.00    +0.214 C 
ATOM      2  O   UNL     1       0.179  -5.199   7.391  0.00  0.00    -0.276 OA
ATOM      3  N   UNL     1       0.126  -3.396   8.683  0.00  0.00    -0.313 N 
ATOM      4  H   UNL     1       0.073  -2.430   8.749  0.00  0.00    +0.149 HD
ENDROOT
BRANCH   3   5
ATOM      5  C   UNL     1       0.218  -4.211   9.901  0.00  0.00    +0.070 C 
ATOM      6  C   UNL     1       1.692  -4.476  10.217  0.00  0.00    +0.009 C 
ATOM      7  C   UNL     1       1.805  -5.314  11.490  0.00  0.00    -0.072 C 
ATOM      8  N   UNL     1       1.094  -4.711  12.608  0.00  0.00    +0.386 N 
ATOM      9  C   UNL     1      -0.257  -4.229  12.368  0.00  0.00    -0.072 C 
ATOM     10  C   UNL     1      -0.392  -3.440  11.070  0.00  0.00    +0.009 C 
ATOM     11  C   UNL     1      -1.278  -5.369  12.396  0.00  0.00    -0.010 C 
ATOM     12  C   UNL     1      -0.620  -3.271  13.528  0.00  0.00    -0.010 C 
ATOM     13  C   UNL     1       3.304  -5.373  11.867  0.00  0.00    -0.010 C 
ATOM     14  C   UNL     1       1.348  -6.747  11.222  0.00  0.00    -0.010 C 
ATOM     15  H   UNL     1       1.063  -5.391  13.373  0.00  0.00    -0.084 HD
ATOM     16  H   UNL     1       1.655  -3.933  12.963  0.00  0.00    -0.084 HD
ENDBRANCH   3   5
BRANCH   1  17
ATOM     17  C   UNL     1       0.019  -3.154   6.223  0.00  0.00    +0.103 C 
BRANCH  17  18
ATOM     18  C   UNL     1       0.024  -4.068   4.996  0.00  0.00    +0.083 C 
BRANCH  18  28
ATOM     19  C   UNL     1      -0.420   0.421   0.033  0.00  0.00    +0.045 C 
ATOM     20  C   UNL     1      -0.331  -1.080   0.137  0.00  0.00    -0.026 A 
ATOM     21  C   UNL     1      -0.325  -1.839  -0.970  0.00  0.00    -0.008 A 
ATOM     22  S   UNL     1      -0.208  -3.499  -0.328  0.00  0.00    -0.075 S 
ATOM     23  C   UNL     1      -0.172  -3.121   1.403  0.00  0.00    +0.092 A 
ATOM     24  C   UNL     1      -0.245  -1.722   1.436  0.00  0.00    +0.075 A 
ATOM     25  C   UNL     1      -0.227  -1.125   2.790  0.00  0.00    +0.282 A 
ATOM     26  O   UNL     1      -0.291   0.085   2.934  0.00  0.00    -0.265 OA
ATOM     27  N   UNL     1      -0.141  -1.934   3.856  0.00  0.00    -0.195 NA
ATOM     28  C   UNL     1      -0.071  -3.232   3.747  0.00  0.00    +0.112 A 
ATOM     29  N   UNL     1      -0.092  -3.847   2.547  0.00  0.00    -0.337 N 
ATOM     30  H   UNL     1      -0.039  -4.814   2.501  0.00  0.00    +0.168 HD
ATOM     31  C   UNL     1      -0.398  -1.395  -2.408  0.00  0.00    +0.052 C 
ENDBRANCH  18  28
ENDBRANCH  17  18
ENDBRANCH   1  17
TORSDOF 4
