REMARK  Name = ZINC20206784
REMARK  11 active torsions:
REMARK  status: ('A' for Active; 'I' for Inactive)
REMARK    1  A    between atoms: C_1  and  C_2
REMARK    2  A    between atoms: C_2  and  S_3
REMARK    3  A    between atoms: S_3  and  C_6
REMARK    4  A    between atoms: C_14  and  C_15
REMARK    5  A    between atoms: C_18  and  O_21
REMARK    6  A    between atoms: O_21  and  C_22
REMARK    7  A    between atoms: C_22  and  C_23
REMARK    8  A    between atoms: C_23  and  C_24
REMARK    9  A    between atoms: C_24  and  O_25
REMARK   10  A    between atoms: O_25  and  C_26
REMARK   11  A    between atoms: C_31  and  C_32
REMARK                            x       y       z     vdW  Elec       q    Type
REMARK                         _______ _______ _______ _____ _____    ______ ____
ROOT
ATOM      1  C   UNL     1      -2.836   1.777   2.064  0.00  0.00    +0.257 C 
ATOM      2  N   UNL     1      -3.389   2.892   1.697  0.00  0.00    -0.174 NA
ATOM      3  S   UNL     1      -4.517   2.432   0.546  0.00  0.00    +0.049 S 
ATOM      4  C   UNL     1      -4.295   0.781   0.593  0.00  0.00    +0.183 C 
ATOM      5  N   UNL     1      -4.924  -0.178  -0.049  0.00  0.00    -0.152 NA
ATOM      6  C   UNL     1      -4.609  -1.462   0.203  0.00  0.00    +0.273 C 
ATOM      7  O   UNL     1      -5.080  -2.365  -0.470  0.00  0.00    -0.268 OA
ATOM      8  C   UNL     1      -3.673  -1.753   1.317  0.00  0.00    +0.079 C 
ATOM      9  C   UNL     1      -3.681  -2.962   1.976  0.00  0.00    +0.024 C 
ATOM     10  C   UNL     1      -2.724  -0.663   1.683  0.00  0.00    +0.138 C 
ATOM     11  N   UNL     1      -1.520  -0.881   2.139  0.00  0.00    -0.284 NA
ATOM     12  N   UNL     1      -3.253   0.628   1.483  0.00  0.00    -0.201 N 
ATOM     13  H   UNL     1      -1.203  -1.791   2.254  0.00  0.00    +0.188 HD
ENDROOT
BRANCH   9  14
ATOM     14  C   UNL     1      -4.746  -3.932   1.713  0.00  0.00    -0.024 A 
ATOM     15  C   UNL     1      -4.455  -5.303   1.675  0.00  0.00    +0.011 A 
ATOM     16  C   UNL     1      -5.456  -6.207   1.429  0.00  0.00    +0.046 A 
ATOM     17  C   UNL     1      -6.758  -5.766   1.216  0.00  0.00    +0.121 A 
ATOM     18  C   UNL     1      -7.053  -4.407   1.252  0.00  0.00    +0.046 A 
ATOM     19  C   UNL     1      -6.062  -3.494   1.504  0.00  0.00    +0.011 A 
BRANCH  17  20
ATOM     20  O   UNL     1      -7.745  -6.665   0.972  0.00  0.00    -0.492 OA
BRANCH  20  21
ATOM     21  C   UNL     1      -9.059  -6.145   0.761  0.00  0.00    +0.232 C 
BRANCH  21  22
ATOM     22  C   UNL     1     -10.029  -7.300   0.503  0.00  0.00    +0.082 C 
BRANCH  22  23
ATOM     23  C   UNL     1     -11.436  -6.743   0.278  0.00  0.00    +0.232 C 
BRANCH  23  24
ATOM     24  O   UNL     1     -12.342  -7.822   0.037  0.00  0.00    -0.492 OA
BRANCH  24  25
ATOM     25  C   UNL     1     -13.643  -7.497  -0.184  0.00  0.00    +0.123 A 
ATOM     26  C   UNL     1     -14.039  -6.167  -0.174  0.00  0.00    +0.046 A 
ATOM     27  C   UNL     1     -15.362  -5.839  -0.399  0.00  0.00    +0.004 A 
ATOM     28  C   UNL     1     -16.292  -6.835  -0.634  0.00  0.00    +0.000 A 
ATOM     29  C   UNL     1     -15.900  -8.161  -0.643  0.00  0.00    +0.007 A 
ATOM     30  C   UNL     1     -14.577  -8.494  -0.425  0.00  0.00    -0.009 A 
ATOM     31  C   UNL     1     -14.150  -9.939  -0.442  0.00  0.00    +0.047 C 
ENDBRANCH  24  25
ENDBRANCH  23  24
ENDBRANCH  22  23
ENDBRANCH  21  22
ENDBRANCH  20  21
ENDBRANCH  17  20
ENDBRANCH   9  14
BRANCH   1  32
ATOM     32  S   UNL     1      -1.567   1.761   3.287  0.00  0.00    +0.029 S 
ATOM     33  O   UNL     1      -1.748   0.534   3.980  0.00  0.00    -0.167 OA
ATOM     34  O   UNL     1      -1.700   3.003   3.965  0.00  0.00    -0.167 OA
BRANCH  32  36
ATOM     35  C   UNL     1       1.168   1.708   3.317  0.00  0.00    +0.028 C 
ATOM     36  C   UNL     1      -0.015   1.725   2.347  0.00  0.00    +0.172 C 
ENDBRANCH  32  36
ENDBRANCH   1  32
TORSDOF 9
