REMARK  Name = ZINC10536605
REMARK  13 active torsions:
REMARK  status: ('A' for Active; 'I' for Inactive)
REMARK    1  A    between atoms: C_1  and  C_2
REMARK    2  A    between atoms: C_4  and  C_33
REMARK    3  A    between atoms: C_6  and  N_8
REMARK    4  A    between atoms: C_18  and  S_19
REMARK    5  A    between atoms: S_19  and  C_20
REMARK    6  A    between atoms: C_20  and  C_22
REMARK    7  A    between atoms: C_20  and  C_23
REMARK    8  A    between atoms: N_25  and  C_26
REMARK    9  A    between atoms: C_26  and  C_27
REMARK   10  A    between atoms: C_26  and  C_28
REMARK   11  A    between atoms: C_26  and  C_30
REMARK   12  A    between atoms: C_30  and  C_31
REMARK   13  A    between atoms: C_30  and  C_32
REMARK                            x       y       z     vdW  Elec       q    Type
REMARK                         _______ _______ _______ _____ _____    ______ ____
ROOT
ATOM      1  N   UNL     1       0.421  -1.593   3.497  0.00  0.00    -0.255 N 
ATOM      2  C   UNL     1       0.652  -2.864   3.097  0.00  0.00    +0.267 A 
ATOM      3  O   UNL     1       1.479  -3.561   3.657  0.00  0.00    -0.267 OA
ATOM      4  C   UNL     1      -0.130  -3.374   1.963  0.00  0.00    +0.065 A 
ATOM      5  C   UNL     1       0.034  -4.670   1.477  0.00  0.00    +0.015 A 
ATOM      6  C   UNL     1      -0.721  -5.094   0.419  0.00  0.00    +0.001 A 
ATOM      7  C   UNL     1      -1.648  -4.248  -0.175  0.00  0.00    +0.002 A 
ATOM      8  C   UNL     1      -1.830  -2.973   0.280  0.00  0.00    +0.028 A 
ATOM      9  C   UNL     1      -1.073  -2.510   1.361  0.00  0.00    +0.079 A 
ATOM     10  N   UNL     1      -1.225  -1.256   1.848  0.00  0.00    -0.223 NA
ATOM     11  C   UNL     1      -0.512  -0.823   2.857  0.00  0.00    +0.177 A 
ENDROOT
BRANCH   1  17
ATOM     12  C   UNL     1       4.355   0.838   5.170  0.00  0.00    +0.044 C 
ATOM     13  C   UNL     1       3.051   0.123   5.413  0.00  0.00    -0.048 A 
ATOM     14  C   UNL     1       2.564  -0.009   6.701  0.00  0.00    +0.006 A 
ATOM     15  C   UNL     1       1.369  -0.665   6.928  0.00  0.00    -0.048 A 
ATOM     16  C   UNL     1       0.656  -1.191   5.868  0.00  0.00    +0.029 A 
ATOM     17  C   UNL     1       1.141  -1.060   4.574  0.00  0.00    +0.052 A 
ATOM     18  C   UNL     1       2.345  -0.406   4.349  0.00  0.00    +0.029 A 
ATOM     19  C   UNL     1       0.842  -0.806   8.333  0.00  0.00    +0.044 C 
ENDBRANCH   1  17
BRANCH  11  20
ATOM     20  S   UNL     1      -0.770   0.826   3.422  0.00  0.00    -0.075 S 
BRANCH  20  21
ATOM     21  C   UNL     1      -2.057   1.357   2.265  0.00  0.00    +0.137 C 
ATOM     22  C   UNL     1      -1.486   1.385   0.846  0.00  0.00    +0.029 C 
BRANCH  21  23
ATOM     23  C   UNL     1      -2.534   2.736   2.643  0.00  0.00    +0.227 C 
ATOM     24  O   UNL     1      -1.805   3.481   3.262  0.00  0.00    -0.275 OA
ATOM     25  N   UNL     1      -3.771   3.140   2.292  0.00  0.00    -0.296 N 
ATOM     26  H   UNL     1      -4.432   2.463   1.731  0.00  0.00    +0.150 HD
BRANCH  25  27
ATOM     27  C   UNL     1      -4.236   4.480   2.659  0.00  0.00    +0.121 C 
ATOM     28  C   UNL     1      -3.313   5.528   2.033  0.00  0.00    +0.048 C 
BRANCH  27  29
ATOM     29  C   UNL     1      -5.662   4.684   2.145  0.00  0.00    +0.020 C 
ATOM     30  C   UNL     1      -6.192   6.033   2.634  0.00  0.00    +0.010 C 
ATOM     31  C   UNL     1      -5.661   4.660   0.615  0.00  0.00    +0.010 C 
ENDBRANCH  27  29
BRANCH  27  32
ATOM     32  C   UNL     1      -4.217   4.622   4.124  0.00  0.00    +0.088 C 
ATOM     33  N   UNL     1      -4.202   4.731   5.255  0.00  0.00    -0.194 NA
ENDBRANCH  27  32
ENDBRANCH  25  27
ENDBRANCH  21  23
ENDBRANCH  20  21
ENDBRANCH  11  20
TORSDOF 7
