REMARK  Name = ZINC12482001
REMARK  7 active torsions:
REMARK  status: ('A' for Active; 'I' for Inactive)
REMARK    1  A    between atoms: C_4  and  S_7
REMARK    2  A    between atoms: S_7  and  C_8
REMARK    3  A    between atoms: C_8  and  C_9
REMARK    4  A    between atoms: C_11  and  C_14
REMARK    5  A    between atoms: C_14  and  C_15
REMARK    6  A    between atoms: C_20  and  C_22
REMARK    7  A    between atoms: C_22  and  C_23
REMARK                            x       y       z     vdW  Elec       q    Type
REMARK                         _______ _______ _______ _____ _____    ______ ____
ROOT
ATOM      1  C   UNL     1      -0.153   1.101  -2.436  0.00  0.00    -0.019 C 
ATOM      2  C   UNL     1      -0.800   1.527  -1.116  0.00  0.00    -0.079 C 
ATOM      3  C   UNL     1       1.352   1.550  -0.003  0.00  0.00    -0.082 C 
ATOM      4  C   UNL     1       2.063   1.125  -1.289  0.00  0.00    -0.015 C 
ATOM      5  C   UNL     1       1.277   1.644  -2.496  0.00  0.00    -0.002 C 
ATOM      6  N   UNL     1      -0.016   0.997   0.016  0.00  0.00    +0.379 N 
ATOM      7  H   UNL     1       0.032  -0.026  -0.055  0.00  0.00    -0.086 HD
ATOM      8  H   UNL     1      -0.474   1.258   0.897  0.00  0.00    -0.086 HD
ENDROOT
BRANCH   1   9
ATOM      9  C   UNL     1      -0.124  -0.426  -2.522  0.00  0.00    +0.061 C 
BRANCH   9  12
ATOM     10  C   UNL     1      -3.362  -1.982  -3.188  0.00  0.00    +0.148 A 
ATOM     11  C   UNL     1      -2.078  -1.799  -3.580  0.00  0.00    +0.071 A 
ATOM     12  C   UNL     1      -1.534  -0.953  -2.587  0.00  0.00    +0.084 A 
ATOM     13  N   UNL     1      -2.495  -0.715  -1.741  0.00  0.00    -0.083 NA
ATOM     14  O   UNL     1      -3.517  -1.278  -2.058  0.00  0.00    -0.359 OA
BRANCH  10  15
ATOM     15  C   UNL     1      -4.409  -2.810  -3.887  0.00  0.00    +0.151 C 
BRANCH  15  16
ATOM     16  S   UNL     1      -4.362  -4.508  -3.251  0.00  0.00    -0.117 S 
BRANCH  16  20
ATOM     17  C   UNL     1      -7.615  -6.638  -5.574  0.00  0.00    +0.000 A 
ATOM     18  C   UNL     1      -6.873  -7.330  -4.634  0.00  0.00    +0.001 A 
ATOM     19  C   UNL     1      -5.880  -6.684  -3.924  0.00  0.00    +0.015 A 
ATOM     20  C   UNL     1      -5.628  -5.337  -4.155  0.00  0.00    +0.008 A 
ATOM     21  C   UNL     1      -6.379  -4.644  -5.096  0.00  0.00    +0.015 A 
ATOM     22  C   UNL     1      -7.366  -5.298  -5.806  0.00  0.00    +0.001 A 
ENDBRANCH  16  20
ENDBRANCH  15  16
ENDBRANCH  10  15
ENDBRANCH   9  12
ENDBRANCH   1   9
BRANCH   5  23
ATOM     23  C   UNL     1       1.949   1.171  -3.787  0.00  0.00    +0.099 C 
BRANCH  23  24
ATOM     24  C   UNL     1       3.315   1.799  -3.901  0.00  0.00    +0.216 C 
ATOM     25  O   UNL     1       3.711   2.550  -3.035  0.00  0.00    -0.276 OA
ATOM     26  N   UNL     1       4.096   1.525  -4.965  0.00  0.00    -0.297 N 
ATOM     27  C   UNL     1       5.434   2.121  -5.106  0.00  0.00    +0.113 C 
ATOM     28  C   UNL     1       6.460   0.991  -5.055  0.00  0.00    +0.054 C 
ATOM     29  C   UNL     1       6.056  -0.142  -5.961  0.00  0.00    -0.041 A 
ATOM     30  C   UNL     1       7.045  -1.033  -6.361  0.00  0.00    +0.004 A 
ATOM     31  C   UNL     1       6.740  -2.098  -7.182  0.00  0.00    +0.000 A 
ATOM     32  C   UNL     1       5.439  -2.284  -7.613  0.00  0.00    +0.000 A 
ATOM     33  C   UNL     1       4.456  -1.399  -7.221  0.00  0.00    +0.005 A 
ATOM     34  C   UNL     1       4.763  -0.324  -6.398  0.00  0.00    -0.027 A 
ATOM     35  C   UNL     1       3.648   0.615  -6.025  0.00  0.00    +0.143 C 
ENDBRANCH  23  24
ENDBRANCH   5  23
TORSDOF 7
