REMARK  Name = ZINC41584138
REMARK  13 active torsions:
REMARK  status: ('A' for Active; 'I' for Inactive)
REMARK    1  A    between atoms: C_1  and  C_2
REMARK    2  A    between atoms: C_2  and  C_3
REMARK    3  A    between atoms: C_3  and  C_4
REMARK    4  A    between atoms: C_4  and  N_5
REMARK    5  A    between atoms: N_5  and  C_6
REMARK    6  A    between atoms: N_5  and  C_7
REMARK    7  A    between atoms: C_7  and  C_8
REMARK    8  A    between atoms: C_9  and  O_30
REMARK    9  A    between atoms: C_16  and  O_19
REMARK   10  A    between atoms: O_19  and  C_20
REMARK   11  A    between atoms: C_23  and  C_26
REMARK   12  A    between atoms: C_26  and  O_28
REMARK   13  A    between atoms: O_28  and  C_29
REMARK                            x       y       z     vdW  Elec       q    Type
REMARK                         _______ _______ _______ _____ _____    ______ ____
ROOT
ATOM      1  C   UNL     1       2.468  -4.482   3.530  0.00  0.00    +0.020 A 
ATOM      2  C   UNL     1       3.821  -4.723   3.360  0.00  0.00    +0.122 A 
ATOM      3  C   UNL     1       4.569  -5.314   4.376  0.00  0.00    +0.046 A 
ATOM      4  C   UNL     1       3.976  -5.664   5.556  0.00  0.00    +0.019 A 
ATOM      5  C   UNL     1       2.614  -5.428   5.743  0.00  0.00    +0.068 A 
ATOM      6  C   UNL     1       1.852  -4.827   4.725  0.00  0.00    +0.143 A 
ATOM      7  O   UNL     1       0.537  -4.598   4.918  0.00  0.00    -0.459 OA
ATOM      8  C   UNL     1      -0.087  -4.919   6.059  0.00  0.00    +0.245 A 
ATOM      9  C   UNL     1       0.548  -5.493   7.101  0.00  0.00    +0.210 A 
ATOM     10  C   UNL     1       1.937  -5.791   7.000  0.00  0.00    +0.235 A 
ATOM     11  O   UNL     1       2.544  -6.311   7.921  0.00  0.00    -0.283 OA
ENDROOT
BRANCH   2  12
ATOM     12  O   UNL     1       4.424  -4.381   2.193  0.00  0.00    -0.506 OA
ATOM     13  H   UNL     1       4.782  -3.483   2.184  0.00  0.00    +0.292 HD
ENDBRANCH   2  12
BRANCH   1  14
ATOM     14  C   UNL     1       1.669  -3.843   2.424  0.00  0.00    -0.036 C 
BRANCH  14  15
ATOM     15  N   UNL     1       1.702  -2.383   2.576  0.00  0.00    +0.381 N 
ATOM     16  C   UNL     1       1.017  -2.004   3.819  0.00  0.00    -0.096 C 
ATOM     17  H   UNL     1       2.661  -2.070   2.612  0.00  0.00    -0.082 HD
BRANCH  15  18
ATOM     18  C   UNL     1       1.025  -1.755   1.433  0.00  0.00    -0.079 C 
BRANCH  18  19
ATOM     19  C   UNL     1       1.168  -0.235   1.528  0.00  0.00    -0.019 C 
BRANCH  19  21
ATOM     20  C   UNL     1       0.606   1.939   0.432  0.00  0.00    +0.004 C 
ATOM     21  C   UNL     1       0.463   0.418   0.338  0.00  0.00    -0.005 C 
ENDBRANCH  19  21
ENDBRANCH  18  19
ENDBRANCH  15  18
ENDBRANCH  14  15
ENDBRANCH   1  14
BRANCH   9  22
ATOM     22  O   UNL     1      -0.137  -5.797   8.237  0.00  0.00    -0.449 OA
BRANCH  22  23
ATOM     23  C   UNL     1       0.172  -5.114   9.368  0.00  0.00    +0.129 A 
ATOM     24  C   UNL     1       1.074  -4.057   9.316  0.00  0.00    +0.047 A 
ATOM     25  C   UNL     1       1.389  -3.362  10.462  0.00  0.00    +0.018 A 
ATOM     26  C   UNL     1       0.801  -3.720  11.679  0.00  0.00    +0.059 A 
ATOM     27  C   UNL     1      -0.105  -4.783  11.727  0.00  0.00    +0.018 A 
ATOM     28  C   UNL     1      -0.420  -5.469  10.576  0.00  0.00    +0.047 A 
BRANCH  26  29
ATOM     29  C   UNL     1       1.137  -2.978  12.908  0.00  0.00    +0.339 C 
ATOM     30  O   UNL     1       1.925  -2.054  12.864  0.00  0.00    -0.245 OA
BRANCH  29  31
ATOM     31  O   UNL     1       0.569  -3.324  14.080  0.00  0.00    -0.464 OA
ATOM     32  C   UNL     1       0.940  -2.562  15.231  0.00  0.00    +0.280 C 
ENDBRANCH  29  31
ENDBRANCH  26  29
ENDBRANCH  22  23
ENDBRANCH   9  22
TORSDOF 10
