REMARK  Name = ZINC43608066
REMARK  8 active torsions:
REMARK  status: ('A' for Active; 'I' for Inactive)
REMARK    1  A    between atoms: C_1  and  C_2
REMARK    2  A    between atoms: C_5  and  C_7
REMARK    3  A    between atoms: C_7  and  N_8
REMARK    4  A    between atoms: C_13  and  C_22
REMARK    5  A    between atoms: C_25  and  O_30
REMARK    6  A    between atoms: C_26  and  C_29
REMARK    7  A    between atoms: C_27  and  C_28
REMARK    8  A    between atoms: O_30  and  C_31
REMARK                            x       y       z     vdW  Elec       q    Type
REMARK                         _______ _______ _______ _____ _____    ______ ____
ROOT
ATOM      1  N   UNL     1       2.206  -3.545  -1.411  0.00  0.00    -0.295 N 
ATOM      2  C   UNL     1       1.367  -4.514  -2.124  0.00  0.00    +0.110 C 
ATOM      3  C   UNL     1       1.690  -4.346  -3.620  0.00  0.00    +0.003 C 
ATOM      4  C   UNL     1       0.758  -3.273  -4.234  0.00  0.00    -0.007 C 
ATOM      5  C   UNL     1       1.698  -2.593  -5.262  0.00  0.00    -0.036 C 
ATOM      6  N   UNL     1       3.023  -2.563  -4.606  0.00  0.00    +0.394 N 
ATOM      7  C   UNL     1       3.070  -3.644  -3.582  0.00  0.00    +0.018 C 
ATOM      8  C   UNL     1       3.188  -3.073  -2.199  0.00  0.00    +0.206 C 
ATOM      9  O   UNL     1       4.048  -2.297  -1.842  0.00  0.00    -0.277 OA
ATOM     10  C   UNL     1       4.198  -4.619  -3.926  0.00  0.00    -0.004 C 
ATOM     11  C   UNL     1       5.118  -3.774  -4.850  0.00  0.00    -0.019 C 
ATOM     12  C   UNL     1       4.068  -2.869  -5.609  0.00  0.00    -0.077 C 
ATOM     13  H   UNL     1       3.188  -1.658  -4.191  0.00  0.00    -0.079 HD
ENDROOT
BRANCH   5  14
ATOM     14  C   UNL     1       1.225  -1.194  -5.559  0.00  0.00    -0.057 A 
ATOM     15  C   UNL     1       1.705  -0.131  -4.816  0.00  0.00    +0.006 A 
ATOM     16  C   UNL     1       1.274   1.153  -5.086  0.00  0.00    +0.046 A 
ATOM     17  C   UNL     1       0.357   1.376  -6.103  0.00  0.00    +0.123 A 
ATOM     18  C   UNL     1      -0.123   0.309  -6.848  0.00  0.00    -0.006 A 
ATOM     19  C   UNL     1       0.316  -0.973  -6.577  0.00  0.00    -0.042 A 
ATOM     20  C   UNL     1      -0.200  -2.133  -7.389  0.00  0.00    +0.044 C 
ATOM     21  C   UNL     1      -1.118   0.547  -7.954  0.00  0.00    +0.048 C 
BRANCH  17  22
ATOM     22  O   UNL     1      -0.070   2.639  -6.370  0.00  0.00    -0.495 OA
ATOM     23  C   UNL     1       0.467   3.689  -5.564  0.00  0.00    +0.277 C 
ENDBRANCH  17  22
ENDBRANCH   5  14
BRANCH   1  24
ATOM     24  C   UNL     1       1.997  -3.139  -0.019  0.00  0.00    +0.181 C 
BRANCH  24  29
ATOM     25  C   UNL     1       0.358   1.631   0.018  0.00  0.00    +0.086 C 
ATOM     26  C   UNL     1       0.360   0.125   0.040  0.00  0.00    +0.102 A 
ATOM     27  C   UNL     1      -0.728  -0.662   0.123  0.00  0.00    +0.045 A 
ATOM     28  C   UNL     1      -0.269  -1.999   0.113  0.00  0.00    +0.046 A 
ATOM     29  C   UNL     1       1.072  -1.950   0.024  0.00  0.00    +0.122 A 
ATOM     30  O   UNL     1       1.447  -0.661  -0.026  0.00  0.00    -0.463 OA
ENDBRANCH  24  29
ENDBRANCH   1  24
TORSDOF 4
