REMARK  Name = ZINC19372564
REMARK  8 active torsions:
REMARK  status: ('A' for Active; 'I' for Inactive)
REMARK    1  A    between atoms: C_4  and  C_7
REMARK    2  A    between atoms: C_7  and  N_8
REMARK    3  A    between atoms: C_10  and  C_26
REMARK    4  A    between atoms: C_12  and  C_15
REMARK    5  A    between atoms: N_17  and  C_18
REMARK    6  A    between atoms: C_18  and  C_19
REMARK    7  A    between atoms: C_19  and  C_20
REMARK    8  A    between atoms: C_26  and  C_28
REMARK                            x       y       z     vdW  Elec       q    Type
REMARK                         _______ _______ _______ _____ _____    ______ ____
ROOT
ATOM      1  N   UNL     1       4.153  -0.953   1.342  0.00  0.00    -0.297 NA
ATOM      2  C   UNL     1       5.507  -1.564   1.366  0.00  0.00    +0.097 C 
ATOM      3  C   UNL     1       5.604  -2.241   2.750  0.00  0.00    +0.087 C 
ATOM      4  C   UNL     1       4.143  -2.501   3.172  0.00  0.00    +0.101 C 
ATOM      5  C   UNL     1       3.286  -1.960   2.007  0.00  0.00    +0.098 C 
ENDROOT
BRANCH   4   6
ATOM      6  C   UNL     1       3.906  -3.978   3.355  0.00  0.00    +0.218 C 
ATOM      7  O   UNL     1       4.811  -4.765   3.171  0.00  0.00    -0.275 OA
ATOM      8  N   UNL     1       2.690  -4.425   3.725  0.00  0.00    -0.315 N 
ATOM      9  H   UNL     1       1.966  -3.796   3.873  0.00  0.00    +0.149 HD
BRANCH   8  10
ATOM     10  C   UNL     1       2.460  -5.861   3.903  0.00  0.00    +0.110 C 
BRANCH  10  11
ATOM     11  C   UNL     1       1.007  -6.097   4.321  0.00  0.00    +0.073 C 
BRANCH  11  12
ATOM     12  C   UNL     1       0.771  -7.574   4.504  0.00  0.00    +0.035 A 
ATOM     13  C   UNL     1       0.457  -8.452   3.533  0.00  0.00    +0.105 A 
ATOM     14  N   UNL     1       0.333  -9.677   4.131  0.00  0.00    -0.352 N 
ATOM     15  H   UNL     1       0.112 -10.513   3.691  0.00  0.00    +0.166 HD
ATOM     16  C   UNL     1       0.576  -9.505   5.448  0.00  0.00    +0.171 A 
ATOM     17  N   UNL     1       0.842  -8.246   5.663  0.00  0.00    -0.350 N 
ATOM     18  H   UNL     1       1.056  -7.856   6.526  0.00  0.00    +0.166 HD
ENDBRANCH  11  12
ENDBRANCH  10  11
ENDBRANCH   8  10
ENDBRANCH   4   6
BRANCH   3  19
ATOM     19  C   UNL     1       6.279  -1.323   3.736  0.00  0.00    +0.168 C 
ATOM     20  O   UNL     1       5.613  -0.595   4.441  0.00  0.00    -0.292 OA
BRANCH  19  21
ATOM     21  C   UNL     1       7.745  -1.310   3.842  0.00  0.00    +0.018 A 
ATOM     22  C   UNL     1       8.517  -2.144   3.026  0.00  0.00    +0.014 A 
ATOM     23  C   UNL     1       9.890  -2.127   3.131  0.00  0.00    +0.039 A 
ATOM     24  C   UNL     1      10.509  -1.285   4.044  0.00  0.00    +0.123 A 
ATOM     25  C   UNL     1       9.750  -0.456   4.856  0.00  0.00    +0.039 A 
ATOM     26  C   UNL     1       8.376  -0.458   4.757  0.00  0.00    +0.014 A 
ATOM     27  F   UNL     1      11.856  -1.274   4.142  0.00  0.00    -0.205 F 
ENDBRANCH  19  21
ENDBRANCH   3  19
BRANCH   1  28
ATOM     28  C   UNL     1       3.711  -0.707  -0.038  0.00  0.00    +0.119 C 
BRANCH  28  32
ATOM     29  C   UNL     1      -0.017   1.378   0.010  0.00  0.00    +0.000 A 
ATOM     30  C   UNL     1       1.171   2.086   0.002  0.00  0.00    +0.000 A 
ATOM     31  C   UNL     1       2.377   1.411  -0.013  0.00  0.00    +0.005 A 
ATOM     32  C   UNL     1       2.396   0.029  -0.020  0.00  0.00    -0.033 A 
ATOM     33  C   UNL     1       1.208  -0.679  -0.012  0.00  0.00    +0.005 A 
ATOM     34  C   UNL     1       0.002  -0.004   0.002  0.00  0.00    +0.000 A 
ENDBRANCH  28  32
ENDBRANCH   1  28
TORSDOF 8
