REMARK  Name = ZINC04086521
REMARK  4 active torsions:
REMARK  status: ('A' for Active; 'I' for Inactive)
REMARK    1  A    between atoms: C_5  and  C_7
REMARK    2  A    between atoms: C_12  and  C_22
REMARK    3  A    between atoms: C_25  and  O_28
REMARK    4  A    between atoms: O_28  and  C_29
REMARK                            x       y       z     vdW  Elec       q    Type
REMARK                         _______ _______ _______ _____ _____    ______ ____
ROOT
ATOM      1  C   UNL     1      -1.320   2.158   0.131  0.00  0.00    +0.033 C 
ATOM      2  C   UNL     1      -2.145   1.774   1.358  0.00  0.00    +0.059 C 
ATOM      3  C   UNL     1      -3.487   2.485   1.325  0.00  0.00    +0.017 C 
ATOM      4  C   UNL     1      -4.082   2.764   0.152  0.00  0.00    +0.036 C 
ATOM      5  C   UNL     1      -5.410   3.461  -0.024  0.00  0.00    +0.136 C 
ATOM      6  N   UNL     1      -6.179   3.605   1.193  0.00  0.00    -0.331 N 
ATOM      7  C   UNL     1      -5.717   4.393   2.246  0.00  0.00    +0.049 A 
ATOM      8  C   UNL     1      -6.386   5.541   2.640  0.00  0.00    +0.025 A 
ATOM      9  C   UNL     1      -5.862   6.317   3.659  0.00  0.00    +0.002 A 
ATOM     10  C   UNL     1      -4.681   5.954   4.280  0.00  0.00    +0.002 A 
ATOM     11  C   UNL     1      -4.019   4.798   3.900  0.00  0.00    +0.025 A 
ATOM     12  C   UNL     1      -4.553   4.010   2.896  0.00  0.00    +0.052 A 
ATOM     13  N   UNL     1      -4.003   2.784   2.544  0.00  0.00    -0.316 N 
ATOM     14  C   UNL     1      -3.457   2.406  -1.066  0.00  0.00    +0.163 C 
ATOM     15  O   UNL     1      -4.029   2.647  -2.111  0.00  0.00    -0.292 OA
ATOM     16  C   UNL     1      -2.114   1.742  -1.113  0.00  0.00    +0.088 C 
ATOM     17  H   UNL     1      -7.029   3.146   1.278  0.00  0.00    +0.147 HD
ATOM     18  H   UNL     1      -3.987   2.089   3.221  0.00  0.00    +0.152 HD
ENDROOT
BRANCH   1  23
ATOM     19  C   UNL     1       1.249  -0.608   0.176  0.00  0.00    +0.000 A 
ATOM     20  C   UNL     1       2.429   0.111   0.195  0.00  0.00    +0.001 A 
ATOM     21  C   UNL     1       2.397   1.492   0.196  0.00  0.00    +0.020 A 
ATOM     22  C   UNL     1       1.183   2.156   0.177  0.00  0.00    +0.044 A 
ATOM     23  C   UNL     1       0.002   1.436   0.158  0.00  0.00    -0.025 A 
ATOM     24  C   UNL     1       0.036   0.054   0.158  0.00  0.00    +0.005 A 
ATOM     25 CL   UNL     1       1.142   3.892   0.177  0.00  0.00    -0.083 Cl
ENDBRANCH   1  23
BRANCH   5  26
ATOM     26  C   UNL     1      -5.156   4.834  -0.591  0.00  0.00    -0.023 A 
ATOM     27  C   UNL     1      -5.639   5.163  -1.844  0.00  0.00    +0.009 A 
ATOM     28  C   UNL     1      -5.412   6.423  -2.363  0.00  0.00    +0.046 A 
ATOM     29  C   UNL     1      -4.691   7.355  -1.631  0.00  0.00    +0.130 A 
ATOM     30  C   UNL     1      -4.203   7.020  -0.376  0.00  0.00    +0.046 A 
ATOM     31  C   UNL     1      -4.437   5.761   0.141  0.00  0.00    +0.009 A 
BRANCH  29  32
ATOM     32  O   UNL     1      -4.463   8.593  -2.142  0.00  0.00    -0.406 OA
BRANCH  32  33
ATOM     33  C   UNL     1      -4.995   8.868  -3.439  0.00  0.00    +0.575 C 
ATOM     34  F   UNL     1      -6.386   8.723  -3.413  0.00  0.00    -0.133 F 
ATOM     35  F   UNL     1      -4.670  10.178  -3.809  0.00  0.00    -0.133 F 
ATOM     36  F   UNL     1      -4.450   7.973  -4.366  0.00  0.00    -0.133 F 
ENDBRANCH  32  33
ENDBRANCH  29  32
ENDBRANCH   5  26
TORSDOF 4
