REMARK  Name = ZINC64771447
REMARK  8 active torsions:
REMARK  status: ('A' for Active; 'I' for Inactive)
REMARK    1  A    between atoms: C_1  and  C_2
REMARK    2  A    between atoms: C_2  and  N_3
REMARK    3  A    between atoms: N_3  and  C_4
REMARK    4  A    between atoms: C_4  and  C_5
REMARK    5  A    between atoms: C_6  and  C_8
REMARK    6  A    between atoms: C_8  and  N_9
REMARK    7  A    between atoms: N_12  and  N_13
REMARK    8  A    between atoms: C_14  and  C_16
REMARK                            x       y       z     vdW  Elec       q    Type
REMARK                         _______ _______ _______ _____ _____    ______ ____
ROOT
ATOM      1  N   UNL     1      -2.156  -0.832   3.604  0.00  0.00    -0.290 N 
ATOM      2  C   UNL     1      -1.723  -0.684   4.872  0.00  0.00    +0.316 C 
ATOM      3  O   UNL     1      -0.599  -0.271   5.085  0.00  0.00    -0.251 OA
ATOM      4  N   UNL     1      -2.535  -0.992   5.902  0.00  0.00    -0.218 N 
ATOM      5  H   UNL     1      -3.053  -1.161   3.434  0.00  0.00    +0.151 HD
ATOM      6  H   UNL     1      -2.223  -0.885   6.814  0.00  0.00    +0.174 HD
ENDROOT
BRANCH   4   7
ATOM      7  N   UNL     1      -3.829  -1.468   5.656  0.00  0.00    -0.228 N 
ATOM      8  C   UNL     1      -4.641  -1.776   6.686  0.00  0.00    +0.276 C 
ATOM      9  O   UNL     1      -4.250  -1.642   7.831  0.00  0.00    -0.267 OA
ATOM     10  H   UNL     1      -4.141  -1.575   4.744  0.00  0.00    +0.173 HD
BRANCH   8  11
ATOM     11  C   UNL     1      -5.997  -2.274   6.429  0.00  0.00    +0.104 A 
ATOM     12  C   UNL     1      -6.932  -2.621   7.381  0.00  0.00    +0.047 A 
ATOM     13  C   UNL     1      -8.079  -3.040   6.697  0.00  0.00    +0.036 A 
ATOM     14  C   UNL     1      -7.829  -2.943   5.369  0.00  0.00    +0.098 A 
ATOM     15  N   UNL     1      -6.569  -2.474   5.193  0.00  0.00    -0.356 N 
ATOM     16  H   UNL     1      -6.141  -2.309   4.338  0.00  0.00    +0.166 HD
ATOM     17 BR   UNL     1      -9.690  -3.636   7.486  0.00  0.00    -0.049 Br
ENDBRANCH   8  11
ENDBRANCH   4   7
BRANCH   1  18
ATOM     18  C   UNL     1      -1.274  -0.497   2.484  0.00  0.00    +0.201 C 
BRANCH  18  20
ATOM     19  N   UNL     1      -1.372  -0.511   0.012  0.00  0.00    -0.301 N 
ATOM     20  C   UNL     1      -1.993  -0.751   1.184  0.00  0.00    +0.233 C 
ATOM     21  O   UNL     1      -3.131  -1.171   1.193  0.00  0.00    -0.274 OA
BRANCH  19  23
ATOM     22  C   UNL     1      -0.019   1.526   0.010  0.00  0.00    +0.024 C 
ATOM     23  C   UNL     1       0.002  -0.004   0.002  0.00  0.00    +0.104 C 
ENDBRANCH  19  23
BRANCH  19  24
ATOM     24  C   UNL     1      -2.072  -0.758  -1.251  0.00  0.00    +0.104 C 
ATOM     25  C   UNL     1      -1.816  -2.197  -1.703  0.00  0.00    +0.024 C 
ENDBRANCH  19  24
ENDBRANCH  18  20
ENDBRANCH   1  18
TORSDOF 6
