REMARK  Name = ZINC38990246
REMARK  7 active torsions:
REMARK  status: ('A' for Active; 'I' for Inactive)
REMARK    1  A    between atoms: C_1  and  C_2
REMARK    2  A    between atoms: C_9  and  C_14
REMARK    3  A    between atoms: C_14  and  N_15
REMARK    4  A    between atoms: N_15  and  C_16
REMARK    5  A    between atoms: N_15  and  S_22
REMARK    6  A    between atoms: C_16  and  C_17
REMARK    7  A    between atoms: S_22  and  C_25
REMARK                            x       y       z     vdW  Elec       q    Type
REMARK                         _______ _______ _______ _____ _____    ______ ____
ROOT
ATOM      1  N   UNL     1      -1.009  -6.414   3.027  0.00  0.00    -0.168 NA
ENDROOT
BRANCH   1   2
ATOM      2  S   UNL     1      -1.657  -7.300   1.787  0.00  0.00    +0.061 S 
ATOM      3  O   UNL     1      -2.028  -8.557   2.337  0.00  0.00    -0.153 OA
ATOM      4  O   UNL     1      -2.587  -6.453   1.126  0.00  0.00    -0.153 OA
BRANCH   2   5
ATOM      5  C   UNL     1      -0.359  -7.617   0.639  0.00  0.00    +0.106 A 
ATOM      6  C   UNL     1      -0.206  -6.808  -0.472  0.00  0.00    +0.030 A 
ATOM      7  C   UNL     1       0.812  -7.055  -1.373  0.00  0.00    +0.022 A 
ATOM      8  C   UNL     1       1.679  -8.113  -1.163  0.00  0.00    +0.041 A 
ATOM      9  C   UNL     1       1.526  -8.922  -0.051  0.00  0.00    +0.022 A 
ATOM     10  C   UNL     1       0.510  -8.670   0.852  0.00  0.00    +0.030 A 
ATOM     11 CL   UNL     1       2.958  -8.425  -2.295  0.00  0.00    -0.084 Cl
ENDBRANCH   2   5
ENDBRANCH   1   2
BRANCH   1  12
ATOM     12  C   UNL     1      -1.134  -4.954   3.027  0.00  0.00    +0.126 C 
BRANCH  12  21
ATOM     13  C   UNL     1       0.891   1.689   1.361  0.00  0.00    +0.044 C 
ATOM     14  C   UNL     1       1.005   0.188   1.285  0.00  0.00    -0.050 A 
ATOM     15  C   UNL     1       1.642  -0.394   0.189  0.00  0.00    +0.005 A 
ATOM     16  C   UNL     1       1.782  -1.738   0.052  0.00  0.00    +0.024 A 
ATOM     17  C   UNL     1       1.279  -2.613   1.032  0.00  0.00    +0.040 A 
ATOM     18  N   UNL     1       1.423  -3.930   0.887  0.00  0.00    -0.284 N 
ATOM     19  C   UNL     1       0.974  -4.807   1.770  0.00  0.00    +0.225 C 
ATOM     20  O   UNL     1       1.136  -5.998   1.583  0.00  0.00    -0.275 OA
ATOM     21  C   UNL     1       0.260  -4.323   3.011  0.00  0.00    +0.114 C 
ATOM     22  C   UNL     1       0.094  -2.826   3.181  0.00  0.00    -0.003 C 
ATOM     23  C   UNL     1       0.601  -2.026   2.201  0.00  0.00    -0.007 A 
ATOM     24  C   UNL     1       0.489  -0.569   2.288  0.00  0.00    +0.012 A 
ATOM     25  H   UNL     1       1.879  -4.261   0.098  0.00  0.00    +0.155 HD
ENDBRANCH  12  21
ENDBRANCH   1  12
BRANCH   1  26
ATOM     26  C   UNL     1      -0.311  -7.090   4.124  0.00  0.00    +0.183 C 
BRANCH  26  27
ATOM     27  C   UNL     1      -1.269  -7.316   5.265  0.00  0.00    +0.120 A 
ATOM     28  C   UNL     1      -2.039  -8.405   5.441  0.00  0.00    +0.046 A 
ATOM     29  C   UNL     1      -2.775  -8.197   6.630  0.00  0.00    +0.041 A 
ATOM     30  C   UNL     1      -2.411  -6.994   7.109  0.00  0.00    +0.195 A 
ATOM     31  O   UNL     1      -1.494  -6.467   6.281  0.00  0.00    -0.466 OA
ENDBRANCH  26  27
ENDBRANCH   1  26
TORSDOF 6
