REMARK  Name = ZINC18270580
REMARK  6 active torsions:
REMARK  status: ('A' for Active; 'I' for Inactive)
REMARK    1  A    between atoms: C_1  and  C_2
REMARK    2  A    between atoms: C_2  and  C_3
REMARK    3  A    between atoms: C_3  and  N_4
REMARK    4  A    between atoms: C_12  and  N_13
REMARK    5  A    between atoms: C_14  and  C_16
REMARK    6  A    between atoms: C_23  and  O_26
REMARK                            x       y       z     vdW  Elec       q    Type
REMARK                         _______ _______ _______ _____ _____    ______ ____
ROOT
ATOM      1  N   UNL     1      -1.385  -2.393   2.397  0.00  0.00    -0.177 NA
ATOM      2  C   UNL     1      -1.363  -3.263   3.367  0.00  0.00    +0.256 C 
ATOM      3  O   UNL     1      -1.348  -4.580   3.090  0.00  0.00    -0.270 OA
ENDROOT
BRANCH   2   4
ATOM      4  C   UNL     1      -1.357  -2.794   4.799  0.00  0.00    +0.054 C 
ATOM      5  C   UNL     1      -0.093  -3.303   5.496  0.00  0.00    +0.020 C 
ATOM      6  C   UNL     1      -0.086  -2.826   6.950  0.00  0.00    -0.007 C 
ATOM      7  C   UNL     1      -0.107  -1.297   6.986  0.00  0.00    +0.007 C 
ATOM      8  C   UNL     1      -1.371  -0.788   6.289  0.00  0.00    -0.007 C 
ATOM      9  C   UNL     1      -1.378  -1.264   4.835  0.00  0.00    +0.020 C 
ATOM     10  C   UNL     1      -2.605  -1.332   7.010  0.00  0.00    +0.038 C 
ATOM     11  C   UNL     1      -2.584  -2.861   6.974  0.00  0.00    +0.068 C 
ATOM     12  C   UNL     1      -1.321  -3.370   7.671  0.00  0.00    +0.038 C 
ATOM     13  C   UNL     1      -2.591  -3.338   5.520  0.00  0.00    +0.051 C 
BRANCH  11  14
ATOM     14  O   UNL     1      -3.737  -3.370   7.648  0.00  0.00    -0.389 OA
ATOM     15  H   UNL     1      -3.799  -3.107   8.576  0.00  0.00    +0.210 HD
ENDBRANCH  11  14
ENDBRANCH   2   4
BRANCH   1  24
ATOM     16  N   UNL     1      -1.413  -1.998   0.005  0.00  0.00    -0.308 N 
ATOM     17  C   UNL     1      -1.407  -2.814  -1.113  0.00  0.00    +0.070 A 
ATOM     18  C   UNL     1      -1.417  -2.571  -2.479  0.00  0.00    +0.028 A 
ATOM     19  C   UNL     1      -1.407  -3.628  -3.365  0.00  0.00    +0.002 A 
ATOM     20  C   UNL     1      -1.387  -4.935  -2.899  0.00  0.00    +0.002 A 
ATOM     21  C   UNL     1      -1.377  -5.196  -1.548  0.00  0.00    +0.030 A 
ATOM     22  C   UNL     1      -1.386  -4.136  -0.636  0.00  0.00    +0.091 A 
ATOM     23  N   UNL     1      -1.381  -4.074   0.719  0.00  0.00    -0.211 NA
ATOM     24  C   UNL     1      -1.391  -2.817   1.103  0.00  0.00    +0.235 A 
BRANCH  16  25
ATOM     25  C   UNL     1      -1.433  -0.534   0.013  0.00  0.00    +0.125 C 
BRANCH  25  27
ATOM     26  C   UNL     1      -0.019   1.526   0.010  0.00  0.00    +0.005 C 
ATOM     27  C   UNL     1       0.002  -0.004   0.002  0.00  0.00    +0.018 C 
ENDBRANCH  25  27
ENDBRANCH  16  25
ENDBRANCH   1  24
TORSDOF 5
