REMARK  Name = ZINC65387181
REMARK  8 active torsions:
REMARK  status: ('A' for Active; 'I' for Inactive)
REMARK    1  A    between atoms: C_1  and  N_2
REMARK    2  A    between atoms: C_4  and  N_11
REMARK    3  A    between atoms: C_7  and  C_9
REMARK    4  A    between atoms: C_9  and  O_10
REMARK    5  A    between atoms: C_12  and  C_14
REMARK    6  A    between atoms: C_23  and  N_26
REMARK    7  A    between atoms: C_27  and  S_29
REMARK    8  A    between atoms: S_29  and  C_30
REMARK                            x       y       z     vdW  Elec       q    Type
REMARK                         _______ _______ _______ _____ _____    ______ ____
ROOT
ATOM      1  C   UNL     1      -4.598  -3.533   1.329  0.00  0.00    +0.049 C 
ATOM      2  C   UNL     1      -4.208  -4.582   2.372  0.00  0.00    +0.020 C 
ATOM      3  C   UNL     1      -5.464  -5.081   3.089  0.00  0.00    -0.008 C 
ATOM      4  C   UNL     1      -6.156  -3.905   3.782  0.00  0.00    +0.007 C 
ATOM      5  C   UNL     1      -6.547  -2.856   2.739  0.00  0.00    -0.008 C 
ATOM      6  C   UNL     1      -5.291  -2.358   2.022  0.00  0.00    +0.020 C 
ATOM      7  C   UNL     1      -7.502  -3.482   1.720  0.00  0.00    +0.029 C 
ATOM      8  C   UNL     1      -6.809  -4.657   1.027  0.00  0.00    +0.037 C 
ATOM      9  C   UNL     1      -6.419  -5.706   2.070  0.00  0.00    +0.029 C 
ATOM     10  C   UNL     1      -5.553  -4.158   0.310  0.00  0.00    +0.042 C 
ENDROOT
BRANCH   1  12
ATOM     11  N   UNL     1      -2.374  -2.451   1.325  0.00  0.00    -0.314 N 
ATOM     12  C   UNL     1      -3.361  -3.042   0.623  0.00  0.00    +0.219 C 
ATOM     13  O   UNL     1      -3.253  -3.179  -0.578  0.00  0.00    -0.275 OA
ATOM     14  H   UNL     1      -2.460  -2.342   2.285  0.00  0.00    +0.149 HD
BRANCH  11  18
ATOM     15  C   UNL     1      -0.018   1.465   0.010  0.00  0.00    -0.096 C 
ATOM     16  N   UNL     1       0.002  -0.004   0.002  0.00  0.00    +0.382 N 
ATOM     17  C   UNL     1      -1.381  -0.536   0.100  0.00  0.00    -0.056 C 
ATOM     18  C   UNL     1      -1.171  -1.973   0.638  0.00  0.00    +0.055 C 
ATOM     19  C   UNL     1      -0.000  -1.803   1.633  0.00  0.00    +0.007 C 
ATOM     20  C   UNL     1       0.715  -0.511   1.195  0.00  0.00    -0.041 C 
ATOM     21  H   UNL     1       0.447  -0.342  -0.838  0.00  0.00    -0.082 HD
BRANCH  20  22
ATOM     22  C   UNL     1       2.171  -0.816   0.841  0.00  0.00    +0.140 C 
BRANCH  22  23
ATOM     23  O   UNL     1       2.218  -1.887  -0.104  0.00  0.00    -0.397 OA
ATOM     24  H   UNL     1       3.113  -2.134  -0.374  0.00  0.00    +0.209 HD
ENDBRANCH  22  23
ENDBRANCH  20  22
ENDBRANCH  11  18
ENDBRANCH   1  12
BRANCH   8  25
ATOM     25  N   UNL     1      -7.723  -5.256   0.051  0.00  0.00    -0.301 N 
ATOM     26  C   UNL     1      -8.903  -5.766   0.457  0.00  0.00    +0.272 C 
ATOM     27  O   UNL     1      -9.208  -5.729   1.634  0.00  0.00    -0.263 OA
ATOM     28  H   UNL     1      -7.480  -5.285  -0.887  0.00  0.00    +0.150 HD
BRANCH  26  29
ATOM     29  S   UNL     1     -10.002  -6.486  -0.716  0.00  0.00    -0.071 S 
ATOM     30  C   UNL     1     -11.421  -7.020   0.281  0.00  0.00    +0.094 C 
ENDBRANCH  26  29
ENDBRANCH   8  25
TORSDOF 6
