REMARK  Name = ZINC36265238
REMARK  5 active torsions:
REMARK  status: ('A' for Active; 'I' for Inactive)
REMARK    1  A    between atoms: C_1  and  O_2
REMARK    2  A    between atoms: O_2  and  C_3
REMARK    3  A    between atoms: C_8  and  N_10
REMARK    4  A    between atoms: N_10  and  S_11
REMARK    5  A    between atoms: S_11  and  C_14
REMARK                            x       y       z     vdW  Elec       q    Type
REMARK                         _______ _______ _______ _____ _____    ______ ____
ROOT
ATOM      1  S   UNL     1      -2.208  -2.872  -2.586  0.00  0.00    +0.062 S 
ATOM      2  O   UNL     1      -2.938  -2.541  -3.759  0.00  0.00    -0.153 OA
ATOM      3  O   UNL     1      -1.744  -4.190  -2.324  0.00  0.00    -0.153 OA
ENDROOT
BRANCH   1   4
ATOM      4  C   UNL     1      -3.216  -2.411  -1.217  0.00  0.00    +0.154 A 
ATOM      5  C   UNL     1      -3.034  -3.020   0.013  0.00  0.00    +0.153 A 
ATOM      6  C   UNL     1      -3.827  -2.658   1.088  0.00  0.00    +0.078 A 
ATOM      7  C   UNL     1      -4.801  -1.687   0.933  0.00  0.00    +0.127 A 
ATOM      8  C   UNL     1      -4.982  -1.079  -0.297  0.00  0.00    +0.055 A 
ATOM      9  C   UNL     1      -4.186  -1.437  -1.370  0.00  0.00    +0.050 A 
ATOM     10 BR   UNL     1      -4.429  -0.601  -3.049  0.00  0.00    -0.048 Br
ATOM     11  F   UNL     1      -5.576  -1.333   1.982  0.00  0.00    -0.205 F 
ATOM     12  F   UNL     1      -2.083  -3.967   0.164  0.00  0.00    -0.203 F 
ENDBRANCH   1   4
BRANCH   1  13
ATOM     13  N   UNL     1      -0.875  -1.889  -2.565  0.00  0.00    -0.186 NA
ATOM     14  H   UNL     1      -0.725  -1.260  -3.288  0.00  0.00    +0.148 HD
BRANCH  13  19
ATOM     15  C   UNL     1       0.652  -0.570  -1.138  0.00  0.00    +0.118 C 
ATOM     16  C   UNL     1       2.142  -0.864  -0.830  0.00  0.00    -0.049 C 
ATOM     17  N   UNL     1       2.484  -1.936  -1.799  0.00  0.00    +0.382 N 
ATOM     18  C   UNL     1       1.301  -2.822  -1.855  0.00  0.00    -0.059 C 
ATOM     19  C   UNL     1       0.078  -1.970  -1.456  0.00  0.00    +0.086 C 
ATOM     20  H   UNL     1       2.664  -1.538  -2.709  0.00  0.00    -0.086 HD
ATOM     21  H   UNL     1       3.290  -2.452  -1.478  0.00  0.00    -0.086 HD
BRANCH  15  23
ATOM     22  C   UNL     1      -0.017   1.425   0.010  0.00  0.00    +0.194 C 
ATOM     23  O   UNL     1       0.002  -0.004   0.002  0.00  0.00    -0.380 OA
ENDBRANCH  15  23
ENDBRANCH  13  19
ENDBRANCH   1  13
TORSDOF 4
