REMARK  Name = ZINC20291599
REMARK  11 active torsions:
REMARK  status: ('A' for Active; 'I' for Inactive)
REMARK    1  A    between atoms: C_1  and  C_2
REMARK    2  A    between atoms: C_7  and  C_8
REMARK    3  A    between atoms: C_8  and  O_9
REMARK    4  A    between atoms: O_9  and  C_10
REMARK    5  A    between atoms: C_13  and  C_15
REMARK    6  A    between atoms: N_16  and  N_17
REMARK    7  A    between atoms: C_18  and  C_20
REMARK    8  A    between atoms: C_20  and  C_21
REMARK    9  A    between atoms: C_21  and  C_22
REMARK   10  A    between atoms: C_22  and  N_23
REMARK   11  A    between atoms: N_23  and  C_24
REMARK                            x       y       z     vdW  Elec       q    Type
REMARK                         _______ _______ _______ _____ _____    ______ ____
ROOT
ATOM      1  C   UNL     1       1.102   2.063   0.003  0.00  0.00    +0.176 C 
ATOM      2  N   UNL     1      -0.017   1.397   0.010  0.00  0.00    -0.185 NA
ENDROOT
BRANCH   1   6
ATOM      3  C   UNL     1       0.343   5.596   0.029  0.00  0.00    +0.287 A 
ATOM      4  C   UNL     1       1.698   5.664   0.016  0.00  0.00    +0.091 A 
ATOM      5  C   UNL     1       2.177   4.343   0.010  0.00  0.00    +0.055 A 
ATOM      6  C   UNL     1       1.082   3.527   0.011  0.00  0.00    +0.151 A 
ATOM      7  O   UNL     1      -0.022   4.304   0.026  0.00  0.00    -0.424 OA
BRANCH   3   8
ATOM      8  O   UNL     1      -0.502   6.657   0.043  0.00  0.00    -0.459 OA
BRANCH   8   9
ATOM      9  C   UNL     1      -1.902   6.371   0.055  0.00  0.00    +0.269 C 
BRANCH   9  16
ATOM     10  C   UNL     1      -2.671   7.622  -2.433  0.00  0.00    +0.044 C 
ATOM     11  C   UNL     1      -3.046   8.261  -1.121  0.00  0.00    -0.043 A 
ATOM     12  C   UNL     1      -3.758   9.446  -1.108  0.00  0.00    +0.004 A 
ATOM     13  C   UNL     1      -4.102  10.033   0.095  0.00  0.00    +0.002 A 
ATOM     14  C   UNL     1      -3.734   9.436   1.286  0.00  0.00    +0.020 A 
ATOM     15  C   UNL     1      -3.028   8.247   1.274  0.00  0.00    +0.048 A 
ATOM     16  C   UNL     1      -2.678   7.663   0.070  0.00  0.00    +0.011 A 
ATOM     17 CL   UNL     1      -2.572   7.492   2.770  0.00  0.00    -0.083 Cl
ENDBRANCH   9  16
ENDBRANCH   8   9
ENDBRANCH   3   8
ENDBRANCH   1   6
BRANCH   2  18
ATOM     18  N   UNL     1       0.002  -0.004   0.002  0.00  0.00    -0.207 N 
ATOM     19  C   UNL     1      -1.156  -0.694   0.009  0.00  0.00    +0.232 C 
ATOM     20  O   UNL     1      -2.215  -0.101   0.023  0.00  0.00    -0.274 OA
ATOM     21  H   UNL     1       0.962  -0.541  -0.010  0.00  0.00    +0.177 HD
BRANCH  19  22
ATOM     22  C   UNL     1      -1.135  -2.201   0.001  0.00  0.00    +0.099 C 
BRANCH  22  23
ATOM     23  C   UNL     1      -2.571  -2.730   0.012  0.00  0.00    +0.028 C 
BRANCH  23  24
ATOM     24  C   UNL     1      -2.550  -4.260   0.004  0.00  0.00    +0.102 C 
BRANCH  24  25
ATOM     25  N   UNL     1      -3.924  -4.767   0.014  0.00  0.00    -0.344 N 
ATOM     26  H   UNL     1      -4.770  -4.064   0.026  0.00  0.00    +0.146 HD
BRANCH  25  27
ATOM     27  C   UNL     1      -4.161  -6.144   0.009  0.00  0.00    +0.027 A 
ATOM     28  C   UNL     1      -3.094  -7.034  -0.012  0.00  0.00    +0.024 A 
ATOM     29  C   UNL     1      -3.331  -8.394  -0.012  0.00  0.00    +0.017 A 
ATOM     30  C   UNL     1      -4.630  -8.871  -0.002  0.00  0.00    +0.018 A 
ATOM     31  C   UNL     1      -5.694  -7.988   0.013  0.00  0.00    +0.017 A 
ATOM     32  C   UNL     1      -5.464  -6.626   0.019  0.00  0.00    +0.024 A 
ATOM     33 BR   UNL     1      -4.950 -10.735  -0.009  0.00  0.00    -0.050 Br
ENDBRANCH  25  27
ENDBRANCH  24  25
ENDBRANCH  23  24
ENDBRANCH  22  23
ENDBRANCH  19  22
ENDBRANCH   2  18
TORSDOF 10
