REMARK  Name = ZINC06257638
REMARK  4 active torsions:
REMARK  status: ('A' for Active; 'I' for Inactive)
REMARK    1  A    between atoms: C_1  and  C_2
REMARK    2  A    between atoms: C_7  and  C_9
REMARK    3  A    between atoms: C_7  and  C_10
REMARK    4  A    between atoms: C_13  and  C_15
REMARK                            x       y       z     vdW  Elec       q    Type
REMARK                         _______ _______ _______ _____ _____    ______ ____
ROOT
ATOM      1  C   UNL     1      -0.019   1.532   0.011  0.00  0.00    +0.013 C 
ATOM      2  C   UNL     1       0.002  -0.004   0.002  0.00  0.00    -0.014 C 
ATOM      3  C   UNL     1      -1.426  -0.614  -0.023  0.00  0.00    +0.030 C 
ATOM      4  C   UNL     1      -1.088  -2.044  -0.513  0.00  0.00    +0.077 C 
ATOM      5  C   UNL     1      -0.480  -2.795   0.669  0.00  0.00    +0.029 C 
ATOM      6  C   UNL     1       0.727  -2.106   1.280  0.00  0.00    -0.033 C 
ATOM      7  C   UNL     1       0.726  -0.590   1.213  0.00  0.00    +0.014 C 
ATOM      8  C   UNL     1       0.765  -2.497   2.779  0.00  0.00    +0.011 C 
ATOM      9  C   UNL     1       2.014  -2.662   0.655  0.00  0.00    +0.011 C 
ATOM     10  N   UNL     1      -0.054  -1.854  -1.550  0.00  0.00    -0.293 N 
ATOM     11  C   UNL     1       0.625  -0.576  -1.291  0.00  0.00    +0.115 C 
ATOM     12  C   UNL     1       0.214  -2.699  -2.566  0.00  0.00    +0.267 C 
ATOM     13  O   UNL     1      -0.423  -3.727  -2.687  0.00  0.00    -0.268 OA
ENDROOT
BRANCH  12  14
ATOM     14  C   UNL     1       1.284  -2.376  -3.533  0.00  0.00    +0.154 A 
ATOM     15  C   UNL     1       1.603  -3.203  -4.603  0.00  0.00    +0.155 A 
ATOM     16  N   UNL     1       2.575  -2.771  -5.366  0.00  0.00    -0.198 NA
ATOM     17  S   UNL     1       3.025  -1.370  -4.704  0.00  0.00    +0.116 S 
ATOM     18  N   UNL     1       2.010  -1.273  -3.453  0.00  0.00    -0.186 NA
ENDBRANCH  12  14
TORSDOF 1
