REMARK  Name = ZINC62720592
REMARK  6 active torsions:
REMARK  status: ('A' for Active; 'I' for Inactive)
REMARK    1  A    between atoms: C_1  and  N_2
REMARK    2  A    between atoms: N_7  and  C_10
REMARK    3  A    between atoms: N_11  and  C_20
REMARK    4  A    between atoms: C_20  and  C_21
REMARK    5  A    between atoms: C_21  and  C_22
REMARK    6  A    between atoms: C_22  and  C_23
REMARK                            x       y       z     vdW  Elec       q    Type
REMARK                         _______ _______ _______ _____ _____    ______ ____
ROOT
ATOM      1  C   UNL     1      -0.022   1.462  -0.103  0.00  0.00    +0.155 C 
ATOM      2  N   UNL     1      -0.000  -0.003  -0.077  0.00  0.00    -0.280 N 
ATOM      3  C   UNL     1      -1.190  -0.712  -0.033  0.00  0.00    +0.170 A 
ATOM      4  C   UNL     1      -1.141  -2.102  -0.009  0.00  0.00    +0.153 A 
ATOM      5  C   UNL     1       0.109  -2.745  -0.032  0.00  0.00    +0.282 A 
ATOM      6  O   UNL     1       0.176  -3.962  -0.012  0.00  0.00    -0.265 OA
ATOM      7  N   UNL     1       1.234  -2.001  -0.075  0.00  0.00    -0.262 N 
ATOM      8  C   UNL     1       1.175  -0.659  -0.102  0.00  0.00    +0.333 A 
ATOM      9  O   UNL     1       2.209  -0.021  -0.146  0.00  0.00    -0.246 OA
ATOM     10  C   UNL     1       2.538  -2.667  -0.099  0.00  0.00    +0.157 C 
ATOM     11  N   UNL     1      -2.458  -2.538   0.034  0.00  0.00    -0.306 N 
ATOM     12  C   UNL     1      -3.240  -1.426   0.035  0.00  0.00    +0.201 A 
ATOM     13  N   UNL     1      -2.475  -0.354  -0.004  0.00  0.00    -0.196 NA
ATOM     14  N   UNL     1      -4.615  -1.421   0.072  0.00  0.00    -0.305 N 
ATOM     15  C   UNL     1      -5.337  -1.318   1.349  0.00  0.00    +0.089 C 
ATOM     16  C   UNL     1      -6.380  -0.202   1.230  0.00  0.00    -0.063 C 
ATOM     17  N   UNL     1      -7.239  -0.459   0.067  0.00  0.00    +0.381 N 
ATOM     18  C   UNL     1      -6.445  -0.391  -1.166  0.00  0.00    -0.063 C 
ATOM     19  C   UNL     1      -5.405  -1.511  -1.166  0.00  0.00    +0.089 C 
ATOM     20  H   UNL     1      -7.651  -1.376   0.150  0.00  0.00    -0.086 HD
ATOM     21  H   UNL     1      -7.972   0.234   0.032  0.00  0.00    -0.086 HD
ENDROOT
BRANCH  11  22
ATOM     22  C   UNL     1      -2.917  -3.929   0.071  0.00  0.00    +0.125 C 
BRANCH  22  23
ATOM     23  C   UNL     1      -2.950  -4.417   1.520  0.00  0.00    +0.026 C 
BRANCH  23  24
ATOM     24  C   UNL     1      -3.429  -5.870   1.559  0.00  0.00    +0.037 C 
BRANCH  24  25
ATOM     25  C   UNL     1      -3.462  -6.351   2.986  0.00  0.00    -0.047 A 
ATOM     26  C   UNL     1      -2.343  -6.942   3.542  0.00  0.00    +0.003 A 
ATOM     27  C   UNL     1      -2.373  -7.383   4.852  0.00  0.00    +0.000 A 
ATOM     28  C   UNL     1      -3.522  -7.232   5.606  0.00  0.00    +0.000 A 
ATOM     29  C   UNL     1      -4.640  -6.640   5.051  0.00  0.00    +0.000 A 
ATOM     30  C   UNL     1      -4.609  -6.195   3.742  0.00  0.00    +0.003 A 
ENDBRANCH  24  25
ENDBRANCH  23  24
ENDBRANCH  22  23
ENDBRANCH  11  22
TORSDOF 4
