REMARK  Name = ZINC36500514
REMARK  10 active torsions:
REMARK  status: ('A' for Active; 'I' for Inactive)
REMARK    1  A    between atoms: C_1  and  C_2
REMARK    2  A    between atoms: C_7  and  C_8
REMARK    3  A    between atoms: C_8  and  C_10
REMARK    4  A    between atoms: C_8  and  N_19
REMARK    5  A    between atoms: N_12  and  C_13
REMARK    6  A    between atoms: N_19  and  C_20
REMARK    7  A    between atoms: C_20  and  C_21
REMARK    8  A    between atoms: C_26  and  C_28
REMARK    9  A    between atoms: C_29  and  O_35
REMARK   10  A    between atoms: C_33  and  O_34
REMARK                            x       y       z     vdW  Elec       q    Type
REMARK                         _______ _______ _______ _____ _____    ______ ____
ROOT
ATOM      1  N   UNL     1       0.876  -0.477   3.762  0.00  0.00    -0.274 N 
ATOM      2  C   UNL     1       0.488  -1.562   4.461  0.00  0.00    +0.255 C 
ATOM      3  O   UNL     1      -0.595  -2.070   4.243  0.00  0.00    -0.270 OA
ENDROOT
BRANCH   2   4
ATOM      4  C   UNL     1       1.376  -2.133   5.487  0.00  0.00    +0.119 A 
ATOM      5  C   UNL     1       1.294  -1.693   6.816  0.00  0.00    +0.133 A 
ATOM      6  C   UNL     1       2.134  -2.237   7.774  0.00  0.00    +0.046 A 
ATOM      7  C   UNL     1       3.051  -3.210   7.424  0.00  0.00    +0.007 A 
ATOM      8  C   UNL     1       3.141  -3.651   6.117  0.00  0.00    +0.046 A 
ATOM      9  C   UNL     1       2.307  -3.124   5.144  0.00  0.00    +0.133 A 
BRANCH   9  10
ATOM     10  O   UNL     1       2.393  -3.563   3.863  0.00  0.00    -0.506 OA
ATOM     11  H   UNL     1       3.019  -3.067   3.319  0.00  0.00    +0.292 HD
ENDBRANCH   9  10
BRANCH   5  12
ATOM     12  O   UNL     1       0.395  -0.737   7.163  0.00  0.00    -0.506 OA
ATOM     13  H   UNL     1      -0.466  -1.086   7.433  0.00  0.00    +0.292 HD
ENDBRANCH   5  12
ENDBRANCH   2   4
BRANCH   1  14
ATOM     14  C   UNL     1      -0.008   0.091   2.741  0.00  0.00    +0.193 C 
BRANCH  14  21
ATOM     15  C   UNL     1       1.901  -0.738   0.737  0.00  0.00    +0.044 C 
ATOM     16  C   UNL     1       0.536  -1.375   0.786  0.00  0.00    -0.045 A 
ATOM     17  C   UNL     1       0.200  -2.360  -0.123  0.00  0.00    +0.004 A 
ATOM     18  C   UNL     1      -1.052  -2.945  -0.078  0.00  0.00    +0.000 A 
ATOM     19  C   UNL     1      -1.967  -2.544   0.878  0.00  0.00    +0.000 A 
ATOM     20  C   UNL     1      -1.630  -1.560   1.788  0.00  0.00    +0.006 A 
ATOM     21  C   UNL     1      -0.377  -0.979   1.745  0.00  0.00    -0.015 A 
ENDBRANCH  14  21
BRANCH  14  22
ATOM     22  C   UNL     1      -1.257   0.620   3.396  0.00  0.00    +0.238 C 
ATOM     23  O   UNL     1      -1.529   0.298   4.533  0.00  0.00    -0.273 OA
ATOM     24  N   UNL     1      -2.073   1.452   2.718  0.00  0.00    -0.311 N 
ATOM     25  H   UNL     1      -1.894   1.654   1.786  0.00  0.00    +0.149 HD
BRANCH  24  26
ATOM     26  C   UNL     1      -3.228   2.053   3.389  0.00  0.00    +0.073 C 
ATOM     27  C   UNL     1      -4.411   1.084   3.332  0.00  0.00    +0.022 C 
ATOM     28  C   UNL     1      -5.618   1.711   4.032  0.00  0.00    +0.002 C 
ATOM     29  C   UNL     1      -5.994   3.017   3.329  0.00  0.00    +0.000 C 
ATOM     30  C   UNL     1      -4.811   3.986   3.386  0.00  0.00    +0.002 C 
ATOM     31  C   UNL     1      -3.604   3.359   2.686  0.00  0.00    +0.022 C 
ENDBRANCH  24  26
ENDBRANCH  14  22
ENDBRANCH   1  14
BRANCH   1  32
ATOM     32  C   UNL     1       2.181   0.135   4.024  0.00  0.00    +0.183 C 
BRANCH  32  33
ATOM     33  C   UNL     1       2.011   1.293   4.974  0.00  0.00    +0.122 A 
ATOM     34  C   UNL     1       2.173   1.246   6.308  0.00  0.00    +0.046 A 
ATOM     35  C   UNL     1       1.917   2.548   6.798  0.00  0.00    +0.041 A 
ATOM     36  C   UNL     1       1.614   3.312   5.733  0.00  0.00    +0.195 A 
ATOM     37  O   UNL     1       1.678   2.548   4.630  0.00  0.00    -0.466 OA
ENDBRANCH  32  33
ENDBRANCH   1  32
TORSDOF 9
