REMARK  Name = ZINC48608253
REMARK  4 active torsions:
REMARK  status: ('A' for Active; 'I' for Inactive)
REMARK    1  A    between atoms: C_1  and  N_2
REMARK    2  A    between atoms: C_6  and  N_9
REMARK    3  A    between atoms: N_9  and  C_10
REMARK    4  A    between atoms: C_13  and  N_17
REMARK                            x       y       z     vdW  Elec       q    Type
REMARK                         _______ _______ _______ _____ _____    ______ ____
ROOT
ATOM      1  N   UNL     1       2.367  -2.788  -4.133  0.00  0.00    -0.313 N 
ATOM      2  H   UNL     1       2.022  -3.665  -4.359  0.00  0.00    +0.152 HD
ENDROOT
BRANCH   1   8
ATOM      3  C   UNL     1       0.237   1.306   0.295  0.00  0.00    +0.127 C 
ATOM      4  N   UNL     1       0.275  -0.158   0.243  0.00  0.00    -0.334 N 
ATOM      5  C   UNL     1       0.807  -0.801  -0.872  0.00  0.00    +0.096 A 
ATOM      6  C   UNL     1       1.306  -0.046  -1.928  0.00  0.00    +0.043 A 
ATOM      7  C   UNL     1       1.833  -0.695  -3.030  0.00  0.00    +0.028 A 
ATOM      8  C   UNL     1       1.844  -2.089  -3.038  0.00  0.00    +0.048 A 
ATOM      9  C   UNL     1       1.329  -2.775  -1.949  0.00  0.00    +0.107 A 
ATOM     10  N   UNL     1       0.838  -2.124  -0.912  0.00  0.00    -0.348 N 
ATOM     11  H   UNL     1      -0.071  -0.679   0.984  0.00  0.00    +0.147 HD
ATOM     12  H   UNL     1       0.487  -2.627  -0.160  0.00  0.00    +0.167 HD
ENDBRANCH   1   8
BRANCH   1  13
ATOM     13  C   UNL     1       3.387  -2.220  -4.901  0.00  0.00    +0.032 A 
ATOM     14  C   UNL     1       4.303  -1.357  -4.312  0.00  0.00    +0.025 A 
ATOM     15  C   UNL     1       5.311  -0.798  -5.073  0.00  0.00    +0.035 A 
ATOM     16  C   UNL     1       5.408  -1.096  -6.420  0.00  0.00    +0.139 A 
ATOM     17  C   UNL     1       4.498  -1.955  -7.010  0.00  0.00    +0.045 A 
ATOM     18  C   UNL     1       3.492  -2.522  -6.252  0.00  0.00    +0.040 A 
ATOM     19  I   UNL     1       4.651  -2.401  -9.051  0.00  0.00    -0.041 I 
BRANCH  16  20
ATOM     20  N   UNL     1       6.489  -0.493  -7.233  0.00  0.00    +0.057 N 
ATOM     21  O   UNL     1       7.285   0.258  -6.720  0.00  0.00    -0.126 OA
ATOM     22  O   UNL     1       6.576  -0.753  -8.411  0.00  0.00    -0.126 OA
ENDBRANCH  16  20
ENDBRANCH   1  13
TORSDOF 3
