REMARK  Name = ZINC07994948
REMARK  6 active torsions:
REMARK  status: ('A' for Active; 'I' for Inactive)
REMARK    1  A    between atoms: C_1  and  C_2
REMARK    2  A    between atoms: N_10  and  N_11
REMARK    3  A    between atoms: C_12  and  C_13
REMARK    4  A    between atoms: C_18  and  O_19
REMARK    5  A    between atoms: O_19  and  C_20
REMARK    6  A    between atoms: C_20  and  C_21
REMARK                            x       y       z     vdW  Elec       q    Type
REMARK                         _______ _______ _______ _____ _____    ______ ____
ROOT
ATOM      1  C   UNL     1       1.187   1.792   0.000  0.00  0.00    +0.036 A 
ATOM      2  C   UNL     1      -0.013   1.076   0.008  0.00  0.00    +0.013 A 
ATOM      3  C   UNL     1      -1.216   1.750   0.017  0.00  0.00    +0.001 A 
ATOM      4  C   UNL     1      -1.240   3.134   0.030  0.00  0.00    +0.004 A 
ATOM      5  C   UNL     1      -0.060   3.854   0.022  0.00  0.00    +0.046 A 
ATOM      6  C   UNL     1       1.157   3.193   0.008  0.00  0.00    +0.130 A 
ENDROOT
BRANCH   1   8
ATOM      7  N   UNL     1       3.588   1.747  -0.023  0.00  0.00    -0.187 NA
ATOM      8  C   UNL     1       2.476   1.078  -0.016  0.00  0.00    +0.142 C 
BRANCH   7  18
ATOM      9  C   UNL     1       9.463   4.091  -0.068  0.00  0.00    +0.073 C 
ATOM     10  C   UNL     1       8.219   3.239  -0.060  0.00  0.00    +0.125 A 
ATOM     11  C   UNL     1       8.321   1.831  -0.068  0.00  0.00    +0.274 A 
ATOM     12  O   UNL     1       9.409   1.281  -0.082  0.00  0.00    -0.266 OA
ATOM     13  N   UNL     1       7.177   1.108  -0.060  0.00  0.00    -0.291 N 
ATOM     14  H   UNL     1       7.204   0.109  -0.066  0.00  0.00    +0.172 HD
ATOM     15  C   UNL     1       5.987   1.773  -0.045  0.00  0.00    +0.235 A 
ATOM     16  N   UNL     1       5.958   3.095  -0.044  0.00  0.00    -0.113 NA
ATOM     17  N   UNL     1       7.033   3.800  -0.045  0.00  0.00    -0.146 NA
ATOM     18  N   UNL     1       4.814   1.068  -0.038  0.00  0.00    -0.205 N 
ATOM     19  H   UNL     1       4.831   0.098  -0.043  0.00  0.00    +0.177 HD
ENDBRANCH   7  18
ENDBRANCH   1   8
BRANCH   6  20
ATOM     20  O   UNL     1       2.317   3.900   0.001  0.00  0.00    -0.487 OA
BRANCH  20  21
ATOM     21  C   UNL     1       2.209   5.324   0.009  0.00  0.00    +0.268 C 
BRANCH  21  22
ATOM     22  C   UNL     1       3.588   5.933  -0.000  0.00  0.00    +0.043 A 
ATOM     23  C   UNL     1       4.230   6.212   1.194  0.00  0.00    +0.131 A 
ATOM     24  C   UNL     1       5.499   6.765   1.184  0.00  0.00    +0.039 A 
ATOM     25  C   UNL     1       6.119   7.050  -0.018  0.00  0.00    +0.004 A 
ATOM     26  C   UNL     1       5.476   6.777  -1.210  0.00  0.00    +0.020 A 
ATOM     27  C   UNL     1       4.210   6.218  -1.202  0.00  0.00    +0.050 A 
ATOM     28 CL   UNL     1       3.403   5.875  -2.700  0.00  0.00    -0.083 Cl
ATOM     29  F   UNL     1       3.620   5.939   2.369  0.00  0.00    -0.205 F 
ENDBRANCH  21  22
ENDBRANCH  20  21
ENDBRANCH   6  20
TORSDOF 5
