REMARK  Name = ZINC13232579
REMARK  9 active torsions:
REMARK  status: ('A' for Active; 'I' for Inactive)
REMARK    1  A    between atoms: C_1  and  N_2
REMARK    2  A    between atoms: N_2  and  C_3
REMARK    3  A    between atoms: C_3  and  C_4
REMARK    4  A    between atoms: C_15  and  C_17
REMARK    5  A    between atoms: C_17  and  S_18
REMARK    6  A    between atoms: S_18  and  C_19
REMARK    7  A    between atoms: C_22  and  C_27
REMARK    8  A    between atoms: N_23  and  C_24
REMARK    9  A    between atoms: C_24  and  C_25
REMARK                            x       y       z     vdW  Elec       q    Type
REMARK                         _______ _______ _______ _____ _____    ______ ____
ROOT
ATOM      1  S   UNL     1      -0.295  10.007  -4.261  0.00  0.00    -0.077 S 
ENDROOT
BRANCH   1   2
ATOM      2  C   UNL     1       1.145  10.713  -4.989  0.00  0.00    +0.193 A 
ATOM      3  N   UNL     1       2.318  10.859  -4.413  0.00  0.00    -0.122 NA
ATOM      4  N   UNL     1       3.144  11.410  -5.229  0.00  0.00    -0.128 NA
ATOM      5  C   UNL     1       2.550  11.650  -6.374  0.00  0.00    +0.165 A 
ATOM      6  N   UNL     1       1.254  11.206  -6.258  0.00  0.00    -0.291 N 
BRANCH   5   7
ATOM      7  C   UNL     1       3.161  12.275  -7.567  0.00  0.00    +0.019 A 
ATOM      8  C   UNL     1       4.550  12.323  -7.699  0.00  0.00    +0.013 A 
ATOM      9  C   UNL     1       5.114  12.903  -8.816  0.00  0.00    +0.021 A 
ATOM     10  C   UNL     1       4.306  13.446  -9.800  0.00  0.00    +0.041 A 
ATOM     11  C   UNL     1       2.928  13.407  -9.672  0.00  0.00    +0.021 A 
ATOM     12  C   UNL     1       2.352  12.825  -8.562  0.00  0.00    +0.013 A 
ATOM     13 CL   UNL     1       5.024  14.181 -11.200  0.00  0.00    -0.084 Cl
ENDBRANCH   5   7
BRANCH   6  14
ATOM     14  C   UNL     1       0.206  11.255  -7.281  0.00  0.00    +0.250 C 
BRANCH  14  15
ATOM     15  C   UNL     1      -0.568  12.540  -7.146  0.00  0.00    +0.375 C 
ATOM     16  O   UNL     1      -0.275  13.335  -6.284  0.00  0.00    -0.244 OA
ATOM     17  O   UNL     1      -1.584  12.803  -7.984  0.00  0.00    -0.244 OA
ENDBRANCH  14  15
ENDBRANCH   6  14
ENDBRANCH   1   2
BRANCH   1  18
ATOM     18  C   UNL     1       0.349   9.601  -2.619  0.00  0.00    +0.173 C 
BRANCH  18  21
ATOM     19  C   UNL     1       0.844   8.774   0.046  0.00  0.00    +0.132 C 
ATOM     20  N   UNL     1      -0.490   8.578  -0.528  0.00  0.00    -0.300 N 
ATOM     21  C   UNL     1      -0.741   8.966  -1.794  0.00  0.00    +0.226 C 
ATOM     22  O   UNL     1      -1.845   8.805  -2.270  0.00  0.00    -0.275 OA
BRANCH  20  23
ATOM     23  C   UNL     1      -1.550   7.961   0.273  0.00  0.00    +0.155 C 
BRANCH  23  24
ATOM     24  C   UNL     1      -1.522   6.444   0.074  0.00  0.00    +0.228 C 
ATOM     25  C   UNL     1      -2.706   5.804   0.811  0.00  0.00    +0.275 C 
ATOM     26  O   UNL     1      -2.642   4.387   0.616  0.00  0.00    -0.485 OA
ATOM     27  C   UNL     1      -1.427   3.800   0.794  0.00  0.00    +0.162 A 
ATOM     28  C   UNL     1      -1.354   2.427   0.975  0.00  0.00    +0.049 A 
ATOM     29  C   UNL     1      -0.128   1.816   1.159  0.00  0.00    +0.004 A 
ATOM     30  C   UNL     1       1.030   2.571   1.153  0.00  0.00    +0.004 A 
ATOM     31  C   UNL     1       0.966   3.939   0.969  0.00  0.00    +0.049 A 
ATOM     32  C   UNL     1      -0.262   4.559   0.791  0.00  0.00    +0.163 A 
ATOM     33  O   UNL     1      -0.311   5.908   0.619  0.00  0.00    -0.480 OA
ENDBRANCH  23  24
ENDBRANCH  20  23
ENDBRANCH  18  21
ENDBRANCH   1  18
TORSDOF 8
