REMARK  Name = ZINC11665016
REMARK  5 active torsions:
REMARK  status: ('A' for Active; 'I' for Inactive)
REMARK    1  A    between atoms: C_3  and  C_7
REMARK    2  A    between atoms: C_7  and  C_9
REMARK    3  A    between atoms: C_7  and  N_64
REMARK    4  A    between atoms: C_9  and  N_10
REMARK    5  A    between atoms: C_11  and  C_13
REMARK                            x       y       z     vdW  Elec       q    Type
REMARK                         _______ _______ _______ _____ _____    ______ ____
ROOT
ATOM      1  N   UNL     1       1.838  -2.639  -1.858  0.00  0.00    -0.311 N 
ATOM      2  C   UNL     1       1.145  -2.382  -2.985  0.00  0.00    +0.263 C 
ATOM      3  O   UNL     1       1.519  -2.841  -4.046  0.00  0.00    -0.269 OA
ATOM      4  H   UNL     1       1.539  -2.272  -1.011  0.00  0.00    +0.149 HD
ENDROOT
BRANCH   2   5
ATOM      5  C   UNL     1      -0.075  -1.538  -2.931  0.00  0.00    +0.134 A 
ATOM      6  C   UNL     1      -0.800  -1.266  -4.096  0.00  0.00    +0.005 A 
ATOM      7  C   UNL     1      -1.931  -0.480  -3.999  0.00  0.00    +0.050 A 
ATOM      8  N   UNL     1      -2.285  -0.006  -2.812  0.00  0.00    -0.219 NA
ATOM      9  C   UNL     1      -1.579  -0.278  -1.726  0.00  0.00    +0.219 A 
ATOM     10  N   UNL     1      -0.489  -1.027  -1.776  0.00  0.00    -0.209 NA
ATOM     11  N   UNL     1      -1.987   0.238  -0.508  0.00  0.00    -0.300 N 
ATOM     12  C   UNL     1      -1.068  -0.178   0.582  0.00  0.00    +0.108 C 
ATOM     13  C   UNL     1      -1.895  -0.015   1.876  0.00  0.00    +0.020 C 
ATOM     14  C   UNL     1      -3.369  -0.109   1.420  0.00  0.00    +0.020 C 
ATOM     15  C   UNL     1      -3.304  -0.321  -0.108  0.00  0.00    +0.108 C 
ATOM     16  C   UNL     1      -2.786  -0.144  -5.191  0.00  0.00    +0.056 C 
ATOM     17  C   UNL     1      -2.018  -0.393  -6.488  0.00  0.00    +0.006 C 
ATOM     18  C   UNL     1      -1.432  -1.809  -6.443  0.00  0.00    +0.005 C 
ATOM     19  C   UNL     1      -0.316  -1.839  -5.399  0.00  0.00    +0.039 C 
ENDBRANCH   2   5
BRANCH   1  20
ATOM     20  C   UNL     1       3.042  -3.471  -1.911  0.00  0.00    +0.094 C 
BRANCH  20  21
ATOM     21  C   UNL     1       3.720  -3.475  -0.540  0.00  0.00    -0.019 C 
BRANCH  21  27
ATOM     22  C   UNL     1       3.141  -1.434   0.628  0.00  0.00    -0.049 C 
ATOM     23  C   UNL     1       3.651  -0.042   1.006  0.00  0.00    +0.141 C 
ATOM     24  O   UNL     1       3.952   0.690  -0.185  0.00  0.00    -0.383 OA
ATOM     25  C   UNL     1       4.930   0.060  -1.016  0.00  0.00    +0.141 C 
ATOM     26  C   UNL     1       4.432  -1.332  -1.415  0.00  0.00    -0.049 C 
ATOM     27  N   UNL     1       4.171  -2.112  -0.188  0.00  0.00    +0.388 N 
ATOM     28  H   UNL     1       5.039  -2.177   0.357  0.00  0.00    -0.081 HD
ENDBRANCH  21  27
BRANCH  21  31
ATOM     29  C   UNL     1       6.006  -6.436  -0.039  0.00  0.00    +0.020 A 
ATOM     30  C   UNL     1       4.878  -5.631   0.025  0.00  0.00    +0.005 A 
ATOM     31  C   UNL     1       4.922  -4.384  -0.577  0.00  0.00    -0.041 A 
ATOM     32  C   UNL     1       6.085  -3.981  -1.208  0.00  0.00    +0.112 A 
ATOM     33  N   UNL     1       7.140  -4.771  -1.245  0.00  0.00    -0.263 NA
ATOM     34  C   UNL     1       7.132  -5.966  -0.687  0.00  0.00    +0.111 A 
ENDBRANCH  21  31
ENDBRANCH  20  21
ENDBRANCH   1  20
TORSDOF 5
