REMARK  Name = ZINC39617429
REMARK  8 active torsions:
REMARK  status: ('A' for Active; 'I' for Inactive)
REMARK    1  A    between atoms: C_1  and  N_2
REMARK    2  A    between atoms: N_2  and  C_3
REMARK    3  A    between atoms: N_2  and  C_16
REMARK    4  A    between atoms: C_3  and  C_4
REMARK    5  A    between atoms: N_6  and  C_7
REMARK    6  A    between atoms: C_16  and  C_17
REMARK    7  A    between atoms: N_19  and  C_20
REMARK    8  A    between atoms: N_19  and  C_28
REMARK                            x       y       z     vdW  Elec       q    Type
REMARK                         _______ _______ _______ _____ _____    ______ ____
ROOT
ATOM      1  C   UNL     1      -1.533  -0.447   0.148  0.00  0.00    -0.095 C 
ATOM      2  N   UNL     1      -1.636   0.762  -0.680  0.00  0.00    +0.389 N 
ATOM      3  H   UNL     1      -0.937   1.429  -0.390  0.00  0.00    -0.081 HD
ENDROOT
BRANCH   2   4
ATOM      4  C   UNL     1      -2.972   1.352  -0.519  0.00  0.00    +0.019 C 
BRANCH   4   5
ATOM      5  C   UNL     1      -3.145   1.825   0.901  0.00  0.00    +0.201 C 
ATOM      6  O   UNL     1      -2.244   1.684   1.701  0.00  0.00    -0.278 OA
ATOM      7  N   UNL     1      -4.300   2.404   1.283  0.00  0.00    -0.285 N 
ATOM      8  H   UNL     1      -4.998   2.572   0.629  0.00  0.00    +0.155 HD
BRANCH   7   9
ATOM      9  C   UNL     1      -4.494   2.765   2.623  0.00  0.00    +0.072 A 
ATOM     10  C   UNL     1      -3.415   3.169   3.397  0.00  0.00    +0.029 A 
ATOM     11  C   UNL     1      -3.606   3.524   4.718  0.00  0.00    +0.043 A 
ATOM     12  C   UNL     1      -4.874   3.479   5.273  0.00  0.00    +0.161 A 
ATOM     13  C   UNL     1      -5.955   3.076   4.503  0.00  0.00    +0.195 A 
ATOM     14  C   UNL     1      -5.768   2.725   3.177  0.00  0.00    +0.182 A 
ATOM     15  F   UNL     1      -6.821   2.339   2.424  0.00  0.00    -0.200 F 
ATOM     16  F   UNL     1      -7.191   3.032   5.046  0.00  0.00    -0.199 F 
ATOM     17  F   UNL     1      -5.058   3.826   6.565  0.00  0.00    -0.202 F 
ENDBRANCH   7   9
ENDBRANCH   4   5
ENDBRANCH   2   4
BRANCH   2  18
ATOM     18  C   UNL     1      -1.423   0.410  -2.090  0.00  0.00    +0.019 C 
BRANCH  18  19
ATOM     19  C   UNL     1      -0.011  -0.081  -2.277  0.00  0.00    +0.200 C 
ATOM     20  O   UNL     1       0.621  -0.490  -1.325  0.00  0.00    -0.278 OA
ATOM     21  N   UNL     1       0.551  -0.067  -3.502  0.00  0.00    -0.295 N 
BRANCH  21  22
ATOM     22  C   UNL     1       1.953  -0.459  -3.670  0.00  0.00    +0.099 C 
ATOM     23  C   UNL     1       2.136  -1.926  -3.247  0.00  0.00    +0.046 C 
ATOM     24  C   UNL     1       3.643  -2.253  -3.114  0.00  0.00    +0.168 C 
ATOM     25  S   UNL     1       4.373  -0.622  -2.680  0.00  0.00    -0.029 S 
ATOM     26  O   UNL     1       4.833  -0.664  -1.336  0.00  0.00    -0.174 OA
ATOM     27  O   UNL     1       5.265  -0.226  -3.712  0.00  0.00    -0.174 OA
ATOM     28  C   UNL     1       2.857   0.422  -2.761  0.00  0.00    +0.188 C 
ENDBRANCH  21  22
BRANCH  21  29
ATOM     29  C   UNL     1      -0.239   0.341  -4.666  0.00  0.00    +0.076 C 
ATOM     30  C   UNL     1      -0.446   1.857  -4.636  0.00  0.00    +0.022 C 
ATOM     31  C   UNL     1      -1.271   2.283  -5.851  0.00  0.00    +0.002 C 
ATOM     32  C   UNL     1      -2.631   1.583  -5.815  0.00  0.00    +0.000 C 
ATOM     33  C   UNL     1      -2.425   0.067  -5.845  0.00  0.00    +0.002 C 
ATOM     34  C   UNL     1      -1.599  -0.359  -4.630  0.00  0.00    +0.022 C 
ENDBRANCH  21  29
ENDBRANCH  18  19
ENDBRANCH   2  18
TORSDOF 7
