REMARK  Name = ZINC45076170
REMARK  13 active torsions:
REMARK  status: ('A' for Active; 'I' for Inactive)
REMARK    1  A    between atoms: C_1  and  C_2
REMARK    2  A    between atoms: C_2  and  C_3
REMARK    3  A    between atoms: C_2  and  C_4
REMARK    4  A    between atoms: C_4  and  C_5
REMARK    5  A    between atoms: C_5  and  C_7
REMARK    6  A    between atoms: C_5  and  N_22
REMARK    7  A    between atoms: N_9  and  C_10
REMARK    8  A    between atoms: C_10  and  C_11
REMARK    9  A    between atoms: C_23  and  O_25
REMARK   10  A    between atoms: O_25  and  C_26
REMARK   11  A    between atoms: C_26  and  C_27
REMARK   12  A    between atoms: C_26  and  C_28
REMARK   13  A    between atoms: C_26  and  C_29
REMARK                            x       y       z     vdW  Elec       q    Type
REMARK                         _______ _______ _______ _____ _____    ______ ____
ROOT
ATOM      1  C   UNL     1      -2.819  -2.590   0.013  0.00  0.00    +0.234 C 
ATOM      2  O   UNL     1      -3.320  -3.216  -0.898  0.00  0.00    -0.274 OA
ATOM      3  N   UNL     1      -3.518  -2.371   1.144  0.00  0.00    -0.310 N 
ATOM      4  H   UNL     1      -3.118  -1.870   1.872  0.00  0.00    +0.149 HD
ENDROOT
BRANCH   1   5
ATOM      5  C   UNL     1      -1.416  -2.058  -0.121  0.00  0.00    +0.162 C 
BRANCH   5   6
ATOM      6  N   UNL     1      -0.876  -2.426  -1.433  0.00  0.00    -0.270 N 
ATOM      7  C   UNL     1       0.456  -2.525  -1.610  0.00  0.00    +0.401 C 
ATOM      8  O   UNL     1       1.210  -2.307  -0.682  0.00  0.00    -0.226 OA
ATOM      9  H   UNL     1      -1.478  -2.600  -2.173  0.00  0.00    +0.153 HD
BRANCH   7  10
ATOM     10  O   UNL     1       0.952  -2.863  -2.815  0.00  0.00    -0.445 OA
BRANCH  10  11
ATOM     11  C   UNL     1       2.373  -2.949  -2.931  0.00  0.00    +0.107 C 
ATOM     12  C   UNL     1       2.902  -4.004  -1.958  0.00  0.00    +0.055 C 
ATOM     13  C   UNL     1       2.745  -3.343  -4.362  0.00  0.00    +0.055 C 
ATOM     14  C   UNL     1       2.995  -1.591  -2.598  0.00  0.00    +0.055 C 
ENDBRANCH  10  11
ENDBRANCH   7  10
ENDBRANCH   5   6
BRANCH   5  15
ATOM     15  C   UNL     1      -1.433  -0.534   0.013  0.00  0.00    +0.035 C 
BRANCH  15  17
ATOM     16  C   UNL     1      -0.019   1.526   0.010  0.00  0.00    +0.007 C 
ATOM     17  C   UNL     1       0.002  -0.004   0.002  0.00  0.00    -0.015 C 
ATOM     18  C   UNL     1       0.742  -0.511   1.242  0.00  0.00    +0.007 C 
ENDBRANCH  15  17
ENDBRANCH   5  15
ENDBRANCH   1   5
BRANCH   3  19
ATOM     19  C   UNL     1      -4.882  -2.888   1.274  0.00  0.00    +0.141 C 
BRANCH  19  20
ATOM     20  C   UNL     1      -5.437  -2.509   2.623  0.00  0.00    -0.014 A 
ATOM     21  C   UNL     1      -5.260  -3.348   3.715  0.00  0.00    +0.010 A 
ATOM     22  C   UNL     1      -5.785  -2.963   4.935  0.00  0.00    +0.042 A 
ATOM     23  C   UNL     1      -6.469  -1.755   5.027  0.00  0.00    +0.099 A 
ATOM     24  N   UNL     1      -6.616  -0.982   3.962  0.00  0.00    -0.349 N 
ATOM     25  C   UNL     1      -6.121  -1.322   2.786  0.00  0.00    +0.089 A 
ATOM     26  N   UNL     1      -7.002  -1.355   6.247  0.00  0.00    -0.317 N 
ATOM     27  C   UNL     1      -6.910  -2.105   7.508  0.00  0.00    +0.106 C 
ATOM     28  C   UNL     1      -7.665  -1.291   8.580  0.00  0.00    +0.020 C 
ATOM     29  C   UNL     1      -8.622  -0.408   7.737  0.00  0.00    +0.020 C 
ATOM     30  C   UNL     1      -7.747  -0.107   6.492  0.00  0.00    +0.106 C 
ATOM     31  H   UNL     1      -7.097  -0.144   4.048  0.00  0.00    +0.167 HD
ENDBRANCH  19  20
ENDBRANCH   3  19
TORSDOF 8
