REMARK  Name = ZINC04477695
REMARK  5 active torsions:
REMARK  status: ('A' for Active; 'I' for Inactive)
REMARK    1  A    between atoms: C_3  and  N_9
REMARK    2  A    between atoms: N_9  and  N_10
REMARK    3  A    between atoms: C_11  and  C_12
REMARK    4  A    between atoms: C_11  and  C_15
REMARK    5  A    between atoms: C_12  and  N_14
REMARK                            x       y       z     vdW  Elec       q    Type
REMARK                         _______ _______ _______ _____ _____    ______ ____
ROOT
ATOM      1  N   UNL     1       3.662   3.523  -0.550  0.00  0.00    -0.175 NA
ATOM      2  C   UNL     1       4.713   4.112  -0.014  0.00  0.00    +0.171 C 
ENDROOT
BRANCH   2   3
ATOM      3  C   UNL     1       4.655   5.539   0.339  0.00  0.00    +0.269 C 
ATOM      4  O   UNL     1       5.661   6.115   0.708  0.00  0.00    -0.268 OA
ATOM      5  N   UNL     1       3.488   6.208   0.254  0.00  0.00    -0.292 N 
ATOM      6  C   UNL     1       2.223   5.496   0.014  0.00  0.00    +0.136 C 
ATOM      7  C   UNL     1       1.205   5.952   1.066  0.00  0.00    +0.179 C 
ATOM      8  O   UNL     1       1.139   7.380   1.069  0.00  0.00    -0.377 OA
ATOM      9  C   UNL     1       2.365   8.021   1.432  0.00  0.00    +0.179 C 
ATOM     10  C   UNL     1       3.441   7.671   0.404  0.00  0.00    +0.136 C 
ENDBRANCH   2   3
BRANCH   1  11
ATOM     11  N   UNL     1       3.677   2.252  -0.768  0.00  0.00    -0.236 N 
ATOM     12  H   UNL     1       4.481   1.738  -0.591  0.00  0.00    +0.174 HD
BRANCH  11  15
ATOM     13  C   UNL     1       0.258   1.715  -2.002  0.00  0.00    +0.003 A 
ATOM     14  C   UNL     1       1.385   2.348  -1.515  0.00  0.00    +0.026 A 
ATOM     15  C   UNL     1       2.537   1.615  -1.260  0.00  0.00    +0.068 A 
ATOM     16  C   UNL     1       2.552   0.244  -1.497  0.00  0.00    +0.082 A 
ATOM     17  C   UNL     1       1.420  -0.383  -1.985  0.00  0.00    +0.061 A 
ATOM     18  C   UNL     1       0.274   0.353  -2.237  0.00  0.00    +0.021 A 
ATOM     19 CL   UNL     1       1.435  -2.093  -2.282  0.00  0.00    -0.082 Cl
ATOM     20 CL   UNL     1       3.988  -0.678  -1.182  0.00  0.00    -0.080 Cl
ENDBRANCH  11  15
ENDBRANCH   1  11
BRANCH   2  21
ATOM     21  C   UNL     1       5.940   3.343   0.230  0.00  0.00    +0.102 C 
ATOM     22  S   UNL     1       7.186   3.325  -0.944  0.00  0.00    -0.033 S 
BRANCH  21  23
ATOM     23  N   UNL     1       6.086   2.653   1.378  0.00  0.00    -0.350 N 
ATOM     24  H   UNL     1       5.353   2.604   2.011  0.00  0.00    +0.143 HD
ATOM     25  H   UNL     1       6.924   2.204   1.571  0.00  0.00    +0.143 HD
ENDBRANCH  21  23
ENDBRANCH   2  21
TORSDOF 5
