REMARK  Name = ZINC02405857
REMARK  13 active torsions:
REMARK  status: ('A' for Active; 'I' for Inactive)
REMARK    1  A    between atoms: C_1  and  C_2
REMARK    2  A    between atoms: C_2  and  C_3
REMARK    3  A    between atoms: C_2  and  C_4
REMARK    4  A    between atoms: C_10  and  N_14
REMARK    5  A    between atoms: N_14  and  C_15
REMARK    6  A    between atoms: C_15  and  C_16
REMARK    7  A    between atoms: C_16  and  C_17
REMARK    8  A    between atoms: C_20  and  O_25
REMARK    9  A    between atoms: C_21  and  O_23
REMARK   10  A    between atoms: O_23  and  C_24
REMARK   11  A    between atoms: O_25  and  C_26
REMARK   12  A    between atoms: C_31  and  C_34
REMARK   13  A    between atoms: C_31  and  C_35
REMARK                            x       y       z     vdW  Elec       q    Type
REMARK                         _______ _______ _______ _____ _____    ______ ____
ROOT
ATOM      1  C   UNL     1     -10.396   8.208  -3.058  0.00  0.00    +0.051 A 
ATOM      2  C   UNL     1     -10.047   8.010  -4.389  0.00  0.00    +0.004 A 
ATOM      3  C   UNL     1      -8.877   7.363  -4.699  0.00  0.00    -0.026 A 
ATOM      4  C   UNL     1      -8.042   6.902  -3.655  0.00  0.00    +0.037 A 
ATOM      5  C   UNL     1      -6.756   6.190  -3.778  0.00  0.00    +0.093 A 
ATOM      6  C   UNL     1      -6.132   5.844  -2.573  0.00  0.00    +0.080 A 
ATOM      7  C   UNL     1      -4.917   5.171  -2.568  0.00  0.00    +0.136 A 
ATOM      8  N   UNL     1      -4.358   4.867  -3.738  0.00  0.00    -0.220 NA
ATOM      9  C   UNL     1      -4.963   5.195  -4.865  0.00  0.00    +0.224 A 
ATOM     10  N   UNL     1      -6.107   5.830  -4.908  0.00  0.00    -0.234 NA
ATOM     11  S   UNL     1      -7.220   6.449  -1.314  0.00  0.00    -0.064 S 
ATOM     12  C   UNL     1      -8.485   7.150  -2.344  0.00  0.00    +0.111 A 
ATOM     13  N   UNL     1      -9.614   7.777  -2.089  0.00  0.00    -0.244 NA
ATOM     14  C   UNL     1      -8.449   7.130  -6.122  0.00  0.00    +0.070 C 
ATOM     15  C   UNL     1      -9.646   7.322  -7.056  0.00  0.00    +0.068 C 
ATOM     16  O   UNL     1     -10.291   8.556  -6.720  0.00  0.00    -0.369 OA
ATOM     17  C   UNL     1     -10.973   8.513  -5.467  0.00  0.00    +0.197 C 
ATOM     18  C   UNL     1      -9.164   7.373  -8.508  0.00  0.00    +0.041 C 
ATOM     19  C   UNL     1     -10.629   6.163  -6.877  0.00  0.00    +0.041 C 
ENDROOT
BRANCH   1  21
ATOM     20  C   UNL     1     -12.578   7.996  -1.900  0.00  0.00    +0.014 C 
ATOM     21  C   UNL     1     -11.679   8.923  -2.721  0.00  0.00    +0.032 C 
ATOM     22  C   UNL     1     -11.364  10.180  -1.907  0.00  0.00    +0.014 C 
ENDBRANCH   1  21
BRANCH   7  23
ATOM     23  N   UNL     1      -4.300   4.828  -1.375  0.00  0.00    -0.328 N 
ATOM     24  H   UNL     1      -4.716   5.059  -0.529  0.00  0.00    +0.147 HD
BRANCH  23  25
ATOM     25  C   UNL     1      -3.019   4.118  -1.390  0.00  0.00    +0.107 C 
BRANCH  25  26
ATOM     26  C   UNL     1      -2.559   3.864   0.047  0.00  0.00    +0.054 C 
BRANCH  26  27
ATOM     27  C   UNL     1      -1.241   3.133   0.031  0.00  0.00    -0.042 A 
ATOM     28  C   UNL     1      -1.219   1.751   0.017  0.00  0.00    +0.007 A 
ATOM     29  C   UNL     1      -0.013   1.076   0.008  0.00  0.00    +0.049 A 
ATOM     30  C   UNL     1       1.178   1.785   0.000  0.00  0.00    +0.161 A 
ATOM     31  C   UNL     1       1.155   3.176   0.008  0.00  0.00    +0.162 A 
ATOM     32  C   UNL     1      -0.057   3.846   0.023  0.00  0.00    +0.053 A 
BRANCH  31  33
ATOM     33  O   UNL     1       2.321   3.877   0.001  0.00  0.00    -0.491 OA
ATOM     34  C   UNL     1       2.222   5.302   0.010  0.00  0.00    +0.277 C 
ENDBRANCH  31  33
BRANCH  30  35
ATOM     35  O   UNL     1       2.365   1.123  -0.015  0.00  0.00    -0.491 OA
ATOM     36  C   UNL     1       2.312  -0.305  -0.023  0.00  0.00    +0.277 C 
ENDBRANCH  30  35
ENDBRANCH  26  27
ENDBRANCH  25  26
ENDBRANCH  23  25
ENDBRANCH   7  23
TORSDOF 7
