REMARK  Name = ZINC63463008
REMARK  6 active torsions:
REMARK  status: ('A' for Active; 'I' for Inactive)
REMARK    1  A    between atoms: C_1  and  C_2
REMARK    2  A    between atoms: C_2  and  C_3
REMARK    3  A    between atoms: C_3  and  N_4
REMARK    4  A    between atoms: C_12  and  O_36
REMARK    5  A    between atoms: C_13  and  C_17
REMARK    6  A    between atoms: C_23  and  C_26
REMARK                            x       y       z     vdW  Elec       q    Type
REMARK                         _______ _______ _______ _____ _____    ______ ____
ROOT
ATOM      1  C   UNL     1      -0.347  -4.686  -0.284  0.00  0.00    +0.238 C 
ATOM      2  O   UNL     1       0.557  -5.260   0.286  0.00  0.00    -0.274 OA
ATOM      3  N   UNL     1      -1.519  -4.480   0.349  0.00  0.00    -0.264 N 
ATOM      4  C   UNL     1      -1.691  -4.923   1.655  0.00  0.00    +0.165 A 
ATOM      5  N   UNL     1      -2.755  -4.816   2.421  0.00  0.00    -0.229 NA
ATOM      6  H   UNL     1      -2.242  -4.021  -0.107  0.00  0.00    +0.157 HD
ATOM      7  C   UNL     1      -2.761  -5.294   3.652  0.00  0.00    +0.057 A 
ATOM      8  C   UNL     1      -1.625  -5.896   4.085  0.00  0.00    +0.072 A 
ATOM      9  S   UNL     1      -0.591  -5.734   2.638  0.00  0.00    -0.060 S 
ENDROOT
BRANCH   1  18
ATOM     10  N   UNL     1       0.738  -1.962  -1.265  0.00  0.00    -0.294 N 
ATOM     11  C   UNL     1       1.879  -2.726  -0.748  0.00  0.00    +0.105 C 
ATOM     12  C   UNL     1       3.013  -1.847  -0.297  0.00  0.00    +0.027 C 
ATOM     13  C   UNL     1       4.202  -1.897  -1.252  0.00  0.00    +0.002 C 
ATOM     14  C   UNL     1       4.649  -3.361  -1.379  0.00  0.00    +0.005 C 
ATOM     15  C   UNL     1       3.604  -4.091  -2.224  0.00  0.00    +0.036 C 
ATOM     16  C   UNL     1       2.236  -3.809  -1.713  0.00  0.00    -0.011 C 
ATOM     17  C   UNL     1       1.234  -4.557  -2.182  0.00  0.00    +0.116 C 
ATOM     18  C   UNL     1      -0.160  -4.205  -1.700  0.00  0.00    +0.226 C 
ATOM     19  C   UNL     1      -0.306  -2.696  -1.748  0.00  0.00    +0.235 C 
ATOM     20  O   UNL     1      -1.301  -2.168  -2.199  0.00  0.00    -0.274 OA
BRANCH  17  21
ATOM     21  O   UNL     1       1.452  -5.580  -3.045  0.00  0.00    -0.510 OA
ATOM     22  H   UNL     1       0.648  -6.048  -3.313  0.00  0.00    +0.292 HD
ENDBRANCH  17  21
BRANCH  10  23
ATOM     23  C   UNL     1       0.718  -0.497  -1.257  0.00  0.00    +0.108 C 
BRANCH  23  25
ATOM     24  C   UNL     1       0.225   1.528   0.120  0.00  0.00    +0.005 C 
ATOM     25  C   UNL     1       0.246  -0.001   0.111  0.00  0.00    +0.016 C 
ENDBRANCH  23  25
ENDBRANCH  10  23
ENDBRANCH   1  18
BRANCH   7  26
ATOM     26  C   UNL     1      -3.975  -5.176   4.537  0.00  0.00    +0.014 C 
ATOM     27  C   UNL     1      -4.670  -6.535   4.633  0.00  0.00    +0.016 C 
ATOM     28  C   UNL     1      -5.903  -6.415   5.532  0.00  0.00    -0.010 C 
ATOM     29  C   UNL     1      -6.869  -5.389   4.936  0.00  0.00    +0.007 C 
ATOM     30  C   UNL     1      -6.174  -4.030   4.840  0.00  0.00    -0.010 C 
ATOM     31  C   UNL     1      -4.941  -4.150   3.941  0.00  0.00    +0.016 C 
ATOM     32  C   UNL     1      -5.745  -3.576   6.236  0.00  0.00    +0.007 C 
ATOM     33  C   UNL     1      -4.779  -4.602   6.832  0.00  0.00    -0.010 C 
ATOM     34  C   UNL     1      -5.474  -5.961   6.928  0.00  0.00    +0.007 C 
ATOM     35  C   UNL     1      -3.546  -4.722   5.933  0.00  0.00    +0.016 C 
ENDBRANCH   7  26
TORSDOF 5
