REMARK  Name = ZINC01248617
REMARK  7 active torsions:
REMARK  status: ('A' for Active; 'I' for Inactive)
REMARK    1  A    between atoms: C_1  and  N_2
REMARK    2  A    between atoms: N_2  and  C_3
REMARK    3  A    between atoms: N_2  and  C_4
REMARK    4  A    between atoms: C_7  and  C_10
REMARK    5  A    between atoms: N_11  and  N_12
REMARK    6  A    between atoms: C_18  and  C_21
REMARK    7  A    between atoms: N_23  and  C_24
REMARK                            x       y       z     vdW  Elec       q    Type
REMARK                         _______ _______ _______ _____ _____    ______ ____
ROOT
ATOM      1  N   UNL     1       0.036   0.021  -0.085  0.00  0.00    -0.217 N 
ATOM      2  C   UNL     1      -1.132  -0.684  -0.053  0.00  0.00    +0.166 C 
ATOM      3  N   UNL     1      -2.277  -0.036  -0.026  0.00  0.00    -0.158 NA
ATOM      4  C   UNL     1      -3.474  -0.568   0.012  0.00  0.00    +0.240 C 
ATOM      5  O   UNL     1      -4.425   0.190   0.028  0.00  0.00    -0.274 OA
ATOM      6  C   UNL     1      -3.761  -2.038   0.042  0.00  0.00    +0.122 C 
ATOM      7  C   UNL     1      -2.652  -2.777   0.799  0.00  0.00    +0.149 C 
ATOM      8  S   UNL     1      -1.078  -2.446  -0.040  0.00  0.00    -0.078 S 
ATOM      9  H   UNL     1       0.885  -0.448  -0.101  0.00  0.00    +0.176 HD
ENDROOT
BRANCH   7  10
ATOM     10  C   UNL     1      -2.931  -4.258   0.792  0.00  0.00    +0.231 C 
ATOM     11  O   UNL     1      -3.470  -4.769  -0.167  0.00  0.00    -0.274 OA
ATOM     12  N   UNL     1      -2.580  -5.014   1.851  0.00  0.00    -0.285 N 
ATOM     13  H   UNL     1      -2.089  -4.619   2.588  0.00  0.00    +0.155 HD
BRANCH  12  14
ATOM     14  C   UNL     1      -2.925  -6.370   1.887  0.00  0.00    +0.034 A 
ATOM     15  C   UNL     1      -3.251  -6.974   3.094  0.00  0.00    +0.025 A 
ATOM     16  C   UNL     1      -3.596  -8.311   3.126  0.00  0.00    +0.022 A 
ATOM     17  C   UNL     1      -3.605  -9.052   1.958  0.00  0.00    +0.041 A 
ATOM     18  C   UNL     1      -3.275  -8.455   0.754  0.00  0.00    +0.022 A 
ATOM     19  C   UNL     1      -2.935  -7.117   0.715  0.00  0.00    +0.025 A 
ATOM     20 CL   UNL     1      -4.032 -10.734   2.002  0.00  0.00    -0.084 Cl
ENDBRANCH  12  14
ENDBRANCH   7  10
BRANCH   1  22
ATOM     21  C   UNL     1       1.120   2.092  -0.127  0.00  0.00    +0.138 C 
ATOM     22  N   UNL     1       0.009   1.422  -0.096  0.00  0.00    -0.188 NA
BRANCH  21  26
ATOM     23  C   UNL     1       1.036   6.337  -0.161  0.00  0.00    +0.029 A 
ATOM     24  C   UNL     1       2.255   5.667  -0.183  0.00  0.00    +0.024 A 
ATOM     25  C   UNL     1       2.286   4.290  -0.172  0.00  0.00    +0.011 A 
ATOM     26  C   UNL     1       1.091   3.566  -0.139  0.00  0.00    -0.005 A 
ATOM     27  C   UNL     1      -0.132   4.243  -0.122  0.00  0.00    +0.011 A 
ATOM     28  C   UNL     1      -0.155   5.620  -0.127  0.00  0.00    +0.024 A 
BRANCH  23  30
ATOM     29  C   UNL     1       2.255   8.488  -0.317  0.00  0.00    +0.129 C 
ATOM     30  N   UNL     1       1.009   7.732  -0.171  0.00  0.00    -0.336 N 
ATOM     31  C   UNL     1      -0.266   8.440  -0.037  0.00  0.00    +0.129 C 
ENDBRANCH  23  30
ENDBRANCH  21  26
ENDBRANCH   1  22
TORSDOF 5
