REMARK  Name = ZINC31024655
REMARK  9 active torsions:
REMARK  status: ('A' for Active; 'I' for Inactive)
REMARK    1  A    between atoms: C_1  and  C_2
REMARK    2  A    between atoms: C_2  and  C_3
REMARK    3  A    between atoms: C_2  and  N_4
REMARK    4  A    between atoms: N_7  and  C_8
REMARK    5  A    between atoms: C_11  and  N_14
REMARK    6  A    between atoms: C_15  and  C_17
REMARK    7  A    between atoms: C_18  and  C_19
REMARK    8  A    between atoms: C_22  and  N_25
REMARK    9  A    between atoms: C_26  and  C_28
REMARK                            x       y       z     vdW  Elec       q    Type
REMARK                         _______ _______ _______ _____ _____    ______ ____
ROOT
ATOM      1  N   UNL     1      -6.134  -0.678  -0.210  0.00  0.00    -0.282 N 
ATOM      2  C   UNL     1      -6.218  -2.018  -0.088  0.00  0.00    +0.241 C 
ATOM      3  O   UNL     1      -5.203  -2.688  -0.031  0.00  0.00    -0.270 OA
ATOM      4  H   UNL     1      -7.048  -0.080  -0.338  0.00  0.00    +0.155 HD
ENDROOT
BRANCH   1   8
ATOM      5  C   UNL     1      -2.412   1.196  -0.105  0.00  0.00    +0.035 A 
ATOM      6  C   UNL     1      -3.520   1.822   0.451  0.00  0.00    +0.025 A 
ATOM      7  C   UNL     1      -4.754   1.204   0.411  0.00  0.00    +0.025 A 
ATOM      8  C   UNL     1      -4.884  -0.049  -0.175  0.00  0.00    +0.034 A 
ATOM      9  C   UNL     1      -3.775  -0.676  -0.726  0.00  0.00    +0.025 A 
ATOM     10  C   UNL     1      -2.542  -0.056  -0.691  0.00  0.00    +0.025 A 
BRANCH   5  14
ATOM     11  N   UNL     1       0.861   2.357  -1.109  0.00  0.00    -0.297 N 
ATOM     12  C   UNL     1      -0.300   1.673  -1.095  0.00  0.00    +0.304 C 
ATOM     13  O   UNL     1      -0.573   0.921  -2.011  0.00  0.00    -0.253 OA
ATOM     14  N   UNL     1      -1.161   1.827  -0.070  0.00  0.00    -0.269 N 
ATOM     15  H   UNL     1       1.108   3.037  -0.280  0.00  0.00    +0.151 HD
ATOM     16  H   UNL     1      -0.881   2.446   0.795  0.00  0.00    +0.156 HD
BRANCH  11  18
ATOM     17  C   UNL     1       1.396   3.137  -3.364  0.00  0.00    +0.027 C 
ATOM     18  C   UNL     1       1.794   2.195  -2.226  0.00  0.00    +0.068 C 
ATOM     19  C   UNL     1       3.212   2.530  -1.759  0.00  0.00    +0.027 C 
ENDBRANCH  11  18
ENDBRANCH   5  14
ENDBRANCH   1   8
BRANCH   2  20
ATOM     20  C   UNL     1      -7.527  -2.666  -0.022  0.00  0.00    +0.068 C 
ATOM     21  C   UNL     1      -7.611  -4.008   0.101  0.00  0.00    +0.013 C 
BRANCH  21  22
ATOM     22  C   UNL     1      -8.927  -4.659   0.167  0.00  0.00    -0.025 A 
ATOM     23  C   UNL     1     -10.095  -3.889   0.108  0.00  0.00    +0.010 A 
ATOM     24  C   UNL     1     -11.325  -4.504   0.165  0.00  0.00    +0.024 A 
ATOM     25  C   UNL     1     -11.408  -5.887   0.291  0.00  0.00    +0.033 A 
ATOM     26  C   UNL     1     -10.250  -6.656   0.355  0.00  0.00    +0.024 A 
ATOM     27  C   UNL     1      -9.016  -6.050   0.294  0.00  0.00    +0.010 A 
BRANCH  25  28
ATOM     28  N   UNL     1     -12.657  -6.505   0.353  0.00  0.00    -0.286 N 
ATOM     29  C   UNL     1     -12.831  -7.598   1.123  0.00  0.00    +0.214 C 
ATOM     30  O   UNL     1     -11.930  -7.987   1.835  0.00  0.00    -0.276 OA
ATOM     31  C   UNL     1     -14.144  -8.337   1.098  0.00  0.00    +0.109 C 
ATOM     32  H   UNL     1     -13.501  -6.101  -0.226  0.00  0.00    +0.155 HD
ENDBRANCH  25  28
ENDBRANCH  21  22
ENDBRANCH   2  20
TORSDOF 6
