REMARK  Name = ZINC19932115
REMARK  5 active torsions:
REMARK  status: ('A' for Active; 'I' for Inactive)
REMARK    1  A    between atoms: C_4  and  C_7
REMARK    2  A    between atoms: C_7  and  N_8
REMARK    3  A    between atoms: C_16  and  C_17
REMARK    4  A    between atoms: C_17  and  C_19
REMARK    5  A    between atoms: C_17  and  N_26
REMARK                            x       y       z     vdW  Elec       q    Type
REMARK                         _______ _______ _______ _____ _____    ______ ____
ROOT
ATOM      1  N   UNL     1      -2.932   0.870   1.456  0.00  0.00    -0.322 N 
ATOM      2  C   UNL     1      -3.820   1.690   2.124  0.00  0.00    +0.069 A 
ATOM      3  C   UNL     1      -4.444   2.891   1.819  0.00  0.00    +0.028 A 
ATOM      4  C   UNL     1      -5.302   3.467   2.732  0.00  0.00    +0.002 A 
ATOM      5  C   UNL     1      -5.544   2.853   3.953  0.00  0.00    +0.002 A 
ATOM      6  C   UNL     1      -4.939   1.671   4.271  0.00  0.00    +0.030 A 
ATOM      7  C   UNL     1      -4.065   1.069   3.361  0.00  0.00    +0.089 A 
ATOM      8  N   UNL     1      -3.331  -0.073   3.383  0.00  0.00    -0.230 NA
ATOM      9  C   UNL     1      -2.673  -0.191   2.267  0.00  0.00    +0.133 A 
ENDROOT
BRANCH   1  10
ATOM     10  C   UNL     1      -2.378   1.097   0.120  0.00  0.00    +0.158 C 
BRANCH  10  14
ATOM     11  C   UNL     1      -5.077  -0.417  -2.825  0.00  0.00    +0.000 A 
ATOM     12  C   UNL     1      -5.251   0.857  -2.317  0.00  0.00    +0.000 A 
ATOM     13  C   UNL     1      -4.380   1.346  -1.362  0.00  0.00    +0.005 A 
ATOM     14  C   UNL     1      -3.331   0.562  -0.917  0.00  0.00    -0.028 A 
ATOM     15  C   UNL     1      -3.160  -0.714  -1.421  0.00  0.00    +0.005 A 
ATOM     16  C   UNL     1      -4.031  -1.202  -2.377  0.00  0.00    +0.000 A 
ENDBRANCH  10  14
ENDBRANCH   1  10
BRANCH   9  17
ATOM     17  C   UNL     1      -1.754  -1.335   1.924  0.00  0.00    +0.154 C 
BRANCH  17  18
ATOM     18  N   UNL     1      -2.402  -2.606   2.275  0.00  0.00    -0.293 NA
ATOM     19  C   UNL     1      -3.754  -2.683   1.704  0.00  0.00    +0.066 C 
ATOM     20  C   UNL     1      -4.423  -3.983   2.157  0.00  0.00    -0.067 C 
ATOM     21  N   UNL     1      -3.607  -5.127   1.728  0.00  0.00    +0.381 N 
ATOM     22  C   UNL     1      -2.255  -5.050   2.300  0.00  0.00    -0.067 C 
ATOM     23  C   UNL     1      -1.586  -3.750   1.846  0.00  0.00    +0.066 C 
ATOM     24  H   UNL     1      -4.080  -6.062   2.064  0.00  0.00    -0.086 HD
ATOM     25  H   UNL     1      -3.527  -5.130   0.631  0.00  0.00    -0.086 HD
ENDBRANCH  17  18
BRANCH  17  26
ATOM     26  C   UNL     1      -0.468  -1.197   2.697  0.00  0.00    -0.022 A 
ATOM     27  C   UNL     1      -0.443  -1.475   4.051  0.00  0.00    +0.006 A 
ATOM     28  C   UNL     1       0.738  -1.354   4.760  0.00  0.00    +0.001 A 
ATOM     29  C   UNL     1       1.891  -0.943   4.118  0.00  0.00    +0.015 A 
ATOM     30  C   UNL     1       1.864  -0.659   2.764  0.00  0.00    +0.018 A 
ATOM     31  C   UNL     1       0.684  -0.786   2.054  0.00  0.00    +0.021 A 
ATOM     32 BR   UNL     1       3.441  -0.096   1.885  0.00  0.00    -0.050 Br
ENDBRANCH  17  26
ENDBRANCH   9  17
TORSDOF 5
