REMARK  Name = ZINC39420543
REMARK  9 active torsions:
REMARK  status: ('A' for Active; 'I' for Inactive)
REMARK    1  A    between atoms: C_1  and  C_2
REMARK    2  A    between atoms: C_3  and  C_8
REMARK    3  A    between atoms: C_5  and  C_7
REMARK    4  A    between atoms: C_8  and  C_10
REMARK    5  A    between atoms: C_8  and  N_11
REMARK    6  A    between atoms: N_11  and  C_12
REMARK    7  A    between atoms: N_11  and  C_13
REMARK    8  A    between atoms: C_13  and  C_14
REMARK    9  A    between atoms: C_18  and  C_20
REMARK                            x       y       z     vdW  Elec       q    Type
REMARK                         _______ _______ _______ _____ _____    ______ ____
ROOT
ATOM      1  C   UNL     1      -5.490  -1.716  -1.800  0.00  0.00    -0.033 C 
ATOM      2  C   UNL     1      -5.768  -1.682  -3.105  0.00  0.00    +0.134 C 
ATOM      3  N   UNL     1      -6.537  -2.735  -3.459  0.00  0.00    -0.162 NA
ATOM      4  N   UNL     1      -6.822  -3.496  -2.531  0.00  0.00    -0.172 NA
ATOM      5  C   UNL     1      -6.189  -2.971  -1.309  0.00  0.00    +0.219 C 
ENDROOT
BRANCH   5   6
ATOM      6  C   UNL     1      -7.232  -2.630  -0.276  0.00  0.00    +0.136 A 
ATOM      7  C   UNL     1      -7.108  -2.848   1.040  0.00  0.00    +0.055 A 
ATOM      8  C   UNL     1      -8.351  -2.365   1.653  0.00  0.00    +0.020 A 
ATOM      9  C   UNL     1      -8.836  -2.309   2.959  0.00  0.00    +0.011 A 
ATOM     10  C   UNL     1     -10.075  -1.783   3.200  0.00  0.00    +0.001 A 
ATOM     11  C   UNL     1     -10.852  -1.307   2.154  0.00  0.00    +0.004 A 
ATOM     12  C   UNL     1     -10.389  -1.355   0.856  0.00  0.00    +0.047 A 
ATOM     13  C   UNL     1      -9.133  -1.885   0.590  0.00  0.00    +0.135 A 
ATOM     14  O   UNL     1      -8.420  -2.059  -0.541  0.00  0.00    -0.457 OA
ENDBRANCH   5   6
BRANCH   1  15
ATOM     15  C   UNL     1      -4.667  -0.738  -1.000  0.00  0.00    -0.043 C 
BRANCH  15  16
ATOM     16  N   UNL     1      -3.296  -1.248  -0.864  0.00  0.00    +0.386 N 
ATOM     17  C   UNL     1      -2.664  -1.315  -2.189  0.00  0.00    -0.095 C 
ATOM     18  H   UNL     1      -3.320  -2.171  -0.456  0.00  0.00    -0.081 HD
BRANCH  16  19
ATOM     19  C   UNL     1      -2.523  -0.349   0.003  0.00  0.00    -0.021 C 
ATOM     20  C   UNL     1      -3.181  -0.280   1.382  0.00  0.00    -0.007 C 
BRANCH  19  23
ATOM     21  C   UNL     1       0.017   1.433  -0.214  0.00  0.00    +0.053 C 
ATOM     22  C   UNL     1      -0.040  -0.052   0.039  0.00  0.00    +0.008 A 
ATOM     23  C   UNL     1      -1.117  -0.873   0.143  0.00  0.00    +0.038 A 
ATOM     24  N   UNL     1      -0.876  -2.148   0.371  0.00  0.00    -0.251 NA
ATOM     25  C   UNL     1       0.348  -2.599   0.493  0.00  0.00    +0.076 A 
ATOM     26  S   UNL     1       1.288  -1.220   0.280  0.00  0.00    -0.077 S 
ATOM     27  C   UNL     1       0.803  -4.012   0.753  0.00  0.00    +0.073 C 
ENDBRANCH  19  23
ENDBRANCH  16  19
ENDBRANCH  15  16
ENDBRANCH   1  15
TORSDOF 5
