REMARK  Name = ZINC07125483
REMARK  1 active torsions:
REMARK  status: ('A' for Active; 'I' for Inactive)
REMARK    1  A    between atoms: C_10  and  C_16
REMARK                            x       y       z     vdW  Elec       q    Type
REMARK                         _______ _______ _______ _____ _____    ______ ____
ROOT
ATOM      1  C   UNL     1      -0.017   1.372   0.010  0.00  0.00    +0.002 A 
ATOM      2  C   UNL     1       1.170   2.091   0.002  0.00  0.00    +0.002 A 
ATOM      3  C   UNL     1       2.384   1.437  -0.015  0.00  0.00    +0.028 A 
ATOM      4  C   UNL     1       2.424   0.050  -0.023  0.00  0.00    +0.072 A 
ATOM      5  C   UNL     1       1.223  -0.683  -0.013  0.00  0.00    +0.091 A 
ATOM      6  C   UNL     1       0.002  -0.004   0.002  0.00  0.00    +0.030 A 
ATOM      7  N   UNL     1       1.555  -2.003  -0.020  0.00  0.00    -0.214 NA
ATOM      8  C   UNL     1       2.850  -2.125  -0.032  0.00  0.00    +0.205 A 
ATOM      9  N   UNL     1       3.436  -0.883  -0.043  0.00  0.00    -0.288 N 
ATOM     10  C   UNL     1       4.886  -0.668  -0.080  0.00  0.00    +0.209 C 
ATOM     11  N   UNL     1       5.538  -1.950   0.247  0.00  0.00    -0.294 N 
ATOM     12  C   UNL     1       4.974  -3.112  -0.261  0.00  0.00    +0.159 C 
ATOM     13  N   UNL     1       3.609  -3.293  -0.032  0.00  0.00    -0.259 N 
ATOM     14  N   UNL     1       5.681  -3.988  -0.917  0.00  0.00    -0.375 N 
ATOM     15  H   UNL     1       3.218  -4.169   0.117  0.00  0.00    +0.158 HD
ATOM     16  H   UNL     1       6.628  -3.836  -1.061  0.00  0.00    +0.158 HD
ATOM     17  H   UNL     1       6.335  -1.981   0.799  0.00  0.00    +0.151 HD
ATOM     18  H   UNL     1       5.261  -4.791  -1.261  0.00  0.00    +0.158 HD
ENDROOT
BRANCH  10  19
ATOM     19  C   UNL     1       5.301  -0.219  -1.457  0.00  0.00    -0.005 A 
ATOM     20  C   UNL     1       5.447  -1.147  -2.472  0.00  0.00    +0.009 A 
ATOM     21  C   UNL     1       5.828  -0.736  -3.735  0.00  0.00    +0.022 A 
ATOM     22  C   UNL     1       6.064   0.604  -3.985  0.00  0.00    +0.059 A 
ATOM     23  C   UNL     1       5.918   1.533  -2.969  0.00  0.00    +0.060 A 
ATOM     24  C   UNL     1       5.531   1.121  -1.706  0.00  0.00    +0.028 A 
ATOM     25 CL   UNL     1       6.214   3.215  -3.280  0.00  0.00    -0.082 Cl
ATOM     26 CL   UNL     1       6.544   1.121  -5.571  0.00  0.00    -0.082 Cl
ENDBRANCH  10  19
TORSDOF 1
