REMARK  Name = ZINC43548227
REMARK  12 active torsions:
REMARK  status: ('A' for Active; 'I' for Inactive)
REMARK    1  A    between atoms: C_1  and  C_2
REMARK    2  A    between atoms: C_2  and  N_3
REMARK    3  A    between atoms: N_3  and  C_4
REMARK    4  A    between atoms: C_4  and  C_5
REMARK    5  A    between atoms: C_6  and  C_8
REMARK    6  A    between atoms: C_8  and  C_10
REMARK    7  A    between atoms: C_8  and  C_11
REMARK    8  A    between atoms: C_15  and  C_34
REMARK    9  A    between atoms: N_22  and  C_23
REMARK   10  A    between atoms: C_23  and  C_24
REMARK   11  A    between atoms: C_26  and  C_33
REMARK   12  A    between atoms: C_30  and  O_32
REMARK                            x       y       z     vdW  Elec       q    Type
REMARK                         _______ _______ _______ _____ _____    ______ ____
ROOT
ATOM      1  C   UNL     1      -2.946  -2.633   2.515  0.00  0.00    +0.029 C 
ATOM      2  C   UNL     1      -2.669  -1.737   3.723  0.00  0.00    +0.007 C 
ATOM      3  C   UNL     1      -2.634  -2.583   5.000  0.00  0.00    +0.008 C 
ATOM      4  C   UNL     1      -3.976  -3.295   5.160  0.00  0.00    -0.022 C 
ATOM      5  C   UNL     1      -4.009  -4.094   6.465  0.00  0.00    +0.051 C 
ATOM      6  C   UNL     1      -3.178  -5.319   6.299  0.00  0.00    +0.013 A 
ATOM      7  C   UNL     1      -2.701  -5.843   5.142  0.00  0.00    +0.031 A 
ATOM      8  N   UNL     1      -1.982  -6.955   5.287  0.00  0.00    -0.340 N 
ATOM      9  C   UNL     1      -1.760  -7.491   6.467  0.00  0.00    +0.137 A 
ATOM     10  S   UNL     1      -2.566  -6.448   7.518  0.00  0.00    -0.059 S 
ATOM     11  N   UNL     1      -1.038  -8.634   6.772  0.00  0.00    -0.321 N 
ATOM     12  C   UNL     1      -2.991  -5.171   3.810  0.00  0.00    +0.039 C 
ATOM     13  C   UNL     1      -4.193  -4.232   3.966  0.00  0.00    +0.033 C 
ATOM     14  C   UNL     1      -4.280  -3.360   2.701  0.00  0.00    +0.123 C 
ATOM     15  C   UNL     1      -3.308  -6.237   2.759  0.00  0.00    +0.014 C 
ATOM     16  C   UNL     1      -5.098  -2.256   5.195  0.00  0.00    +0.012 C 
ATOM     17  H   UNL     1      -0.620  -9.148   6.063  0.00  0.00    +0.148 HD
ATOM     18  H   UNL     1      -1.613  -7.383   4.498  0.00  0.00    +0.167 HD
ENDROOT
BRANCH   1  19
ATOM     19  C   UNL     1      -3.008  -1.774   1.250  0.00  0.00    +0.078 C 
ATOM     20  C   UNL     1      -1.698  -1.000   1.094  0.00  0.00    +0.017 C 
BRANCH  19  22
ATOM     21  N   UNL     1      -4.584  -0.142   0.265  0.00  0.00    -0.302 N 
ATOM     22  C   UNL     1      -4.155  -0.803   1.359  0.00  0.00    +0.219 C 
ATOM     23  O   UNL     1      -4.692  -0.615   2.430  0.00  0.00    -0.275 OA
BRANCH  21  25
ATOM     24  C   UNL     1      -7.018   0.049   0.118  0.00  0.00    +0.024 C 
ATOM     25  C   UNL     1      -5.706   0.795   0.368  0.00  0.00    +0.104 C 
ENDBRANCH  21  25
BRANCH  21  26
ATOM     26  C   UNL     1      -3.929  -0.360  -1.027  0.00  0.00    +0.104 C 
ATOM     27  C   UNL     1      -2.925   0.765  -1.286  0.00  0.00    +0.024 C 
ENDBRANCH  21  26
ENDBRANCH  19  22
ENDBRANCH   1  19
BRANCH  14  28
ATOM     28  O   UNL     1      -4.536  -4.190   1.566  0.00  0.00    -0.391 OA
ATOM     29  H   UNL     1      -4.535  -3.715   0.724  0.00  0.00    +0.210 HD
ENDBRANCH  14  28
BRANCH  11  30
ATOM     30  C   UNL     1      -0.907  -9.067   8.165  0.00  0.00    +0.130 C 
BRANCH  30  31
ATOM     31  C   UNL     1      -0.081 -10.326   8.225  0.00  0.00    -0.016 C 
ATOM     32  C   UNL     1       0.986 -10.375   8.983  0.00  0.00    +0.005 C 
ENDBRANCH  30  31
ENDBRANCH  11  30
TORSDOF 7
