REMARK  Name = ZINC00998370
REMARK  6 active torsions:
REMARK  status: ('A' for Active; 'I' for Inactive)
REMARK    1  A    between atoms: C_1  and  C_2
REMARK    2  A    between atoms: C_2  and  C_3
REMARK    3  A    between atoms: C_4  and  C_25
REMARK    4  A    between atoms: C_6  and  N_11
REMARK    5  A    between atoms: C_7  and  C_8
REMARK    6  A    between atoms: C_12  and  C_14
REMARK                            x       y       z     vdW  Elec       q    Type
REMARK                         _______ _______ _______ _____ _____    ______ ____
ROOT
ATOM      1  N   UNL     1      -2.649   0.718   2.504  0.00  0.00    -0.275 N 
ATOM      2  C   UNL     1      -3.386   0.264   3.537  0.00  0.00    +0.256 C 
ATOM      3  O   UNL     1      -4.417  -0.346   3.326  0.00  0.00    -0.270 OA
ATOM      4  H   UNL     1      -1.827   1.205   2.672  0.00  0.00    +0.156 HD
ENDROOT
BRANCH   2   5
ATOM      5  C   UNL     1      -2.945   0.507   4.920  0.00  0.00    +0.122 A 
ATOM      6  C   UNL     1      -1.774   1.201   5.174  0.00  0.00    +0.031 A 
ATOM      7  C   UNL     1      -1.386   1.413   6.521  0.00  0.00    +0.018 A 
ATOM      8  C   UNL     1      -0.205   2.112   6.814  0.00  0.00    +0.011 A 
ATOM      9  C   UNL     1       0.162   2.312   8.114  0.00  0.00    +0.001 A 
ATOM     10  C   UNL     1      -0.626   1.829   9.150  0.00  0.00    +0.004 A 
ATOM     11  C   UNL     1      -1.790   1.140   8.885  0.00  0.00    +0.047 A 
ATOM     12  C   UNL     1      -2.186   0.922   7.570  0.00  0.00    +0.139 A 
ATOM     13  O   UNL     1      -3.326   0.247   7.313  0.00  0.00    -0.422 OA
ATOM     14  C   UNL     1      -3.741   0.025   6.054  0.00  0.00    +0.350 A 
ATOM     15  O   UNL     1      -4.776  -0.583   5.855  0.00  0.00    -0.244 OA
ENDBRANCH   2   5
BRANCH   1  19
ATOM     16  C   UNL     1      -3.103   0.493  -1.210  0.00  0.00    -0.024 A 
ATOM     17  C   UNL     1      -4.255  -0.194  -1.103  0.00  0.00    -0.008 A 
ATOM     18  S   UNL     1      -4.482  -0.344   0.657  0.00  0.00    -0.078 S 
ATOM     19  C   UNL     1      -3.065   0.489   1.203  0.00  0.00    +0.085 A 
ATOM     20  C   UNL     1      -2.447   0.874   0.018  0.00  0.00    +0.068 A 
ATOM     21  C   UNL     1      -5.140  -0.713  -2.207  0.00  0.00    +0.052 C 
BRANCH  20  22
ATOM     22  C   UNL     1      -1.187   1.624   0.017  0.00  0.00    +0.244 C 
ATOM     23  O   UNL     1      -1.204   2.841   0.023  0.00  0.00    -0.270 OA
ATOM     24  N   UNL     1      -0.011   0.966   0.007  0.00  0.00    -0.325 N 
ATOM     25  H   UNL     1       0.002  -0.004   0.002  0.00  0.00    +0.145 HD
ATOM     26  H   UNL     1       0.822   1.462   0.002  0.00  0.00    +0.145 HD
ENDBRANCH  20  22
BRANCH  16  28
ATOM     27  C   UNL     1      -1.588  -0.268  -3.019  0.00  0.00    +0.009 C 
ATOM     28  C   UNL     1      -2.523   0.850  -2.554  0.00  0.00    +0.033 C 
ENDBRANCH  16  28
ENDBRANCH   1  19
TORSDOF 4
