REMARK  Name = ZINC08972057
REMARK  5 active torsions:
REMARK  status: ('A' for Active; 'I' for Inactive)
REMARK    1  A    between atoms: C_1  and  N_52
REMARK    2  A    between atoms: C_3  and  C_25
REMARK    3  A    between atoms: C_5  and  C_17
REMARK    4  A    between atoms: C_17  and  C_19
REMARK    5  A    between atoms: C_29  and  N_31
REMARK                            x       y       z     vdW  Elec       q    Type
REMARK                         _______ _______ _______ _____ _____    ______ ____
ROOT
ATOM      1  C   UNL     1      -3.872  -4.792  -0.136  0.00  0.00    -0.094 C 
ATOM      2  C   UNL     1      -2.108  -4.062   1.378  0.00  0.00    -0.068 C 
ATOM      3  C   UNL     1      -1.181  -2.822   1.450  0.00  0.00    +0.013 C 
ATOM      4  C   UNL     1      -1.219  -2.277   0.002  0.00  0.00    +0.068 C 
ATOM      5  C   UNL     1      -2.514  -2.838  -0.596  0.00  0.00    +0.050 C 
ATOM      6  C   UNL     1      -2.231  -3.672  -1.816  0.00  0.00    -0.027 A 
ATOM      7  C   UNL     1      -1.488  -4.811  -2.029  0.00  0.00    +0.004 A 
ATOM      8  C   UNL     1      -1.415  -5.362  -3.297  0.00  0.00    +0.000 A 
ATOM      9  C   UNL     1      -2.090  -4.766  -4.346  0.00  0.00    +0.002 A 
ATOM     10  C   UNL     1      -2.836  -3.625  -4.136  0.00  0.00    +0.023 A 
ATOM     11  C   UNL     1      -2.914  -3.063  -2.863  0.00  0.00    +0.036 A 
ATOM     12  N   UNL     1      -3.590  -1.931  -2.405  0.00  0.00    -0.286 N 
ATOM     13  C   UNL     1      -3.407  -1.728  -1.088  0.00  0.00    +0.212 C 
ATOM     14  O   UNL     1      -3.870  -0.824  -0.424  0.00  0.00    -0.277 OA
ATOM     15  H   UNL     1      -4.130  -1.357  -2.971  0.00  0.00    +0.155 HD
ATOM     16  N   UNL     1      -3.160  -3.617   0.454  0.00  0.00    +0.391 N 
ATOM     17  H   UNL     1      -3.837  -3.030   0.956  0.00  0.00    -0.080 HD
ENDROOT
BRANCH   3  18
ATOM     18  C   UNL     1       0.221  -3.226   1.831  0.00  0.00    -0.043 A 
ATOM     19  C   UNL     1       0.879  -4.204   1.108  0.00  0.00    +0.004 A 
ATOM     20  C   UNL     1       2.164  -4.574   1.457  0.00  0.00    +0.002 A 
ATOM     21  C   UNL     1       2.791  -3.967   2.529  0.00  0.00    +0.033 A 
ATOM     22  C   UNL     1       2.133  -2.989   3.251  0.00  0.00    +0.126 A 
ATOM     23  C   UNL     1       0.849  -2.616   2.899  0.00  0.00    +0.036 A 
BRANCH  22  24
ATOM     24  N   UNL     1       2.805  -2.339   4.399  0.00  0.00    +0.056 N 
ATOM     25  O   UNL     1       3.937  -2.665   4.707  0.00  0.00    -0.126 OA
ATOM     26  O   UNL     1       2.225  -1.477   5.035  0.00  0.00    -0.126 OA
ENDBRANCH  22  24
ENDBRANCH   3  18
BRANCH   4  27
ATOM     27  C   UNL     1      -1.254  -0.770   0.010  0.00  0.00    +0.168 C 
ATOM     28  O   UNL     1      -1.677  -0.179   0.981  0.00  0.00    -0.292 OA
BRANCH  27  29
ATOM     29  C   UNL     1      -0.776  -0.016  -1.159  0.00  0.00    +0.036 A 
ATOM     30  C   UNL     1      -0.804   1.387  -1.165  0.00  0.00    +0.014 A 
ATOM     31  C   UNL     1      -0.343   2.046  -2.289  0.00  0.00    +0.020 A 
ATOM     32  C   UNL     1       0.127   1.310  -3.363  0.00  0.00    +0.111 A 
ATOM     33  N   UNL     1       0.141  -0.009  -3.331  0.00  0.00    -0.263 NA
ATOM     34  C   UNL     1      -0.286  -0.685  -2.285  0.00  0.00    +0.122 A 
ENDBRANCH  27  29
ENDBRANCH   4  27
TORSDOF 4
