REMARK  Name = ZINC15675524
REMARK  5 active torsions:
REMARK  status: ('A' for Active; 'I' for Inactive)
REMARK    1  A    between atoms: C_1  and  N_2
REMARK    2  A    between atoms: C_4  and  C_11
REMARK    3  A    between atoms: C_11  and  N_12
REMARK    4  A    between atoms: C_21  and  C_23
REMARK    5  A    between atoms: C_25  and  C_28
REMARK                            x       y       z     vdW  Elec       q    Type
REMARK                         _______ _______ _______ _____ _____    ______ ____
ROOT
ATOM      1  N   UNL     1      -1.319  -3.808  -1.834  0.00  0.00    -0.281 NA
ATOM      2  C   UNL     1      -1.767  -4.375  -0.550  0.00  0.00    +0.140 C 
ATOM      3  C   UNL     1      -3.116  -5.014  -0.760  0.00  0.00    +0.051 A 
ATOM      4  C   UNL     1      -3.611  -5.320  -1.982  0.00  0.00    +0.040 A 
ATOM      5  N   UNL     1      -4.836  -5.874  -1.791  0.00  0.00    -0.349 N 
ATOM      6  H   UNL     1      -5.438  -6.195  -2.481  0.00  0.00    +0.166 HD
ATOM      7  C   UNL     1      -5.058  -5.893  -0.455  0.00  0.00    +0.171 A 
ATOM      8  N   UNL     1      -4.021  -5.376   0.151  0.00  0.00    -0.349 N 
ATOM      9  C   UNL     1      -2.868  -5.062  -3.267  0.00  0.00    +0.083 C 
ATOM     10  C   UNL     1      -1.397  -4.799  -2.916  0.00  0.00    +0.152 C 
ATOM     11  H   UNL     1      -3.924  -5.273   1.111  0.00  0.00    +0.166 HD
ENDROOT
BRANCH  10  12
ATOM     12  C   UNL     1      -0.678  -4.273  -4.131  0.00  0.00    +0.245 A 
ATOM     13  N   UNL     1       0.148  -4.948  -4.879  0.00  0.00    -0.190 NA
ATOM     14  C   UNL     1       0.606  -4.171  -5.877  0.00  0.00    +0.202 A 
ATOM     15  N   UNL     1       0.065  -2.983  -5.765  0.00  0.00    -0.056 NA
ATOM     16  O   UNL     1      -0.784  -3.034  -4.628  0.00  0.00    -0.336 OA
BRANCH  14  17
ATOM     17  C   UNL     1       1.566  -4.590  -6.929  0.00  0.00    +0.022 A 
ATOM     18  C   UNL     1       2.068  -5.889  -6.941  0.00  0.00    +0.012 A 
ATOM     19  C   UNL     1       2.959  -6.273  -7.922  0.00  0.00    +0.001 A 
ATOM     20  C   UNL     1       3.356  -5.370  -8.892  0.00  0.00    +0.000 A 
ATOM     21  C   UNL     1       2.861  -4.079  -8.885  0.00  0.00    +0.001 A 
ATOM     22  C   UNL     1       1.964  -3.686  -7.912  0.00  0.00    +0.012 A 
ENDBRANCH  14  17
ENDBRANCH  10  12
BRANCH   1  23
ATOM     23  C   UNL     1       0.039  -3.258  -1.721  0.00  0.00    +0.122 C 
BRANCH  23  27
ATOM     24  C   UNL     1      -0.018   1.461   0.010  0.00  0.00    +0.149 C 
ATOM     25  N   UNL     1       0.002  -0.004   0.002  0.00  0.00    -0.349 N 
ATOM     26  C   UNL     1       0.008  -0.784  -1.122  0.00  0.00    +0.091 A 
ATOM     27  C   UNL     1       0.027  -2.082  -0.779  0.00  0.00    -0.008 A 
ATOM     28  C   UNL     1       0.034  -2.138   0.685  0.00  0.00    +0.004 A 
ATOM     29  C   UNL     1       0.024  -0.801   1.125  0.00  0.00    +0.049 A 
ATOM     30  C   UNL     1       0.032  -0.533   2.489  0.00  0.00    +0.026 A 
ATOM     31  C   UNL     1       0.055  -1.574   3.391  0.00  0.00    +0.002 A 
ATOM     32  C   UNL     1       0.069  -2.891   2.952  0.00  0.00    +0.001 A 
ATOM     33  C   UNL     1       0.051  -3.177   1.616  0.00  0.00    +0.010 A 
ENDBRANCH  23  27
ENDBRANCH   1  23
TORSDOF 4
