REMARK  Name = ZINC06025320
REMARK  7 active torsions:
REMARK  status: ('A' for Active; 'I' for Inactive)
REMARK    1  A    between atoms: C_1  and  C_2
REMARK    2  A    between atoms: C_5  and  C_7
REMARK    3  A    between atoms: C_8  and  C_9
REMARK    4  A    between atoms: N_11  and  C_12
REMARK    5  A    between atoms: C_12  and  C_14
REMARK    6  A    between atoms: C_12  and  C_21
REMARK    7  A    between atoms: C_14  and  C_15
REMARK                            x       y       z     vdW  Elec       q    Type
REMARK                         _______ _______ _______ _____ _____    ______ ____
ROOT
ATOM      1  C   UNL     1      -2.945   0.711   1.462  0.00  0.00    +0.143 C 
ENDROOT
BRANCH   1   2
ATOM      2  C   UNL     1      -4.299   0.049   1.467  0.00  0.00    +0.129 A 
ATOM      3  N   UNL     1      -4.586  -1.134   2.076  0.00  0.00    -0.340 N 
ATOM      4  H   UNL     1      -3.947  -1.706   2.589  0.00  0.00    +0.167 HD
ATOM      5  C   UNL     1      -5.923  -1.396   1.853  0.00  0.00    +0.066 A 
ATOM      6  C   UNL     1      -6.779  -2.428   2.214  0.00  0.00    +0.028 A 
ATOM      7  C   UNL     1      -8.099  -2.389   1.820  0.00  0.00    +0.002 A 
ATOM      8  C   UNL     1      -8.577  -1.327   1.065  0.00  0.00    +0.002 A 
ATOM      9  C   UNL     1      -7.749  -0.303   0.701  0.00  0.00    +0.030 A 
ATOM     10  C   UNL     1      -6.407  -0.321   1.089  0.00  0.00    +0.089 A 
ATOM     11  N   UNL     1      -5.364   0.527   0.894  0.00  0.00    -0.231 NA
ENDBRANCH   1   2
BRANCH   1  14
ATOM     12  C   UNL     1      -1.829  -0.153   3.448  0.00  0.00    +0.238 C 
ATOM     13  O   UNL     1      -2.514   0.594   4.123  0.00  0.00    -0.271 OA
ATOM     14  N   UNL     1      -1.968  -0.170   2.108  0.00  0.00    -0.302 N 
ATOM     15  H   UNL     1      -1.422  -0.765   1.571  0.00  0.00    +0.150 HD
BRANCH  12  17
ATOM     16  C   UNL     1      -0.744  -0.988   5.421  0.00  0.00    +0.051 C 
ATOM     17  C   UNL     1      -0.885  -1.004   4.072  0.00  0.00    +0.071 C 
BRANCH  16  22
ATOM     18  C   UNL     1       2.812  -4.392   6.028  0.00  0.00    +0.086 C 
ATOM     19  C   UNL     1       1.773  -3.344   6.330  0.00  0.00    +0.103 A 
ATOM     20  C   UNL     1       1.452  -2.890   7.562  0.00  0.00    +0.045 A 
ATOM     21  C   UNL     1       0.450  -1.921   7.399  0.00  0.00    +0.049 A 
ATOM     22  C   UNL     1       0.200  -1.839   6.045  0.00  0.00    +0.128 A 
ATOM     23  O   UNL     1       1.019  -2.711   5.421  0.00  0.00    -0.461 OA
ENDBRANCH  16  22
ENDBRANCH  12  17
ENDBRANCH   1  14
BRANCH   1  24
ATOM     24  C   UNL     1      -2.514   0.980   0.019  0.00  0.00    +0.065 C 
BRANCH  24  25
ATOM     25  C   UNL     1      -1.219   1.751   0.017  0.00  0.00    -0.045 A 
ATOM     26  C   UNL     1      -0.013   1.076   0.008  0.00  0.00    +0.004 A 
ATOM     27  C   UNL     1       1.175   1.783   0.000  0.00  0.00    +0.000 A 
ATOM     28  C   UNL     1       1.156   3.165   0.008  0.00  0.00    +0.000 A 
ATOM     29  C   UNL     1      -0.050   3.840   0.022  0.00  0.00    +0.000 A 
ATOM     30  C   UNL     1      -1.238   3.133   0.030  0.00  0.00    +0.004 A 
ENDBRANCH  24  25
ENDBRANCH   1  24
TORSDOF 6
