REMARK  Name = ZINC04535904
REMARK  10 active torsions:
REMARK  status: ('A' for Active; 'I' for Inactive)
REMARK    1  A    between atoms: C_1  and  C_2
REMARK    2  A    between atoms: C_2  and  N_3
REMARK    3  A    between atoms: N_3  and  C_4
REMARK    4  A    between atoms: N_3  and  C_6
REMARK    5  A    between atoms: C_4  and  C_5
REMARK    6  A    between atoms: C_9  and  C_13
REMARK    7  A    between atoms: C_10  and  O_12
REMARK    8  A    between atoms: C_16  and  O_30
REMARK    9  A    between atoms: C_17  and  O_29
REMARK   10  A    between atoms: C_25  and  O_28
REMARK                            x       y       z     vdW  Elec       q    Type
REMARK                         _______ _______ _______ _____ _____    ______ ____
ROOT
ATOM      1  C   UNL     1      -0.018   1.464   0.010  0.00  0.00    +0.007 A 
ATOM      2  C   UNL     1       1.226   2.241   0.002  0.00  0.00    +0.029 A 
ATOM      3  C   UNL     1       2.472   1.600  -0.013  0.00  0.00    +0.061 A 
ATOM      4  C   UNL     1       3.625   2.352  -0.020  0.00  0.00    +0.159 A 
ATOM      5  C   UNL     1       3.552   3.749  -0.013  0.00  0.00    +0.162 A 
ATOM      6  C   UNL     1       2.326   4.389   0.002  0.00  0.00    +0.096 A 
ATOM      7  C   UNL     1       1.153   3.647   0.010  0.00  0.00    +0.140 A 
ATOM      8  O   UNL     1      -0.044   4.269   0.025  0.00  0.00    -0.455 OA
ATOM      9  C   UNL     1      -1.213   3.594   0.033  0.00  0.00    +0.140 A 
ATOM     10  C   UNL     1      -2.407   4.292   0.048  0.00  0.00    +0.101 A 
ATOM     11  C   UNL     1      -3.620   3.600   0.038  0.00  0.00    +0.224 A 
ATOM     12  O   UNL     1      -4.769   4.275   0.048  0.00  0.00    -0.284 OA
ATOM     13  C   UNL     1      -3.635   2.186   0.031  0.00  0.00    +0.164 A 
ATOM     14  C   UNL     1      -2.466   1.492   0.022  0.00  0.00    +0.061 A 
ATOM     15  C   UNL     1      -1.238   2.181   0.020  0.00  0.00    +0.029 A 
ENDROOT
BRANCH   1  19
ATOM     16  C   UNL     1       0.039  -2.776  -0.007  0.00  0.00    +0.033 A 
ATOM     17  C   UNL     1       0.041  -2.078   1.201  0.00  0.00    +0.024 A 
ATOM     18  C   UNL     1       0.023  -0.714   1.210  0.00  0.00    +0.014 A 
ATOM     19  C   UNL     1       0.002  -0.004   0.002  0.00  0.00    +0.025 A 
ATOM     20  C   UNL     1      -0.006  -0.704  -1.218  0.00  0.00    +0.126 A 
ATOM     21  C   UNL     1       0.018  -2.087  -1.214  0.00  0.00    +0.069 A 
BRANCH  20  22
ATOM     22  O   UNL     1      -0.032  -0.026  -2.393  0.00  0.00    -0.506 OA
ATOM     23  H   UNL     1       0.844   0.182  -2.747  0.00  0.00    +0.292 HD
ENDBRANCH  20  22
BRANCH  16  24
ATOM     24  N   UNL     1       0.058  -4.165  -0.003  0.00  0.00    -0.330 N 
BRANCH  24  26
ATOM     25  C   UNL     1      -1.355  -5.168   1.723  0.00  0.00    +0.024 C 
ATOM     26  C   UNL     1       0.080  -4.894   1.267  0.00  0.00    +0.102 C 
ENDBRANCH  24  26
BRANCH  24  27
ATOM     27  C   UNL     1       0.056  -4.901  -1.270  0.00  0.00    +0.102 C 
ATOM     28  C   UNL     1       1.498  -5.137  -1.725  0.00  0.00    +0.024 C 
ENDBRANCH  24  27
ENDBRANCH  16  24
ENDBRANCH   1  19
BRANCH  13  29
ATOM     29  O   UNL     1      -4.821   1.520   0.032  0.00  0.00    -0.503 OA
ATOM     30  H   UNL     1      -5.160   1.322   0.916  0.00  0.00    +0.292 HD
ENDBRANCH  13  29
BRANCH   5  31
ATOM     31  O   UNL     1       4.694   4.483  -0.020  0.00  0.00    -0.503 OA
ATOM     32  H   UNL     1       5.016   4.700  -0.906  0.00  0.00    +0.292 HD
ENDBRANCH   5  31
BRANCH   4  33
ATOM     33  O   UNL     1       4.838   1.736  -0.035  0.00  0.00    -0.503 OA
ATOM     34  H   UNL     1       5.180   1.561  -0.922  0.00  0.00    +0.292 HD
ENDBRANCH   4  33
TORSDOF 8
