REMARK  Name = ZINC39933412
REMARK  9 active torsions:
REMARK  status: ('A' for Active; 'I' for Inactive)
REMARK    1  A    between atoms: C_1  and  C_2
REMARK    2  A    between atoms: C_2  and  C_4
REMARK    3  A    between atoms: C_2  and  S_17
REMARK    4  A    between atoms: N_6  and  C_7
REMARK    5  A    between atoms: C_10  and  N_13
REMARK    6  A    between atoms: C_14  and  C_16
REMARK    7  A    between atoms: S_17  and  C_18
REMARK    8  A    between atoms: C_22  and  C_30
REMARK    9  A    between atoms: N_23  and  C_24
REMARK                            x       y       z     vdW  Elec       q    Type
REMARK                         _______ _______ _______ _____ _____    ______ ____
ROOT
ATOM      1  C   UNL     1       3.038   0.417   0.866  0.00  0.00    +0.242 C 
ATOM      2  N   UNL     1       3.011   0.063  -0.563  0.00  0.00    -0.237 N 
ATOM      3  N   UNL     1       3.207   1.254  -1.272  0.00  0.00    -0.169 NA
ATOM      4  C   UNL     1       3.347   2.270  -0.462  0.00  0.00    +0.151 C 
ATOM      5  N   UNL     1       3.262   1.871   0.878  0.00  0.00    -0.254 N 
ATOM      6  H   UNL     1       2.883  -0.822  -0.939  0.00  0.00    +0.171 HD
ENDROOT
BRANCH   4   7
ATOM      7  C   UNL     1       3.557   3.593  -0.881  0.00  0.00    +0.022 C 
ATOM      8  C   UNL     1       3.549   4.074  -2.191  0.00  0.00    +0.006 A 
ATOM      9  C   UNL     1       3.342   3.444  -3.436  0.00  0.00    +0.010 A 
ATOM     10  C   UNL     1       3.392   4.177  -4.579  0.00  0.00    +0.001 A 
ATOM     11  C   UNL     1       3.644   5.550  -4.556  0.00  0.00    +0.002 A 
ATOM     12  C   UNL     1       3.851   6.220  -3.395  0.00  0.00    +0.026 A 
ATOM     13  C   UNL     1       3.814   5.522  -2.161  0.00  0.00    +0.043 A 
ATOM     14  N   UNL     1       3.981   5.935  -0.920  0.00  0.00    -0.380 N 
ATOM     15  C   UNL     1       3.834   4.796  -0.007  0.00  0.00    +0.152 C 
ATOM     16  H   UNL     1       4.166   6.848  -0.652  0.00  0.00    +0.160 HD
ENDBRANCH   4   7
BRANCH   5  17
ATOM     17  C   UNL     1       3.368   2.691   2.005  0.00  0.00    +0.038 A 
ATOM     18  C   UNL     1       4.491   2.614   2.818  0.00  0.00    +0.023 A 
ATOM     19  C   UNL     1       4.593   3.426   3.931  0.00  0.00    +0.002 A 
ATOM     20  C   UNL     1       3.578   4.314   4.236  0.00  0.00    +0.000 A 
ATOM     21  C   UNL     1       2.458   4.393   3.428  0.00  0.00    +0.002 A 
ATOM     22  C   UNL     1       2.352   3.588   2.311  0.00  0.00    +0.023 A 
ENDBRANCH   5  17
BRANCH   1  23
ATOM     23  S   UNL     1       1.453   0.012   1.650  0.00  0.00    -0.105 S 
BRANCH  23  25
ATOM     24  C   UNL     1       0.239   2.205   0.553  0.00  0.00    +0.029 C 
ATOM     25  C   UNL     1       0.214   0.676   0.503  0.00  0.00    +0.133 C 
BRANCH  25  26
ATOM     26  C   UNL     1      -1.153   0.182   0.899  0.00  0.00    +0.230 C 
ATOM     27  O   UNL     1      -1.372  -0.141   2.048  0.00  0.00    -0.274 OA
ATOM     28  N   UNL     1      -2.134   0.100  -0.022  0.00  0.00    -0.285 N 
ATOM     29  H   UNL     1      -1.942   0.294  -0.953  0.00  0.00    +0.155 HD
BRANCH  28  30
ATOM     30  C   UNL     1      -3.430  -0.266   0.365  0.00  0.00    +0.034 A 
ATOM     31  C   UNL     1      -4.230  -1.003  -0.498  0.00  0.00    +0.025 A 
ATOM     32  C   UNL     1      -5.507  -1.363  -0.117  0.00  0.00    +0.025 A 
ATOM     33  C   UNL     1      -5.991  -0.988   1.130  0.00  0.00    +0.033 A 
ATOM     34  C   UNL     1      -5.191  -0.251   1.992  0.00  0.00    +0.025 A 
ATOM     35  C   UNL     1      -3.912   0.105   1.613  0.00  0.00    +0.025 A 
BRANCH  33  36
ATOM     36  N   UNL     1      -7.287  -1.353   1.516  0.00  0.00    -0.286 N 
ATOM     37  C   UNL     1      -8.010  -0.536   2.307  0.00  0.00    +0.214 C 
ATOM     38  O   UNL     1      -7.577   0.558   2.605  0.00  0.00    -0.276 OA
ATOM     39  C   UNL     1      -9.355  -0.980   2.822  0.00  0.00    +0.109 C 
ATOM     40  H   UNL     1      -7.664  -2.194   1.215  0.00  0.00    +0.155 HD
ENDBRANCH  33  36
ENDBRANCH  28  30
ENDBRANCH  25  26
ENDBRANCH  23  25
ENDBRANCH   1  23
TORSDOF 7
