REMARK  Name = ZINC29744753
REMARK  9 active torsions:
REMARK  status: ('A' for Active; 'I' for Inactive)
REMARK    1  A    between atoms: C_1  and  C_2
REMARK    2  A    between atoms: C_3  and  N_9
REMARK    3  A    between atoms: C_4  and  C_8
REMARK    4  A    between atoms: N_5  and  C_7
REMARK    5  A    between atoms: C_10  and  C_12
REMARK    6  A    between atoms: C_12  and  S_13
REMARK    7  A    between atoms: S_13  and  C_14
REMARK    8  A    between atoms: N_18  and  C_19
REMARK    9  A    between atoms: C_19  and  C_20
REMARK                            x       y       z     vdW  Elec       q    Type
REMARK                         _______ _______ _______ _____ _____    ______ ____
ROOT
ATOM      1  C   UNL     1      -0.110   1.391  -4.190  0.00  0.00    +0.173 C 
ENDROOT
BRANCH   1   3
ATOM      2  N   UNL     1      -0.220  -0.378  -2.465  0.00  0.00    -0.282 N 
ATOM      3  C   UNL     1       0.133   0.881  -2.793  0.00  0.00    +0.228 C 
ATOM      4  O   UNL     1       0.646   1.603  -1.964  0.00  0.00    -0.275 OA
ATOM      5  H   UNL     1      -0.572  -0.975  -3.143  0.00  0.00    +0.155 HD
BRANCH   2   8
ATOM      6  C   UNL     1      -2.006   0.554  -0.088  0.00  0.00    +0.069 C 
ATOM      7  C   UNL     1      -0.863  -0.428  -0.044  0.00  0.00    +0.081 A 
ATOM      8  C   UNL     1      -0.079  -0.824  -1.137  0.00  0.00    +0.077 A 
ATOM      9  C   UNL     1       0.841  -1.716  -0.688  0.00  0.00    +0.057 A 
ATOM     10  N   UNL     1       0.640  -1.874   0.646  0.00  0.00    -0.270 N 
ATOM     11  N   UNL     1      -0.429  -1.051   1.021  0.00  0.00    -0.175 NA
ATOM     12  C   UNL     1       1.409  -2.747   1.536  0.00  0.00    +0.172 C 
ATOM     13  C   UNL     1       1.893  -2.405  -1.518  0.00  0.00    +0.067 C 
ENDBRANCH   2   8
ENDBRANCH   1   3
BRANCH   1  14
ATOM     14  S   UNL     1       0.469   3.106  -4.317  0.00  0.00    -0.075 S 
BRANCH  14  15
ATOM     15  C   UNL     1       0.120   3.551  -5.986  0.00  0.00    +0.210 A 
ATOM     16  N   UNL     1      -0.440   2.787  -6.898  0.00  0.00    -0.101 NA
ATOM     17  N   UNL     1      -0.549   3.420  -8.010  0.00  0.00    -0.022 NA
ATOM     18  N   UNL     1      -0.076   4.614  -7.894  0.00  0.00    -0.043 NA
ATOM     19  N   UNL     1       0.373   4.747  -6.569  0.00  0.00    -0.215 N 
BRANCH  19  20
ATOM     20  C   UNL     1       0.985   5.926  -5.951  0.00  0.00    +0.190 C 
BRANCH  20  21
ATOM     21  C   UNL     1       2.480   5.867  -6.131  0.00  0.00    +0.011 A 
ATOM     22  C   UNL     1       3.239   6.362  -7.141  0.00  0.00    +0.013 A 
ATOM     23  C   UNL     1       4.609   6.189  -7.096  0.00  0.00    +0.008 A 
ATOM     24  C   UNL     1       5.155   5.531  -6.044  0.00  0.00    +0.045 A 
ATOM     25  S   UNL     1       3.713   5.136  -5.067  0.00  0.00    -0.100 S 
ENDBRANCH  20  21
ENDBRANCH  19  20
ENDBRANCH  14  15
ENDBRANCH   1  14
TORSDOF 6
