REMARK  Name = ZINC67516581
REMARK  3 active torsions:
REMARK  status: ('A' for Active; 'I' for Inactive)
REMARK    1  A    between atoms: C_1  and  C_2
REMARK    2  A    between atoms: C_15  and  C_17
REMARK    3  A    between atoms: C_22  and  N_23
REMARK                            x       y       z     vdW  Elec       q    Type
REMARK                         _______ _______ _______ _____ _____    ______ ____
ROOT
ATOM      1  C   UNL     1      -0.290   2.105   0.516  0.00  0.00    +0.007 C 
ATOM      2  C   UNL     1      -0.117   0.599   0.309  0.00  0.00    -0.014 C 
ATOM      3  C   UNL     1      -1.492  -0.060   0.182  0.00  0.00    +0.005 C 
ATOM      4  C   UNL     1      -1.311  -1.563  -0.041  0.00  0.00    +0.023 C 
ATOM      5  C   UNL     1      -0.556  -2.175   1.135  0.00  0.00    +0.079 C 
ATOM      6  C   UNL     1       0.804  -1.495   1.307  0.00  0.00    +0.010 C 
ATOM      7  C   UNL     1       0.623   0.000   1.505  0.00  0.00    +0.008 C 
ATOM      8  C   UNL     1       1.495  -2.082   2.543  0.00  0.00    +0.007 C 
ATOM      9  C   UNL     1       0.650  -1.784   3.784  0.00  0.00    +0.019 C 
ATOM     10  C   UNL     1      -0.723  -2.446   3.639  0.00  0.00    +0.108 C 
ATOM     11  N   UNL     1      -1.323  -2.000   2.374  0.00  0.00    -0.294 N 
ATOM     12  C   UNL     1      -2.555  -1.455   2.351  0.00  0.00    +0.249 C 
ATOM     13  O   UNL     1      -3.083  -1.190   1.289  0.00  0.00    -0.270 OA
ENDROOT
BRANCH  12  14
ATOM     14  C   UNL     1      -3.265  -1.179   3.618  0.00  0.00    +0.067 A 
ATOM     15  C   UNL     1      -2.713  -0.304   4.555  0.00  0.00    +0.015 A 
ATOM     16  C   UNL     1      -3.381  -0.051   5.735  0.00  0.00    +0.001 A 
ATOM     17  C   UNL     1      -4.595  -0.663   5.991  0.00  0.00    +0.002 A 
ATOM     18  C   UNL     1      -5.148  -1.532   5.067  0.00  0.00    +0.033 A 
ATOM     19  C   UNL     1      -4.493  -1.789   3.880  0.00  0.00    +0.138 A 
BRANCH  19  20
ATOM     20  N   UNL     1      -5.088  -2.714   2.890  0.00  0.00    +0.057 N 
ATOM     21  O   UNL     1      -6.206  -3.142   3.059  0.00  0.00    -0.126 OA
ATOM     22  O   UNL     1      -4.457  -3.041   1.912  0.00  0.00    -0.126 OA
ENDBRANCH  19  20
ENDBRANCH  12  14
TORSDOF 2
