REMARK  Name = ZINC39351795
REMARK  10 active torsions:
REMARK  status: ('A' for Active; 'I' for Inactive)
REMARK    1  A    between atoms: C_1  and  C_2
REMARK    2  A    between atoms: C_17  and  C_35
REMARK    3  A    between atoms: C_19  and  O_33
REMARK    4  A    between atoms: C_22  and  C_32
REMARK    5  A    between atoms: C_23  and  C_24
REMARK    6  A    between atoms: C_23  and  O_28
REMARK    7  A    between atoms: C_24  and  C_26
REMARK    8  A    between atoms: C_26  and  O_27
REMARK    9  A    between atoms: O_28  and  C_29
REMARK   10  A    between atoms: C_29  and  C_31
REMARK                            x       y       z     vdW  Elec       q    Type
REMARK                         _______ _______ _______ _____ _____    ______ ____
ROOT
ATOM      1  C   UNL     1       0.312   1.554  -0.300  0.00  0.00    +0.012 C 
ATOM      2  C   UNL     1       0.181   0.032  -0.204  0.00  0.00    +0.038 C 
ATOM      3  C   UNL     1      -1.305  -0.362  -0.038  0.00  0.00    +0.012 C 
ATOM      4  C   UNL     1      -1.253  -1.548   0.944  0.00  0.00    +0.006 C 
ATOM      5  C   UNL     1      -2.590  -1.825   1.589  0.00  0.00    +0.034 C 
ATOM      6  C   UNL     1      -3.648  -2.069   0.510  0.00  0.00    +0.011 C 
ATOM      7  C   UNL     1      -4.960  -2.515   1.164  0.00  0.00    +0.032 C 
ATOM      8  C   UNL     1      -5.355  -1.465   2.186  0.00  0.00    -0.053 C 
ATOM      9  C   UNL     1      -6.576  -0.951   2.142  0.00  0.00    +0.051 C 
ATOM     10  C   UNL     1      -6.987   0.083   3.103  0.00  0.00    +0.179 C 
ATOM     11  O   UNL     1      -8.120   0.528   3.093  0.00  0.00    -0.288 OA
ATOM     12  C   UNL     1      -5.997   0.568   4.079  0.00  0.00    +0.047 C 
ATOM     13  C   UNL     1      -4.785   0.036   4.110  0.00  0.00    -0.009 C 
ATOM     14  C   UNL     1      -4.334  -1.061   3.207  0.00  0.00    +0.044 C 
ATOM     15  C   UNL     1      -3.040  -0.669   2.482  0.00  0.00    +0.153 C 
ATOM     16  C   UNL     1      -1.961  -0.423   3.543  0.00  0.00    +0.154 C 
ATOM     17  C   UNL     1      -0.672   0.001   2.846  0.00  0.00    +0.045 C 
ATOM     18  C   UNL     1      -0.167  -1.134   1.950  0.00  0.00    +0.021 C 
ATOM     19  C   UNL     1       0.917  -0.483   1.047  0.00  0.00    +0.181 C 
ATOM     20  C   UNL     1       0.369  -2.331   2.738  0.00  0.00    +0.016 C 
ATOM     21  F   UNL     1      -3.234   0.482   1.710  0.00  0.00    -0.238 F 
ATOM     22  C   UNL     1      -4.031  -2.285   4.074  0.00  0.00    +0.023 C 
ENDROOT
BRANCH  19  23
ATOM     23  C   UNL     1       1.949  -1.508   0.655  0.00  0.00    +0.202 C 
ATOM     24  O   UNL     1       1.628  -2.662   0.505  0.00  0.00    -0.291 OA
BRANCH  23  25
ATOM     25  C   UNL     1       3.384  -1.093   0.451  0.00  0.00    +0.234 C 
BRANCH  25  26
ATOM     26  O   UNL     1       4.138  -2.207  -0.030  0.00  0.00    -0.387 OA
ATOM     27  H   UNL     1       5.073  -2.012  -0.184  0.00  0.00    +0.210 HD
ENDBRANCH  25  26
ENDBRANCH  23  25
ENDBRANCH  19  23
BRANCH  16  28
ATOM     28  O   UNL     1      -2.391   0.610   4.432  0.00  0.00    -0.389 OA
ATOM     29  H   UNL     1      -1.755   0.818   5.130  0.00  0.00    +0.210 HD
ENDBRANCH  16  28
BRANCH  19  30
ATOM     30  O   UNL     1       1.539   0.605   1.733  0.00  0.00    -0.450 OA
BRANCH  30  31
ATOM     31  C   UNL     1       2.312   0.298   2.787  0.00  0.00    +0.305 C 
ATOM     32  O   UNL     1       2.520  -0.858   3.067  0.00  0.00    -0.251 OA
ATOM     33  C   UNL     1       2.920   1.397   3.620  0.00  0.00    +0.136 C 
ENDBRANCH  30  31
ENDBRANCH  19  30
TORSDOF 6
