REMARK  Name = ZINC40268609
REMARK  9 active torsions:
REMARK  status: ('A' for Active; 'I' for Inactive)
REMARK    1  A    between atoms: C_1  and  O_2
REMARK    2  A    between atoms: O_2  and  C_3
REMARK    3  A    between atoms: C_3  and  C_5
REMARK    4  A    between atoms: C_5  and  C_6
REMARK    5  A    between atoms: C_6  and  C_7
REMARK    6  A    between atoms: C_7  and  C_8
REMARK    7  A    between atoms: C_8  and  C_9
REMARK    8  A    between atoms: C_9  and  N_10
REMARK    9  A    between atoms: C_22  and  C_24
REMARK                            x       y       z     vdW  Elec       q    Type
REMARK                         _______ _______ _______ _____ _____    ______ ____
ROOT
ATOM      1  N   UNL     1      -5.012  -8.711   0.016  0.00  0.00    -0.299 N 
ATOM      2  C   UNL     1      -6.020  -7.816   0.010  0.00  0.00    +0.303 C 
ATOM      3  O   UNL     1      -5.778  -6.627   0.092  0.00  0.00    -0.253 OA
ATOM      4  N   UNL     1      -7.296  -8.239  -0.085  0.00  0.00    -0.273 N 
ATOM      5  C   UNL     1      -8.401  -7.276  -0.203  0.00  0.00    +0.116 C 
ATOM      6  C   UNL     1      -9.081  -7.457  -1.566  0.00  0.00    +0.074 C 
ATOM      7  C   UNL     1      -9.282  -8.928  -1.817  0.00  0.00    +0.040 A 
ATOM      8  C   UNL     1      -8.635  -9.917  -1.165  0.00  0.00    +0.062 A 
ATOM      9  N   UNL     1      -9.062 -11.085  -1.651  0.00  0.00    -0.348 N 
ATOM     10  C   UNL     1      -9.954 -10.860  -2.581  0.00  0.00    +0.171 A 
ATOM     11  N   UNL     1     -10.119  -9.524  -2.712  0.00  0.00    -0.349 N 
ATOM     12  H   UNL     1     -10.719  -9.074  -3.327  0.00  0.00    +0.166 HD
ATOM     13  C   UNL     1      -7.617  -9.677  -0.081  0.00  0.00    +0.156 C 
ATOM     14  H   UNL     1      -5.207  -9.661   0.029  0.00  0.00    +0.150 HD
ATOM     15  H   UNL     1      -8.759 -11.960  -1.362  0.00  0.00    +0.167 HD
ENDROOT
BRANCH  13  16
ATOM     16  C   UNL     1      -8.194 -10.070   1.255  0.00  0.00    -0.021 A 
ATOM     17  C   UNL     1      -9.398  -9.535   1.672  0.00  0.00    +0.007 A 
ATOM     18  C   UNL     1      -9.928  -9.895   2.896  0.00  0.00    +0.015 A 
ATOM     19  C   UNL     1      -9.252 -10.791   3.705  0.00  0.00    +0.018 A 
ATOM     20  C   UNL     1      -8.047 -11.327   3.287  0.00  0.00    +0.015 A 
ATOM     21  C   UNL     1      -7.521 -10.970   2.060  0.00  0.00    +0.007 A 
ATOM     22 BR   UNL     1      -9.976 -11.284   5.381  0.00  0.00    -0.050 Br
ENDBRANCH  13  16
BRANCH   1  23
ATOM     23  C   UNL     1      -3.622  -8.248   0.001  0.00  0.00    +0.106 C 
BRANCH  23  24
ATOM     24  C   UNL     1      -2.683  -9.456   0.011  0.00  0.00    +0.019 C 
BRANCH  24  25
ATOM     25  C   UNL     1      -1.231  -8.973  -0.005  0.00  0.00    +0.002 C 
BRANCH  25  26
ATOM     26  C   UNL     1      -0.291 -10.181   0.005  0.00  0.00    +0.011 C 
BRANCH  26  27
ATOM     27  C   UNL     1       1.160  -9.698  -0.010  0.00  0.00    +0.120 C 
BRANCH  27  28
ATOM     28  C   UNL     1       2.085 -10.888  -0.001  0.00  0.00    +0.307 C 
ATOM     29  O   UNL     1       1.630 -12.007   0.016  0.00  0.00    -0.251 OA
BRANCH  28  31
ATOM     30  C   UNL     1       4.232 -11.877  -0.002  0.00  0.00    +0.280 C 
ATOM     31  O   UNL     1       3.415 -10.704  -0.011  0.00  0.00    -0.468 OA
ENDBRANCH  28  31
ENDBRANCH  27  28
ENDBRANCH  26  27
ENDBRANCH  25  26
ENDBRANCH  24  25
ENDBRANCH  23  24
ENDBRANCH   1  23
TORSDOF 8
