REMARK  Name = ZINC21258330
REMARK  7 active torsions:
REMARK  status: ('A' for Active; 'I' for Inactive)
REMARK    1  A    between atoms: C_1  and  C_2
REMARK    2  A    between atoms: C_5  and  C_8
REMARK    3  A    between atoms: C_13  and  C_23
REMARK    4  A    between atoms: C_25  and  O_31
REMARK    5  A    between atoms: C_28  and  O_29
REMARK    6  A    between atoms: O_29  and  C_30
REMARK    7  A    between atoms: O_31  and  C_32
REMARK                            x       y       z     vdW  Elec       q    Type
REMARK                         _______ _______ _______ _____ _____    ______ ____
ROOT
ATOM      1  C   UNL     1      -0.175   4.206   0.838  0.00  0.00    +0.032 C 
ATOM      2  C   UNL     1       1.062   3.777   0.051  0.00  0.00    +0.059 C 
ATOM      3  C   UNL     1       1.159   2.260   0.021  0.00  0.00    +0.017 C 
ATOM      4  C   UNL     1       0.048   1.505   0.033  0.00  0.00    +0.037 C 
ATOM      5  C   UNL     1       0.002  -0.004   0.002  0.00  0.00    +0.140 C 
ATOM      6  N   UNL     1       1.267  -0.635  -0.306  0.00  0.00    -0.331 N 
ATOM      7  C   UNL     1       2.354  -0.515   0.556  0.00  0.00    +0.049 A 
ATOM      8  C   UNL     1       2.868  -1.614   1.228  0.00  0.00    +0.025 A 
ATOM      9  C   UNL     1       3.917  -1.441   2.114  0.00  0.00    +0.002 A 
ATOM     10  C   UNL     1       4.450  -0.184   2.333  0.00  0.00    +0.002 A 
ATOM     11  C   UNL     1       3.953   0.913   1.649  0.00  0.00    +0.025 A 
ATOM     12  C   UNL     1       2.920   0.737   0.746  0.00  0.00    +0.052 A 
ATOM     13  N   UNL     1       2.428   1.777  -0.036  0.00  0.00    -0.316 N 
ATOM     14  C   UNL     1      -1.228   2.115   0.084  0.00  0.00    +0.163 C 
ATOM     15  O   UNL     1      -2.216   1.408   0.075  0.00  0.00    -0.292 OA
ATOM     16  C   UNL     1      -1.402   3.603   0.143  0.00  0.00    +0.088 C 
ATOM     17  H   UNL     1       1.380  -1.220  -1.230  0.00  0.00    +0.147 HD
ATOM     18  H   UNL     1       3.151   2.213  -0.740  0.00  0.00    +0.152 HD
ENDROOT
BRANCH   1  23
ATOM     19  C   UNL     1      -0.577   9.971   0.863  0.00  0.00    +0.044 C 
ATOM     20  C   UNL     1      -0.471   8.467   0.856  0.00  0.00    -0.050 A 
ATOM     21  C   UNL     1      -0.359   7.777   2.049  0.00  0.00    +0.003 A 
ATOM     22  C   UNL     1      -0.263   6.398   2.043  0.00  0.00    +0.004 A 
ATOM     23  C   UNL     1      -0.280   5.709   0.844  0.00  0.00    -0.043 A 
ATOM     24  C   UNL     1      -0.387   6.400  -0.348  0.00  0.00    +0.004 A 
ATOM     25  C   UNL     1      -0.486   7.779  -0.342  0.00  0.00    +0.003 A 
ENDBRANCH   1  23
BRANCH   5  26
ATOM     26  C   UNL     1      -0.459  -0.496   1.350  0.00  0.00    +0.022 A 
ATOM     27  C   UNL     1      -0.414   0.346   2.445  0.00  0.00    +0.055 A 
ATOM     28  C   UNL     1      -0.843  -0.104   3.684  0.00  0.00    +0.121 A 
ATOM     29  C   UNL     1      -1.307  -1.404   3.827  0.00  0.00    +0.049 A 
ATOM     30  C   UNL     1      -1.346  -2.248   2.734  0.00  0.00    +0.049 A 
ATOM     31  C   UNL     1      -0.922  -1.795   1.493  0.00  0.00    +0.126 A 
BRANCH  31  32
ATOM     32  O   UNL     1      -0.961  -2.625   0.417  0.00  0.00    -0.495 OA
ATOM     33  C   UNL     1      -1.450  -3.950   0.637  0.00  0.00    +0.277 C 
ENDBRANCH  31  32
BRANCH  28  34
ATOM     34  O   UNL     1      -0.805   0.726   4.760  0.00  0.00    -0.495 OA
ATOM     35  C   UNL     1      -1.256   0.194   6.007  0.00  0.00    +0.277 C 
ENDBRANCH  28  34
ENDBRANCH   5  26
TORSDOF 4
