REMARK  Name = ZINC40086090
REMARK  6 active torsions:
REMARK  status: ('A' for Active; 'I' for Inactive)
REMARK    1  A    between atoms: C_4  and  C_7
REMARK    2  A    between atoms: N_16  and  C_17
REMARK    3  A    between atoms: C_17  and  C_18
REMARK    4  A    between atoms: N_20  and  C_21
REMARK    5  A    between atoms: C_25  and  S_27
REMARK    6  A    between atoms: S_27  and  N_30
REMARK                            x       y       z     vdW  Elec       q    Type
REMARK                         _______ _______ _______ _____ _____    ______ ____
ROOT
ATOM      1  C   UNL     1       3.502  -2.680   3.151  0.00  0.00    +0.201 C 
ATOM      2  O   UNL     1       3.588  -3.803   2.700  0.00  0.00    -0.278 OA
ATOM      3  N   UNL     1       3.226  -2.498   4.458  0.00  0.00    -0.287 N 
ATOM      4  H   UNL     1       3.233  -1.605   4.835  0.00  0.00    +0.155 HD
ENDROOT
BRANCH   3   5
ATOM      5  C   UNL     1       2.931  -3.599   5.271  0.00  0.00    +0.035 A 
ATOM      6  C   UNL     1       3.306  -3.596   6.608  0.00  0.00    +0.023 A 
ATOM      7  C   UNL     1       3.013  -4.684   7.407  0.00  0.00    +0.004 A 
ATOM      8  C   UNL     1       2.349  -5.775   6.877  0.00  0.00    +0.029 A 
ATOM      9  C   UNL     1       1.975  -5.780   5.546  0.00  0.00    +0.114 A 
ATOM     10  C   UNL     1       2.259  -4.693   4.743  0.00  0.00    +0.052 A 
BRANCH   9  11
ATOM     11  S   UNL     1       1.130  -7.173   4.875  0.00  0.00    +0.100 S 
ATOM     12  O   UNL     1       1.374  -7.161   3.476  0.00  0.00    -0.146 OA
ATOM     13  O   UNL     1       1.461  -8.284   5.697  0.00  0.00    -0.146 OA
BRANCH  11  14
ATOM     14  N   UNL     1      -0.492  -6.904   5.075  0.00  0.00    -0.118 NA
ATOM     15  C   UNL     1      -1.348  -7.782   4.665  0.00  0.00    +0.117 C 
ATOM     16  C   UNL     1      -0.999  -9.093   3.996  0.00  0.00    +0.074 C 
ATOM     17  C   UNL     1      -2.294  -9.931   4.095  0.00  0.00    +0.026 C 
ATOM     18  C   UNL     1      -3.379  -8.837   4.197  0.00  0.00    +0.103 C 
ATOM     19  N   UNL     1      -2.707  -7.668   4.777  0.00  0.00    -0.331 N 
ATOM     20  H   UNL     1      -3.164  -6.915   5.182  0.00  0.00    +0.147 HD
ENDBRANCH  11  14
ENDBRANCH   9  11
ENDBRANCH   3   5
BRANCH   1  21
ATOM     21  C   UNL     1       3.702  -1.489   2.250  0.00  0.00    +0.020 C 
BRANCH  21  30
ATOM     22  C   UNL     1       4.064  -0.788  -0.017  0.00  0.00    +0.011 C 
ATOM     23  C   UNL     1       4.563  -1.266  -1.359  0.00  0.00    +0.009 A 
ATOM     24  C   UNL     1       4.504  -0.635  -2.541  0.00  0.00    +0.021 A 
ATOM     25  C   UNL     1       5.096  -1.483  -3.500  0.00  0.00    +0.019 A 
ATOM     26  C   UNL     1       5.497  -2.603  -2.860  0.00  0.00    +0.086 A 
ATOM     27  N   UNL     1       5.178  -2.477  -1.548  0.00  0.00    -0.353 N 
ATOM     28  C   UNL     1       5.420  -3.429  -0.457  0.00  0.00    +0.103 C 
ATOM     29  C   UNL     1       5.261  -2.680   0.872  0.00  0.00    -0.055 C 
ATOM     30  N   UNL     1       3.987  -1.950   0.885  0.00  0.00    +0.395 N 
ATOM     31  H   UNL     1       3.247  -2.564   0.579  0.00  0.00    -0.080 HD
BRANCH  22  35
ATOM     32  C   UNL     1       0.189   0.953  -0.461  0.00  0.00    +0.000 A 
ATOM     33  C   UNL     1       1.303   1.764  -0.361  0.00  0.00    +0.000 A 
ATOM     34  C   UNL     1       2.558   1.200  -0.218  0.00  0.00    +0.002 A 
ATOM     35  C   UNL     1       2.697  -0.174  -0.173  0.00  0.00    -0.055 A 
ATOM     36  C   UNL     1       1.582  -0.985  -0.271  0.00  0.00    +0.002 A 
ATOM     37  C   UNL     1       0.328  -0.422  -0.416  0.00  0.00    +0.000 A 
ENDBRANCH  22  35
ENDBRANCH  21  30
ENDBRANCH   1  21
TORSDOF 6
