REMARK  Name = ZINC65506531
REMARK  3 active torsions:
REMARK  status: ('A' for Active; 'I' for Inactive)
REMARK    1  A    between atoms: C_1  and  N_2
REMARK    2  A    between atoms: C_5  and  C_7
REMARK    3  A    between atoms: C_13  and  C_19
REMARK                            x       y       z     vdW  Elec       q    Type
REMARK                         _______ _______ _______ _____ _____    ______ ____
ROOT
ATOM      1  C   UNL     1      -0.018   1.461   0.010  0.00  0.00    +0.174 C 
ATOM      2  N   UNL     1       0.002  -0.004   0.002  0.00  0.00    -0.253 N 
ATOM      3  C   UNL     1       0.008  -0.790  -1.092  0.00  0.00    +0.127 A 
ATOM      4  C   UNL     1       0.041  -2.091  -0.671  0.00  0.00    +0.031 A 
ATOM      5  C   UNL     1       0.042  -2.092   0.726  0.00  0.00    +0.117 A 
ATOM      6  N   UNL     1       0.025  -0.836   1.133  0.00  0.00    -0.168 NA
ATOM      7  C   UNL     1       0.079  -3.251  -1.633  0.00  0.00    +0.089 C 
ATOM      8  C   UNL     1      -0.624  -2.825  -2.927  0.00  0.00    +0.111 C 
ATOM      9  C   UNL     1      -0.204  -1.444  -3.344  0.00  0.00    +0.219 C 
ATOM     10  O   UNL     1      -0.045  -1.209  -4.523  0.00  0.00    -0.275 OA
ATOM     11  N   UNL     1       0.001  -0.457  -2.447  0.00  0.00    -0.270 N 
ATOM     12  H   UNL     1       0.138   0.459  -2.735  0.00  0.00    +0.156 HD
ENDROOT
BRANCH   7  13
ATOM     13  C   UNL     1       1.509  -3.620  -1.929  0.00  0.00    +0.087 A 
ATOM     14  N   UNL     1       2.449  -2.876  -2.455  0.00  0.00    -0.248 NA
ATOM     15  C   UNL     1       3.679  -3.332  -2.662  0.00  0.00    +0.052 A 
ATOM     16  C   UNL     1       3.878  -4.624  -2.288  0.00  0.00    +0.013 A 
ATOM     17  S   UNL     1       2.290  -5.089  -1.656  0.00  0.00    -0.076 S 
ATOM     18  C   UNL     1       5.134  -5.420  -2.392  0.00  0.00    +0.044 C 
ATOM     19  C   UNL     1       6.097  -4.675  -3.331  0.00  0.00    +0.006 C 
ATOM     20  C   UNL     1       6.141  -3.199  -2.925  0.00  0.00    +0.006 C 
ATOM     21  C   UNL     1       4.814  -2.518  -3.266  0.00  0.00    +0.056 C 
ENDBRANCH   7  13
BRANCH   5  22
ATOM     22  C   UNL     1       0.065  -3.292   1.598  0.00  0.00    +0.091 A 
ATOM     23  C   UNL     1       0.571  -3.195   2.893  0.00  0.00    +0.030 A 
ATOM     24  C   UNL     1       0.586  -4.323   3.695  0.00  0.00    +0.004 A 
ATOM     25  C   UNL     1       0.094  -5.512   3.175  0.00  0.00    +0.020 A 
ATOM     26  C   UNL     1      -0.393  -5.537   1.881  0.00  0.00    +0.111 A 
ATOM     27  N   UNL     1      -0.401  -4.447   1.141  0.00  0.00    -0.253 NA
ENDBRANCH   5  22
TORSDOF 2
