REMARK  Name = ZINC40760732
REMARK  7 active torsions:
REMARK  status: ('A' for Active; 'I' for Inactive)
REMARK    1  A    between atoms: C_1  and  C_2
REMARK    2  A    between atoms: C_2  and  C_28
REMARK    3  A    between atoms: C_4  and  N_10
REMARK    4  A    between atoms: C_6  and  C_8
REMARK    5  A    between atoms: C_6  and  C_9
REMARK    6  A    between atoms: C_12  and  N_27
REMARK    7  A    between atoms: C_13  and  N_17
REMARK                            x       y       z     vdW  Elec       q    Type
REMARK                         _______ _______ _______ _____ _____    ______ ____
ROOT
ATOM      1  N   UNL     1       2.559  -0.746  -2.692  0.00  0.00    -0.325 N 
ATOM      2  C   UNL     1       3.778  -0.283  -3.172  0.00  0.00    +0.145 A 
ATOM      3  C   UNL     1       4.304  -0.777  -4.367  0.00  0.00    +0.105 A 
ATOM      4  C   UNL     1       5.532  -0.277  -4.804  0.00  0.00    +0.148 A 
ATOM      5  N   UNL     1       6.151   0.644  -4.069  0.00  0.00    -0.219 NA
ATOM      6  C   UNL     1       5.620   1.084  -2.946  0.00  0.00    +0.225 A 
ATOM      7  N   UNL     1       4.461   0.642  -2.502  0.00  0.00    -0.219 NA
ATOM      8  H   UNL     1       2.068  -1.421  -3.187  0.00  0.00    +0.148 HD
ENDROOT
BRANCH   1  12
ATOM      9  C   UNL     1      -0.071   1.677  -0.122  0.00  0.00    -0.010 C 
ATOM     10  C   UNL     1      -0.098   0.145  -0.134  0.00  0.00    -0.072 C 
ATOM     11  C   UNL     1       0.493  -0.371  -1.442  0.00  0.00    +0.009 C 
ATOM     12  C   UNL     1       2.014  -0.215  -1.437  0.00  0.00    +0.069 C 
ATOM     13  C   UNL     1       2.572  -1.020  -0.264  0.00  0.00    +0.009 C 
ATOM     14  C   UNL     1       1.997  -0.510   1.053  0.00  0.00    -0.072 C 
ATOM     15  N   UNL     1       0.548  -0.403   1.045  0.00  0.00    +0.386 N 
ATOM     16  C   UNL     1       2.651   0.826   1.421  0.00  0.00    -0.010 C 
ATOM     17  C   UNL     1       2.388  -1.524   2.152  0.00  0.00    -0.010 C 
ATOM     18  C   UNL     1      -1.584  -0.282  -0.098  0.00  0.00    -0.010 C 
ATOM     19  H   UNL     1       0.263   0.154   1.856  0.00  0.00    -0.084 HD
ATOM     20  H   UNL     1       0.158  -1.335   1.220  0.00  0.00    -0.084 HD
ENDBRANCH   1  12
BRANCH   4  21
ATOM     21  N   UNL     1       6.100  -0.735  -5.987  0.00  0.00    -0.309 N 
ATOM     22  C   UNL     1       5.884  -0.033  -7.262  0.00  0.00    +0.111 C 
ATOM     23  C   UNL     1       7.234   0.498  -7.741  0.00  0.00    +0.054 C 
ATOM     24  C   UNL     1       8.291  -0.571  -7.655  0.00  0.00    -0.041 A 
ATOM     25  C   UNL     1       9.436  -0.407  -8.426  0.00  0.00    +0.004 A 
ATOM     26  C   UNL     1      10.448  -1.344  -8.387  0.00  0.00    +0.000 A 
ATOM     27  C   UNL     1      10.324  -2.456  -7.574  0.00  0.00    +0.000 A 
ATOM     28  C   UNL     1       9.187  -2.622  -6.810  0.00  0.00    +0.005 A 
ATOM     29  C   UNL     1       8.166  -1.682  -6.853  0.00  0.00    -0.027 A 
ATOM     30  C   UNL     1       6.944  -1.935  -6.013  0.00  0.00    +0.142 C 
ENDBRANCH   4  21
BRANCH   3  31
ATOM     31  N   UNL     1       3.616  -1.751  -5.110  0.00  0.00    -0.353 N 
ATOM     32  H   UNL     1       2.810  -2.155  -4.752  0.00  0.00    +0.143 HD
ATOM     33  H   UNL     1       3.947  -2.019  -5.982  0.00  0.00    +0.143 HD
ENDBRANCH   3  31
TORSDOF 3
