REMARK  Name = ZINC40162317
REMARK  7 active torsions:
REMARK  status: ('A' for Active; 'I' for Inactive)
REMARK    1  A    between atoms: C_1  and  C_2
REMARK    2  A    between atoms: C_2  and  O_3
REMARK    3  A    between atoms: O_3  and  C_4
REMARK    4  A    between atoms: C_7  and  C_26
REMARK    5  A    between atoms: C_8  and  N_16
REMARK    6  A    between atoms: C_12  and  N_14
REMARK    7  A    between atoms: C_20  and  C_23
REMARK                            x       y       z     vdW  Elec       q    Type
REMARK                         _______ _______ _______ _____ _____    ______ ____
ROOT
ATOM      1  C   UNL     1      -1.798  -2.355   1.780  0.00  0.00    +0.217 A 
ATOM      2  C   UNL     1      -3.027  -2.811   1.337  0.00  0.00    +0.077 A 
ATOM      3  C   UNL     1      -3.087  -4.050   0.698  0.00  0.00    +0.014 A 
ATOM      4  C   UNL     1      -4.331  -4.627   0.191  0.00  0.00    +0.100 A 
ATOM      5  C   UNL     1      -4.259  -5.882  -0.434  0.00  0.00    +0.142 A 
ATOM      6  N   UNL     1      -3.102  -6.521  -0.558  0.00  0.00    -0.216 NA
ATOM      7  C   UNL     1      -1.953  -6.043  -0.117  0.00  0.00    +0.129 A 
ATOM      8  C   UNL     1      -1.890  -4.792   0.528  0.00  0.00    +0.063 A 
ATOM      9  C   UNL     1      -0.686  -4.248   1.012  0.00  0.00    +0.131 A 
ATOM     10  N   UNL     1      -0.689  -3.066   1.604  0.00  0.00    -0.198 NA
ATOM     11  N   UNL     1      -0.799  -6.778  -0.291  0.00  0.00    -0.343 N 
ATOM     12  H   UNL     1      -0.655  -7.267  -1.116  0.00  0.00    +0.144 HD
ATOM     13  H   UNL     1      -0.132  -6.805   0.412  0.00  0.00    +0.144 HD
ENDROOT
BRANCH   5  14
ATOM     14  N   UNL     1      -5.412  -6.463  -0.927  0.00  0.00    -0.313 N 
ATOM     15  C   UNL     1      -5.801  -6.278  -2.332  0.00  0.00    +0.106 C 
ATOM     16  C   UNL     1      -6.025  -7.654  -2.966  0.00  0.00    +0.020 C 
ATOM     17  C   UNL     1      -7.040  -8.438  -2.131  0.00  0.00    +0.018 C 
ATOM     18  C   UNL     1      -6.491  -8.641  -0.717  0.00  0.00    +0.119 C 
ATOM     19  C   UNL     1      -6.269  -7.281  -0.059  0.00  0.00    +0.121 C 
BRANCH  18  20
ATOM     20  C   UNL     1      -7.476  -9.441   0.095  0.00  0.00    +0.361 C 
ATOM     21  O   UNL     1      -7.792 -10.563  -0.262  0.00  0.00    -0.246 OA
ATOM     22  O   UNL     1      -7.958  -8.966   1.110  0.00  0.00    -0.246 OA
ENDBRANCH  18  20
ENDBRANCH   5  14
BRANCH   9  23
ATOM     23  N   UNL     1       0.499  -4.945   0.862  0.00  0.00    -0.342 N 
ATOM     24  H   UNL     1       0.663  -5.453   0.052  0.00  0.00    +0.144 HD
ATOM     25  H   UNL     1       1.165  -4.926   1.567  0.00  0.00    +0.144 HD
ENDBRANCH   9  23
BRANCH   4  26
ATOM     26  C   UNL     1      -5.579  -3.937   0.327  0.00  0.00    +0.103 C 
ATOM     27  N   UNL     1      -6.568  -3.389   0.434  0.00  0.00    -0.191 NA
ENDBRANCH   4  26
BRANCH   1  28
ATOM     28  O   UNL     1      -1.723  -1.153   2.402  0.00  0.00    -0.477 OA
BRANCH  28  30
ATOM     29  C   UNL     1      -0.543   0.643   3.509  0.00  0.00    +0.048 C 
ATOM     30  C   UNL     1      -0.429  -0.726   2.834  0.00  0.00    +0.227 C 
ENDBRANCH  28  30
ENDBRANCH   1  28
TORSDOF 6
