REMARK  Name = ZINC13640429
REMARK  8 active torsions:
REMARK  status: ('A' for Active; 'I' for Inactive)
REMARK    1  A    between atoms: C_1  and  C_2
REMARK    2  A    between atoms: C_2  and  C_3
REMARK    3  A    between atoms: C_2  and  C_4
REMARK    4  A    between atoms: C_4  and  C_5
REMARK    5  A    between atoms: N_7  and  C_8
REMARK    6  A    between atoms: C_21  and  C_24
REMARK    7  A    between atoms: C_27  and  O_31
REMARK    8  A    between atoms: C_29  and  O_30
REMARK                            x       y       z     vdW  Elec       q    Type
REMARK                         _______ _______ _______ _____ _____    ______ ____
ROOT
ATOM      1  C   UNL     1      -3.939   5.532   1.014  0.00  0.00    +0.034 A 
ATOM      2  C   UNL     1      -3.540   6.016   2.253  0.00  0.00    +0.025 A 
ATOM      3  C   UNL     1      -2.302   5.669   2.755  0.00  0.00    +0.025 A 
ATOM      4  C   UNL     1      -1.460   4.840   2.023  0.00  0.00    +0.031 A 
ATOM      5  C   UNL     1      -1.851   4.354   0.785  0.00  0.00    -0.018 A 
ATOM      6  C   UNL     1      -3.097   4.706   0.286  0.00  0.00    +0.029 A 
ATOM      7  C   UNL     1      -0.977   3.460  -0.036  0.00  0.00    +0.049 C 
ATOM      8  C   UNL     1      -1.464   2.031   0.018  0.00  0.00    -0.023 C 
ATOM      9  C   UNL     1      -0.446   1.206   0.030  0.00  0.00    -0.030 C 
ATOM     10  C   UNL     1       0.861   1.973  -0.030  0.00  0.00    +0.033 C 
ATOM     11  C   UNL     1       0.471   3.389   0.486  0.00  0.00    +0.029 C 
ATOM     12  C   UNL     1       0.473   3.331   2.017  0.00  0.00    +0.108 C 
ATOM     13  N   UNL     1      -0.208   4.497   2.551  0.00  0.00    -0.336 N 
ATOM     14  H   UNL     1       0.199   5.029   3.252  0.00  0.00    +0.147 HD
ENDROOT
BRANCH  12  15
ATOM     15  C   UNL     1      -0.260   2.096   2.475  0.00  0.00    +0.015 A 
ATOM     16  C   UNL     1      -1.624   2.143   2.692  0.00  0.00    +0.012 A 
ATOM     17  C   UNL     1      -2.298   1.013   3.112  0.00  0.00    +0.046 A 
ATOM     18  C   UNL     1      -1.607  -0.173   3.318  0.00  0.00    +0.120 A 
ATOM     19  C   UNL     1      -0.239  -0.222   3.101  0.00  0.00    +0.091 A 
ATOM     20  C   UNL     1       0.435   0.912   2.674  0.00  0.00    +0.125 A 
BRANCH  20  21
ATOM     21  O   UNL     1       1.775   0.865   2.455  0.00  0.00    -0.506 OA
ATOM     22  H   UNL     1       2.309   1.078   3.234  0.00  0.00    +0.292 HD
ENDBRANCH  20  21
BRANCH  18  23
ATOM     23  O   UNL     1      -2.271  -1.284   3.731  0.00  0.00    -0.507 OA
ATOM     24  H   UNL     1      -2.605  -1.834   3.009  0.00  0.00    +0.292 HD
ENDBRANCH  18  23
ENDBRANCH  12  15
BRANCH   1  27
ATOM     25  C   UNL     1      -6.246   6.029   1.330  0.00  0.00    +0.217 C 
ATOM     26  O   UNL     1      -6.088   5.944   2.529  0.00  0.00    -0.275 OA
ATOM     27  N   UNL     1      -5.195   5.880   0.499  0.00  0.00    -0.285 N 
ATOM     28  H   UNL     1      -5.308   6.012  -0.455  0.00  0.00    +0.155 HD
BRANCH  25  29
ATOM     29  C   UNL     1      -7.617   6.302   0.768  0.00  0.00    +0.099 C 
BRANCH  29  31
ATOM     30  C   UNL     1      -9.988   6.829   1.353  0.00  0.00    +0.008 C 
ATOM     31  C   UNL     1      -8.622   6.429   1.915  0.00  0.00    -0.008 C 
ATOM     32  C   UNL     1      -8.741   5.086   2.639  0.00  0.00    +0.008 C 
ENDBRANCH  29  31
ENDBRANCH  25  29
ENDBRANCH   1  27
TORSDOF 6
