REMARK  Name = ZINC42427718
REMARK  4 active torsions:
REMARK  status: ('A' for Active; 'I' for Inactive)
REMARK    1  A    between atoms: C_1  and  C_2
REMARK    2  A    between atoms: C_6  and  C_20
REMARK    3  A    between atoms: N_9  and  C_10
REMARK    4  A    between atoms: C_15  and  N_16
REMARK                            x       y       z     vdW  Elec       q    Type
REMARK                         _______ _______ _______ _____ _____    ______ ____
ROOT
ATOM      1  C   UNL     1      -0.019   1.526   0.010  0.00  0.00    +0.028 C 
ATOM      2  C   UNL     1       0.002  -0.004   0.002  0.00  0.00    +0.070 C 
ATOM      3  C   UNL     1      -1.434  -0.537   0.020  0.00  0.00    +0.023 C 
ATOM      4  C   UNL     1      -1.406  -2.062   0.152  0.00  0.00    +0.016 C 
ATOM      5  C   UNL     1      -0.731  -2.449   1.469  0.00  0.00    +0.092 C 
ATOM      6  C   UNL     1       0.713  -1.938   1.468  0.00  0.00    +0.118 C 
ATOM      7  N   UNL     1       0.706  -0.494   1.195  0.00  0.00    -0.325 N 
ENDROOT
BRANCH   7   8
ATOM      8  C   UNL     1       1.356   0.401   2.059  0.00  0.00    +0.053 A 
ATOM      9  C   UNL     1       0.656   0.946   3.131  0.00  0.00    +0.026 A 
ATOM     10  C   UNL     1       1.294   1.827   3.985  0.00  0.00    +0.019 A 
ATOM     11  C   UNL     1       2.610   2.155   3.765  0.00  0.00    +0.041 A 
ATOM     12  C   UNL     1       3.355   1.624   2.689  0.00  0.00    +0.101 A 
ATOM     13  C   UNL     1       2.683   0.721   1.833  0.00  0.00    +0.073 A 
ATOM     14  N   UNL     1       4.629   2.069   2.648  0.00  0.00    -0.246 NA
ATOM     15  C   UNL     1       5.099   2.906   3.525  0.00  0.00    +0.157 A 
ATOM     16  S   UNL     1       3.804   3.200   4.559  0.00  0.00    -0.075 S 
BRANCH  13  17
ATOM     17  N   UNL     1       3.362   0.151   0.748  0.00  0.00    -0.355 N 
ATOM     18  H   UNL     1       2.902  -0.466   0.158  0.00  0.00    +0.142 HD
ATOM     19  H   UNL     1       4.292   0.373   0.588  0.00  0.00    +0.142 HD
ENDBRANCH  13  17
ENDBRANCH   7   8
BRANCH   5  20
ATOM     20  C   UNL     1      -0.733  -3.949   1.614  0.00  0.00    +0.215 C 
ATOM     21  O   UNL     1       0.315  -4.551   1.709  0.00  0.00    -0.276 OA
ATOM     22  N   UNL     1      -1.901  -4.622   1.637  0.00  0.00    -0.329 N 
ATOM     23  H   UNL     1      -2.740  -4.140   1.561  0.00  0.00    +0.145 HD
ATOM     24  H   UNL     1      -1.903  -5.587   1.730  0.00  0.00    +0.145 HD
ENDBRANCH   5  20
TORSDOF 3
