REMARK  Name = ZINC34738088
REMARK  4 active torsions:
REMARK  status: ('A' for Active; 'I' for Inactive)
REMARK    1  A    between atoms: C_4  and  C_7
REMARK    2  A    between atoms: C_10  and  C_22
REMARK    3  A    between atoms: C_15  and  C_17
REMARK    4  A    between atoms: N_27  and  C_30
REMARK                            x       y       z     vdW  Elec       q    Type
REMARK                         _______ _______ _______ _____ _____    ______ ____
ROOT
ATOM      1  C   UNL     1       4.466  -0.117  -0.371  0.00  0.00    +0.037 C 
ATOM      2  C   UNL     1       4.558  -1.016  -1.606  0.00  0.00    +0.024 C 
ATOM      3  C   UNL     1       5.687  -2.032  -1.416  0.00  0.00    +0.093 C 
ATOM      4  C   UNL     1       5.378  -2.912  -0.200  0.00  0.00    +0.120 C 
ATOM      5  N   UNL     1       5.145  -2.045   0.963  0.00  0.00    -0.296 N 
ATOM      6  C   UNL     1       4.144  -0.974   0.858  0.00  0.00    +0.116 C 
ATOM      7  C   UNL     1       5.836  -2.228   2.106  0.00  0.00    +0.250 C 
ATOM      8  O   UNL     1       6.738  -3.043   2.147  0.00  0.00    -0.270 OA
ENDROOT
BRANCH   3   9
ATOM      9  C   UNL     1       6.987  -1.304  -1.194  0.00  0.00    +0.220 C 
ATOM     10  O   UNL     1       7.321  -0.987  -0.072  0.00  0.00    -0.275 OA
ATOM     11  N   UNL     1       7.780  -1.005  -2.242  0.00  0.00    -0.298 N 
ATOM     12  C   UNL     1       7.445  -1.479  -3.592  0.00  0.00    +0.126 C 
ATOM     13  C   UNL     1       7.380  -0.270  -4.534  0.00  0.00    +0.124 C 
ATOM     14  N   UNL     1       8.594   0.536  -4.347  0.00  0.00    -0.325 N 
ATOM     15  C   UNL     1       8.929   1.010  -2.997  0.00  0.00    +0.124 C 
ATOM     16  C   UNL     1       8.991  -0.194  -2.056  0.00  0.00    +0.126 C 
BRANCH  14  17
ATOM     17  C   UNL     1       9.417   0.847  -5.435  0.00  0.00    +0.065 A 
ATOM     18  C   UNL     1       9.194   2.006  -6.167  0.00  0.00    +0.026 A 
ATOM     19  C   UNL     1      10.009   2.310  -7.240  0.00  0.00    +0.002 A 
ATOM     20  C   UNL     1      11.045   1.462  -7.588  0.00  0.00    +0.003 A 
ATOM     21  C   UNL     1      11.270   0.307  -6.862  0.00  0.00    +0.040 A 
ATOM     22  C   UNL     1      10.463  -0.001  -5.782  0.00  0.00    +0.144 A 
ATOM     23  F   UNL     1      10.686  -1.127  -5.070  0.00  0.00    -0.204 F 
ENDBRANCH  14  17
ENDBRANCH   3   9
BRANCH   1  27
ATOM     24  C   UNL     1       1.376   2.776  -0.943  0.00  0.00    +0.000 A 
ATOM     25  C   UNL     1       2.678   3.188  -0.730  0.00  0.00    +0.000 A 
ATOM     26  C   UNL     1       3.678   2.252  -0.544  0.00  0.00    +0.004 A 
ATOM     27  C   UNL     1       3.376   0.903  -0.572  0.00  0.00    -0.043 A 
ATOM     28  C   UNL     1       2.074   0.491  -0.784  0.00  0.00    +0.004 A 
ATOM     29  C   UNL     1       1.074   1.428  -0.971  0.00  0.00    +0.000 A 
ENDBRANCH   1  27
BRANCH   7  30
ATOM     30  C   UNL     1       5.498  -1.442   3.305  0.00  0.00    +0.074 A 
ATOM     31  C   UNL     1       6.362  -1.174   4.465  0.00  0.00    +0.054 A 
ATOM     32  C   UNL     1       5.633  -0.420   5.301  0.00  0.00    +0.195 A 
ATOM     33  O   UNL     1       4.422  -0.209   4.762  0.00  0.00    -0.470 OA
ATOM     34  C   UNL     1       4.321  -0.804   3.569  0.00  0.00    +0.207 A 
ENDBRANCH   7  30
TORSDOF 4
