REMARK  Name = ZINC19927646
REMARK  3 active torsions:
REMARK  status: ('A' for Active; 'I' for Inactive)
REMARK    1  A    between atoms: C_1  and  C_2
REMARK    2  A    between atoms: C_8  and  C_16
REMARK    3  A    between atoms: C_11  and  C_15
REMARK                            x       y       z     vdW  Elec       q    Type
REMARK                         _______ _______ _______ _____ _____    ______ ____
ROOT
ATOM      1  C   UNL     1      -3.013  -0.910  -5.742  0.00  0.00    +0.053 C 
ATOM      2  C   UNL     1      -2.330  -0.708  -4.414  0.00  0.00    +0.008 A 
ATOM      3  C   UNL     1      -1.119  -0.165  -4.138  0.00  0.00    +0.124 A 
ATOM      4  N   UNL     1      -0.734  -0.095  -2.879  0.00  0.00    -0.233 NA
ATOM      5  C   UNL     1      -1.502  -0.541  -1.904  0.00  0.00    +0.169 A 
ATOM      6  S   UNL     1      -2.890  -1.124  -2.769  0.00  0.00    -0.057 S 
ATOM      7  N   UNL     1      -1.259  -0.548  -0.535  0.00  0.00    -0.230 N 
ATOM      8  C   UNL     1       0.002  -0.004   0.002  0.00  0.00    +0.208 C 
ATOM      9  S   UNL     1      -0.016  -0.676   1.720  0.00  0.00    -0.118 S 
ATOM     10  C   UNL     1      -1.827  -1.025   1.786  0.00  0.00    +0.132 C 
ATOM     11  C   UNL     1      -2.160  -1.044   0.303  0.00  0.00    +0.235 C 
ATOM     12  O   UNL     1      -3.211  -1.497  -0.099  0.00  0.00    -0.274 OA
ATOM     13  C   UNL     1      -2.105  -2.384   2.434  0.00  0.00    +0.029 C 
ENDROOT
BRANCH   8  14
ATOM     14  C   UNL     1      -0.018   1.503   0.010  0.00  0.00    +0.136 A 
ATOM     15  C   UNL     1       1.062   2.304   0.004  0.00  0.00    +0.047 A 
ATOM     16  C   UNL     1       0.585   3.635   0.016  0.00  0.00    +0.041 A 
ATOM     17  C   UNL     1      -0.759   3.567   0.029  0.00  0.00    +0.195 A 
ATOM     18  O   UNL     1      -1.118   2.273   0.019  0.00  0.00    -0.465 OA
ENDBRANCH   8  14
TORSDOF 1
