REMARK  Name = ZINC13075438
REMARK  14 active torsions:
REMARK  status: ('A' for Active; 'I' for Inactive)
REMARK    1  A    between atoms: C_1  and  C_2
REMARK    2  A    between atoms: C_4  and  C_32
REMARK    3  A    between atoms: C_5  and  S_9
REMARK    4  A    between atoms: C_6  and  C_8
REMARK    5  A    between atoms: S_9  and  N_12
REMARK    6  A    between atoms: N_12  and  C_13
REMARK    7  A    between atoms: C_13  and  C_14
REMARK    8  A    between atoms: C_14  and  O_16
REMARK    9  A    between atoms: O_16  and  C_17
REMARK   10  A    between atoms: C_17  and  C_19
REMARK   11  A    between atoms: C_17  and  C_20
REMARK   12  A    between atoms: C_20  and  C_22
REMARK   13  A    between atoms: C_25  and  N_28
REMARK   14  A    between atoms: C_29  and  C_31
REMARK                            x       y       z     vdW  Elec       q    Type
REMARK                         _______ _______ _______ _____ _____    ______ ____
ROOT
ATOM      1  C   UNL     1      -0.929   3.098   0.971  0.00  0.00    +0.323 C 
ATOM      2  O   UNL     1       0.113   3.603   1.315  0.00  0.00    -0.249 OA
ENDROOT
BRANCH   1   3
ATOM      3  C   UNL     1      -0.928   1.744   0.310  0.00  0.00    +0.226 C 
BRANCH   3   4
ATOM      4  N   UNL     1       0.449   1.256   0.200  0.00  0.00    -0.179 NA
ATOM      5  H   UNL     1       1.192   1.868   0.321  0.00  0.00    +0.149 HD
BRANCH   4   6
ATOM      6  S   UNL     1       0.738  -0.340  -0.138  0.00  0.00    +0.059 S 
ATOM      7  O   UNL     1       2.149  -0.491  -0.212  0.00  0.00    -0.153 OA
ATOM      8  O   UNL     1      -0.064  -1.096   0.759  0.00  0.00    -0.153 OA
BRANCH   6  13
ATOM      9  C   UNL     1      -1.403  -1.405  -5.678  0.00  0.00    +0.044 C 
ATOM     10  C   UNL     1      -0.868  -1.139  -4.294  0.00  0.00    -0.050 A 
ATOM     11  C   UNL     1      -1.717  -1.188  -3.204  0.00  0.00    +0.008 A 
ATOM     12  C   UNL     1      -1.226  -0.944  -1.935  0.00  0.00    -0.024 A 
ATOM     13  C   UNL     1       0.113  -0.651  -1.756  0.00  0.00    +0.111 A 
ATOM     14  C   UNL     1       0.960  -0.597  -2.846  0.00  0.00    -0.024 A 
ATOM     15  C   UNL     1       0.471  -0.845  -4.115  0.00  0.00    +0.008 A 
ATOM     16  C   UNL     1       2.419  -0.272  -2.652  0.00  0.00    +0.046 C 
ATOM     17  C   UNL     1      -2.152  -0.997  -0.747  0.00  0.00    +0.046 C 
ENDBRANCH   6  13
ENDBRANCH   4   6
ENDBRANCH   3   4
ENDBRANCH   1   3
BRANCH   1  18
ATOM     18  O   UNL     1      -2.088   3.742   1.178  0.00  0.00    -0.453 OA
BRANCH  18  19
ATOM     19  C   UNL     1      -2.014   5.043   1.820  0.00  0.00    +0.244 C 
ATOM     20  C   UNL     1      -1.868   6.130   0.754  0.00  0.00    +0.061 C 
BRANCH  19  21
ATOM     21  C   UNL     1      -3.272   5.283   2.614  0.00  0.00    +0.203 C 
ATOM     22  O   UNL     1      -4.249   4.588   2.429  0.00  0.00    -0.288 OA
BRANCH  21  23
ATOM     23  C   UNL     1      -3.316   6.360   3.612  0.00  0.00    +0.021 A 
ATOM     24  C   UNL     1      -2.188   7.160   3.832  0.00  0.00    +0.013 A 
ATOM     25  C   UNL     1      -2.235   8.168   4.760  0.00  0.00    +0.024 A 
ATOM     26  C   UNL     1      -3.398   8.388   5.493  0.00  0.00    +0.033 A 
ATOM     27  C   UNL     1      -4.520   7.591   5.282  0.00  0.00    +0.024 A 
ATOM     28  C   UNL     1      -4.484   6.585   4.351  0.00  0.00    +0.013 A 
BRANCH  26  29
ATOM     29  N   UNL     1      -3.439   9.409   6.440  0.00  0.00    -0.286 N 
ATOM     30  C   UNL     1      -4.135   9.241   7.582  0.00  0.00    +0.214 C 
ATOM     31  O   UNL     1      -4.649   8.171   7.827  0.00  0.00    -0.276 OA
ATOM     32  C   UNL     1      -4.273  10.384   8.555  0.00  0.00    +0.109 C 
ATOM     33  H   UNL     1      -2.968  10.241   6.277  0.00  0.00    +0.155 HD
ENDBRANCH  26  29
ENDBRANCH  21  23
ENDBRANCH  19  21
ENDBRANCH  18  19
ENDBRANCH   1  18
TORSDOF 9
