REMARK  Name = ZINC33918629
REMARK  7 active torsions:
REMARK  status: ('A' for Active; 'I' for Inactive)
REMARK    1  A    between atoms: C_2  and  C_3
REMARK    2  A    between atoms: C_3  and  C_4
REMARK    3  A    between atoms: C_4  and  N_5
REMARK    4  A    between atoms: C_10  and  C_23
REMARK    5  A    between atoms: C_13  and  C_18
REMARK    6  A    between atoms: C_13  and  C_20
REMARK    7  A    between atoms: C_18  and  O_19
REMARK                            x       y       z     vdW  Elec       q    Type
REMARK                         _______ _______ _______ _____ _____    ______ ____
ROOT
ATOM      1  N   UNL     1       1.397   3.587  -0.040  0.00  0.00    -0.241 N 
ATOM      2  C   UNL     1       1.381   4.384  -1.159  0.00  0.00    +0.224 C 
ATOM      3  O   UNL     1       1.156   4.051  -2.302  0.00  0.00    -0.275 OA
ATOM      4  C   UNL     1       1.691   5.707  -0.669  0.00  0.00    +0.077 C 
ATOM      5  C   UNL     1       1.582   7.115  -1.076  0.00  0.00    -0.025 C 
ATOM      6  N   UNL     1       1.717   7.883   0.206  0.00  0.00    +0.397 N 
ATOM      7  C   UNL     1       1.774   6.886   1.325  0.00  0.00    +0.071 C 
ATOM      8  C   UNL     1       0.976   5.700   0.741  0.00  0.00    +0.088 C 
ATOM      9  C   UNL     1       1.395   4.307   1.121  0.00  0.00    +0.225 C 
ATOM     10  O   UNL     1       1.675   3.905   2.230  0.00  0.00    -0.275 OA
ATOM     11  H   UNL     1       2.564   8.429   0.190  0.00  0.00    -0.083 HD
ATOM     12  H   UNL     1       0.919   8.489   0.327  0.00  0.00    -0.083 HD
ENDROOT
BRANCH   5  13
ATOM     13  C   UNL     1       0.242   7.377  -1.713  0.00  0.00    -0.039 A 
ATOM     14  C   UNL     1      -0.816   7.817  -0.939  0.00  0.00    +0.023 A 
ATOM     15  C   UNL     1      -2.047   8.057  -1.523  0.00  0.00    +0.043 A 
ATOM     16  C   UNL     1      -2.220   7.858  -2.881  0.00  0.00    +0.041 A 
ATOM     17  C   UNL     1      -1.161   7.419  -3.655  0.00  0.00    +0.061 A 
ATOM     18  C   UNL     1       0.072   7.183  -3.071  0.00  0.00    +0.061 A 
ATOM     19 CL   UNL     1       1.403   6.637  -4.043  0.00  0.00    -0.082 Cl
ATOM     20 CL   UNL     1      -1.377   7.168  -5.360  0.00  0.00    -0.082 Cl
ATOM     21 CL   UNL     1      -3.376   8.609  -0.551  0.00  0.00    -0.083 Cl
ENDBRANCH   5  13
BRANCH   7  22
ATOM     22  C   UNL     1       1.091   7.426   2.555  0.00  0.00    +0.348 C 
ATOM     23  O   UNL     1       0.613   8.547   2.545  0.00  0.00    -0.248 OA
ATOM     24  O   UNL     1       1.015   6.740   3.561  0.00  0.00    -0.248 OA
ENDBRANCH   7  22
BRANCH   1  25
ATOM     25  C   UNL     1       1.408   2.123  -0.087  0.00  0.00    +0.129 C 
BRANCH  25  26
ATOM     26  C   UNL     1      -0.030   1.602  -0.099  0.00  0.00    +0.108 C 
BRANCH  26  28
ATOM     27  C   UNL     1      -0.010  -1.042  -0.184  0.00  0.00    +0.004 C 
ATOM     28  C   UNL     1      -0.019   0.131  -0.146  0.00  0.00    -0.104 C 
ENDBRANCH  26  28
ENDBRANCH  25  26
ENDBRANCH   1  25
BRANCH   7  29
ATOM     29  C   UNL     1       3.222   6.499   1.633  0.00  0.00    +0.155 C 
BRANCH  29  30
ATOM     30  O   UNL     1       3.951   7.661   2.032  0.00  0.00    -0.396 OA
ATOM     31  H   UNL     1       4.879   7.490   2.243  0.00  0.00    +0.209 HD
ENDBRANCH  29  30
ENDBRANCH   7  29
TORSDOF 7
