REMARK  Name = ZINC08901449
REMARK  5 active torsions:
REMARK  status: ('A' for Active; 'I' for Inactive)
REMARK    1  A    between atoms: C_3  and  C_9
REMARK    2  A    between atoms: C_12  and  C_14
REMARK    3  A    between atoms: C_15  and  C_16
REMARK    4  A    between atoms: N_18  and  C_19
REMARK    5  A    between atoms: C_20  and  C_29
REMARK                            x       y       z     vdW  Elec       q    Type
REMARK                         _______ _______ _______ _____ _____    ______ ____
ROOT
ATOM      1  C   UNL     1       6.605  -2.401   1.591  0.00  0.00    +0.242 C 
ATOM      2  O   UNL     1       6.904  -1.596   0.727  0.00  0.00    -0.270 OA
ATOM      3  N   UNL     1       5.327  -2.501   2.007  0.00  0.00    -0.276 N 
ATOM      4  H   UNL     1       5.090  -3.142   2.696  0.00  0.00    +0.156 HD
ENDROOT
BRANCH   3   5
ATOM      5  C   UNL     1       4.353  -1.688   1.453  0.00  0.00    +0.085 A 
ATOM      6  C   UNL     1       2.999  -1.642   1.746  0.00  0.00    +0.068 A 
ATOM      7  C   UNL     1       2.179  -0.684   1.016  0.00  0.00    -0.023 A 
ATOM      8  C   UNL     1       2.847   0.061   0.110  0.00  0.00    -0.004 A 
ATOM      9  S   UNL     1       4.530  -0.479   0.225  0.00  0.00    -0.077 S 
ATOM     10  C   UNL     1       2.288   1.105  -0.807  0.00  0.00    +0.043 C 
ATOM     11  C   UNL     1       1.406   2.067  -0.000  0.00  0.00    +0.005 C 
ATOM     12  C   UNL     1      -0.019   1.523   0.010  0.00  0.00    +0.001 C 
ATOM     13  C   UNL     1       0.002  -0.004   0.002  0.00  0.00    +0.005 C 
ATOM     14  C   UNL     1       0.683  -0.535   1.259  0.00  0.00    +0.037 C 
BRANCH   6  15
ATOM     15  C   UNL     1       2.412  -2.527   2.756  0.00  0.00    +0.244 C 
ATOM     16  O   UNL     1       1.983  -3.620   2.433  0.00  0.00    -0.270 OA
ATOM     17  N   UNL     1       2.346  -2.132   4.043  0.00  0.00    -0.325 N 
ATOM     18  H   UNL     1       2.688  -1.261   4.301  0.00  0.00    +0.145 HD
ATOM     19  H   UNL     1       1.958  -2.718   4.711  0.00  0.00    +0.145 HD
ENDBRANCH   6  15
ENDBRANCH   3   5
BRANCH   1  21
ATOM     20  C   UNL     1       8.888  -3.131   1.737  0.00  0.00    +0.051 C 
ATOM     21  C   UNL     1       7.599  -3.231   2.157  0.00  0.00    +0.071 C 
BRANCH  20  25
ATOM     22  C   UNL     1      10.855  -5.483   3.556  0.00  0.00    +0.137 A 
ATOM     23  C   UNL     1      11.838  -4.929   2.767  0.00  0.00    +0.050 A 
ATOM     24  C   UNL     1      11.223  -3.961   1.969  0.00  0.00    +0.050 A 
ATOM     25  C   UNL     1       9.882  -3.961   2.303  0.00  0.00    +0.129 A 
ATOM     26  O   UNL     1       9.686  -4.885   3.267  0.00  0.00    -0.455 OA
BRANCH  22  29
ATOM     27  C   UNL     1      11.922  -8.711   5.149  0.00  0.00    +0.021 A 
ATOM     28  C   UNL     1      11.736  -7.719   4.209  0.00  0.00    +0.014 A 
ATOM     29  C   UNL     1      11.053  -6.551   4.555  0.00  0.00    +0.036 A 
ATOM     30  C   UNL     1      10.551  -6.401   5.852  0.00  0.00    +0.053 A 
ATOM     31  C   UNL     1      10.739  -7.404   6.781  0.00  0.00    +0.040 A 
ATOM     32  C   UNL     1      11.422  -8.556   6.431  0.00  0.00    +0.042 A 
ATOM     33 CL   UNL     1      11.655  -9.813   7.606  0.00  0.00    -0.083 Cl
ATOM     34 CL   UNL     1       9.693  -4.957   6.291  0.00  0.00    -0.083 Cl
ENDBRANCH  22  29
ENDBRANCH  20  25
ENDBRANCH   1  21
TORSDOF 5
