REMARK  Name = ZINC00340826
REMARK  2 active torsions:
REMARK  status: ('A' for Active; 'I' for Inactive)
REMARK    1  A    between atoms: N_9  and  C_17
REMARK    2  A    between atoms: C_10  and  C_12
REMARK                            x       y       z     vdW  Elec       q    Type
REMARK                         _______ _______ _______ _____ _____    ______ ____
ROOT
ATOM      1  C   UNL     1       0.640   1.444   1.511  0.00  0.00    +0.001 A 
ATOM      2  C   UNL     1       1.710   2.115   0.932  0.00  0.00    +0.002 A 
ATOM      3  C   UNL     1       2.663   1.439   0.223  0.00  0.00    +0.028 A 
ATOM      4  C   UNL     1       2.565   0.052   0.074  0.00  0.00    +0.079 A 
ATOM      5  C   UNL     1       1.476  -0.632   0.662  0.00  0.00    +0.065 A 
ATOM      6  C   UNL     1       0.516   0.078   1.382  0.00  0.00    +0.015 A 
ATOM      7  C   UNL     1       1.395  -2.089   0.492  0.00  0.00    +0.267 A 
ATOM      8  O   UNL     1       0.481  -2.731   0.976  0.00  0.00    -0.267 OA
ATOM      9  N   UNL     1       2.374  -2.691  -0.222  0.00  0.00    -0.258 N 
ATOM     10  C   UNL     1       3.397  -1.949  -0.759  0.00  0.00    +0.184 A 
ATOM     11  N   UNL     1       3.485  -0.647  -0.617  0.00  0.00    -0.226 NA
ENDROOT
BRANCH   9  12
ATOM     12  C   UNL     1       2.345  -4.075  -0.413  0.00  0.00    +0.054 A 
ATOM     13  C   UNL     1       1.729  -4.629  -1.534  0.00  0.00    +0.046 A 
ATOM     14  C   UNL     1       1.722  -6.000  -1.686  0.00  0.00    +0.113 A 
ATOM     15  N   UNL     1       2.288  -6.783  -0.787  0.00  0.00    -0.263 NA
ATOM     16  C   UNL     1       2.880  -6.297   0.287  0.00  0.00    +0.113 A 
ATOM     17  C   UNL     1       2.935  -4.936   0.510  0.00  0.00    +0.046 A 
ENDBRANCH   9  12
BRANCH  10  18
ATOM     18  C   UNL     1       4.438  -2.642  -1.527  0.00  0.00    +0.170 A 
ATOM     19  C   UNL     1       5.456  -2.049  -2.216  0.00  0.00    +0.053 A 
ATOM     20  C   UNL     1       6.208  -3.084  -2.796  0.00  0.00    +0.042 A 
ATOM     21  C   UNL     1       5.624  -4.248  -2.439  0.00  0.00    +0.196 A 
ATOM     22  O   UNL     1       4.561  -3.978  -1.669  0.00  0.00    -0.460 OA
ENDBRANCH  10  18
TORSDOF 2
