REMARK  Name = ZINC32869018
REMARK  5 active torsions:
REMARK  status: ('A' for Active; 'I' for Inactive)
REMARK    1  A    between atoms: C_3  and  C_6
REMARK    2  A    between atoms: C_8  and  C_11
REMARK    3  A    between atoms: C_11  and  C_12
REMARK    4  A    between atoms: C_12  and  C_13
REMARK    5  A    between atoms: C_18  and  C_21
REMARK                            x       y       z     vdW  Elec       q    Type
REMARK                         _______ _______ _______ _____ _____    ______ ____
ROOT
ATOM      1  C   UNL     1       3.011  -7.056  -1.510  0.00  0.00    +0.219 C 
ATOM      2  O   UNL     1       3.009  -7.668  -0.464  0.00  0.00    -0.275 OA
ATOM      3  N   UNL     1       2.989  -7.722  -2.682  0.00  0.00    -0.265 N 
ATOM      4  C   UNL     1       2.965  -9.111  -2.690  0.00  0.00    +0.165 A 
ATOM      5  N   UNL     1       2.941  -9.940  -3.717  0.00  0.00    -0.225 NA
ATOM      6  C   UNL     1       2.920 -11.253  -3.541  0.00  0.00    +0.080 A 
ATOM      7  C   UNL     1       2.922 -11.760  -2.272  0.00  0.00    +0.076 A 
ATOM      8  S   UNL     1       2.964 -10.251  -1.313  0.00  0.00    -0.060 S 
ATOM      9  H   UNL     1       2.991  -7.166  -3.631  0.00  0.00    +0.157 HD
ENDROOT
BRANCH   6  10
ATOM     10  C   UNL     1       2.893 -12.165  -4.711  0.00  0.00    +0.001 A 
ATOM     11  C   UNL     1       2.765 -13.541  -4.526  0.00  0.00    +0.013 A 
ATOM     12  C   UNL     1       2.743 -14.387  -5.612  0.00  0.00    +0.046 A 
ATOM     13  C   UNL     1       2.848 -13.877  -6.906  0.00  0.00    +0.124 A 
ATOM     14  C   UNL     1       2.969 -12.504  -7.083  0.00  0.00    -0.002 A 
ATOM     15  C   UNL     1       2.990 -11.651  -6.004  0.00  0.00    +0.017 A 
ATOM     16  C   UNL     1       3.048 -12.254  -8.577  0.00  0.00    +0.080 C 
ATOM     17  C   UNL     1       2.555 -13.603  -9.153  0.00  0.00    +0.234 C 
ATOM     18  O   UNL     1       2.865 -14.531  -8.100  0.00  0.00    -0.491 OA
ENDBRANCH   6  10
BRANCH   1  19
ATOM     19  C   UNL     1       3.038  -5.549  -1.501  0.00  0.00    +0.105 C 
BRANCH  19  20
ATOM     20  C   UNL     1       3.059  -5.048  -0.056  0.00  0.00    +0.108 C 
BRANCH  20  23
ATOM     21  C   UNL     1       2.549  -1.489  -0.030  0.00  0.00    +0.209 A 
ATOM     22  N   UNL     1       2.046  -2.746  -0.027  0.00  0.00    -0.191 NA
ATOM     23  C   UNL     1       3.086  -3.541  -0.047  0.00  0.00    +0.228 A 
ATOM     24  O   UNL     1       4.175  -2.767  -0.052  0.00  0.00    -0.338 OA
ATOM     25  N   UNL     1       3.855  -1.597  -0.042  0.00  0.00    -0.056 NA
BRANCH  21  28
ATOM     26  C   UNL     1       1.302   2.084   0.001  0.00  0.00    +0.008 A 
ATOM     27  C   UNL     1       2.224   1.061  -0.013  0.00  0.00    +0.019 A 
ATOM     28  C   UNL     1       1.773  -0.232  -0.016  0.00  0.00    +0.060 A 
ATOM     29  S   UNL     1       0.002  -0.004   0.002  0.00  0.00    -0.093 S 
ATOM     30  C   UNL     1      -0.022   1.781   0.012  0.00  0.00    +0.046 A 
ENDBRANCH  21  28
ENDBRANCH  20  23
ENDBRANCH  19  20
ENDBRANCH   1  19
TORSDOF 5
