REMARK  Name = ZINC39388125
REMARK  9 active torsions:
REMARK  status: ('A' for Active; 'I' for Inactive)
REMARK    1  A    between atoms: C_1  and  C_2
REMARK    2  A    between atoms: C_4  and  C_8
REMARK    3  A    between atoms: C_8  and  N_9
REMARK    4  A    between atoms: N_9  and  C_10
REMARK    5  A    between atoms: N_9  and  C_11
REMARK    6  A    between atoms: C_11  and  C_12
REMARK    7  A    between atoms: N_14  and  C_29
REMARK    8  A    between atoms: C_16  and  C_17
REMARK    9  A    between atoms: C_20  and  C_23
REMARK                            x       y       z     vdW  Elec       q    Type
REMARK                         _______ _______ _______ _____ _____    ______ ____
ROOT
ATOM      1  C   UNL     1       0.066  -2.204   4.342  0.00  0.00    -0.019 A 
ATOM      2  C   UNL     1       1.309  -2.563   4.731  0.00  0.00    +0.110 A 
ATOM      3  N   UNL     1       1.773  -1.614   5.573  0.00  0.00    -0.274 N 
ATOM      4  N   UNL     1       0.783  -0.633   5.711  0.00  0.00    -0.171 NA
ATOM      5  C   UNL     1      -0.245  -0.981   4.966  0.00  0.00    +0.094 A 
ATOM      6  C   UNL     1       3.083  -1.613   6.229  0.00  0.00    +0.172 C 
ENDROOT
BRANCH   5   7
ATOM      7  C   UNL     1      -1.510  -0.220   4.813  0.00  0.00    +0.002 A 
ATOM      8  C   UNL     1      -1.478   1.163   4.645  0.00  0.00    +0.010 A 
ATOM      9  C   UNL     1      -2.658   1.866   4.503  0.00  0.00    +0.004 A 
ATOM     10  C   UNL     1      -3.870   1.200   4.528  0.00  0.00    -0.044 A 
ATOM     11  C   UNL     1      -3.907  -0.173   4.695  0.00  0.00    +0.004 A 
ATOM     12  C   UNL     1      -2.733  -0.886   4.832  0.00  0.00    +0.010 A 
BRANCH  10  13
ATOM     13  C   UNL     1      -5.154   1.973   4.374  0.00  0.00    +0.019 C 
ATOM     14  C   UNL     1      -6.022   1.773   5.618  0.00  0.00    +0.008 C 
ATOM     15  C   UNL     1      -7.327   2.557   5.461  0.00  0.00    +0.001 C 
ATOM     16  C   UNL     1      -8.079   2.054   4.227  0.00  0.00    +0.000 C 
ATOM     17  C   UNL     1      -7.211   2.254   2.983  0.00  0.00    +0.001 C 
ATOM     18  C   UNL     1      -5.907   1.470   3.140  0.00  0.00    +0.008 C 
ENDBRANCH  10  13
ENDBRANCH   5   7
BRANCH   1  19
ATOM     19  C   UNL     1      -0.826  -2.974   3.402  0.00  0.00    -0.039 C 
BRANCH  19  20
ATOM     20  N   UNL     1      -0.834  -2.318   2.088  0.00  0.00    +0.383 N 
ATOM     21  C   UNL     1       0.505  -2.406   1.489  0.00  0.00    -0.096 C 
ATOM     22  H   UNL     1      -1.090  -1.348   2.197  0.00  0.00    -0.082 HD
BRANCH  20  23
ATOM     23  C   UNL     1      -1.806  -2.986   1.213  0.00  0.00    -0.027 C 
BRANCH  23  27
ATOM     24  C   UNL     1      -1.415   1.491  -0.072  0.00  0.00    +0.067 C 
ATOM     25  C   UNL     1      -1.442  -0.011  -0.194  0.00  0.00    +0.053 C 
ATOM     26  N   UNL     1      -2.363  -0.778   0.283  0.00  0.00    -0.263 NA
ATOM     27  C   UNL     1      -1.999  -2.159  -0.060  0.00  0.00    +0.204 C 
ATOM     28  N   UNL     1      -0.736  -2.072  -0.804  0.00  0.00    -0.265 NA
ATOM     29  C   UNL     1      -0.425  -0.822  -0.882  0.00  0.00    +0.130 C 
ENDBRANCH  23  27
ENDBRANCH  20  23
ENDBRANCH  19  20
ENDBRANCH   1  19
TORSDOF 6
