REMARK  Name = ZINC04989658
REMARK  5 active torsions:
REMARK  status: ('A' for Active; 'I' for Inactive)
REMARK    1  A    between atoms: C_3  and  N_8
REMARK    2  A    between atoms: N_9  and  C_10
REMARK    3  A    between atoms: C_13  and  O_25
REMARK    4  A    between atoms: C_14  and  C_16
REMARK    5  A    between atoms: N_17  and  C_18
REMARK                            x       y       z     vdW  Elec       q    Type
REMARK                         _______ _______ _______ _____ _____    ______ ____
ROOT
ATOM      1  C   UNL     1       5.861   2.169  -0.043  0.00  0.00    +0.087 A 
ATOM      2  C   UNL     1       5.845   3.570  -0.030  0.00  0.00    +0.033 A 
ATOM      3  C   UNL     1       7.027   4.277  -0.037  0.00  0.00    +0.048 A 
ATOM      4  C   UNL     1       8.243   3.608  -0.058  0.00  0.00    +0.126 A 
ATOM      5  C   UNL     1       8.273   2.204  -0.072  0.00  0.00    +0.037 A 
ATOM      6  C   UNL     1       7.077   1.486  -0.058  0.00  0.00    +0.042 A 
ENDROOT
BRANCH   1   8
ATOM      7  N   UNL     1       3.562   2.105  -0.021  0.00  0.00    -0.149 NA
ATOM      8  N   UNL     1       4.686   1.473  -0.035  0.00  0.00    -0.149 NA
BRANCH   7  11
ATOM      9  C   UNL     1      -0.017   1.379   0.010  0.00  0.00    +0.004 A 
ATOM     10  C   UNL     1       1.166   2.089   0.002  0.00  0.00    +0.029 A 
ATOM     11  C   UNL     1       2.386   1.407  -0.013  0.00  0.00    +0.088 A 
ATOM     12  C   UNL     1       2.398   0.010  -0.021  0.00  0.00    +0.049 A 
ATOM     13  C   UNL     1       1.207  -0.687  -0.013  0.00  0.00    +0.043 A 
ATOM     14  C   UNL     1       0.002  -0.004   0.002  0.00  0.00    +0.020 A 
ATOM     15 CL   UNL     1       1.219  -2.423  -0.022  0.00  0.00    -0.083 Cl
ENDBRANCH   7  11
ENDBRANCH   1   8
BRANCH   5  16
ATOM     16  C   UNL     1       9.560   1.493  -0.095  0.00  0.00    +0.123 C 
ATOM     17  N   UNL     1      10.676   2.166  -0.103  0.00  0.00    -0.255 NA
BRANCH  17  18
ATOM     18  C   UNL     1      11.874   1.504  -0.125  0.00  0.00    +0.064 A 
ATOM     19  C   UNL     1      12.084   0.406   0.712  0.00  0.00    +0.029 A 
ATOM     20  C   UNL     1      13.293  -0.257   0.685  0.00  0.00    +0.022 A 
ATOM     21  C   UNL     1      14.298   0.164  -0.169  0.00  0.00    +0.041 A 
ATOM     22  C   UNL     1      14.097   1.253  -1.001  0.00  0.00    +0.022 A 
ATOM     23  C   UNL     1      12.890   1.921  -0.988  0.00  0.00    +0.029 A 
ATOM     24 CL   UNL     1      15.818  -0.675  -0.196  0.00  0.00    -0.084 Cl
ENDBRANCH  17  18
ENDBRANCH   5  16
BRANCH   4  25
ATOM     25  O   UNL     1       9.403   4.311  -0.066  0.00  0.00    -0.506 OA
ATOM     26  H   UNL     1       9.750   4.507   0.815  0.00  0.00    +0.292 HD
ENDBRANCH   4  25
TORSDOF 5
