REMARK  Name = ZINC12099374
REMARK  5 active torsions:
REMARK  status: ('A' for Active; 'I' for Inactive)
REMARK    1  A    between atoms: C_1  and  O_2
REMARK    2  A    between atoms: O_2  and  C_3
REMARK    3  A    between atoms: C_9  and  C_10
REMARK    4  A    between atoms: C_26  and  C_27
REMARK    5  A    between atoms: C_26  and  N_66
REMARK                            x       y       z     vdW  Elec       q    Type
REMARK                         _______ _______ _______ _____ _____    ______ ____
ROOT
ATOM      1  C   UNL     1       2.701   2.894  -7.811  0.00  0.00    +0.139 A 
ATOM      2  C   UNL     1       1.762   3.902  -7.904  0.00  0.00    +0.116 A 
ATOM      3  C   UNL     1       0.590   3.805  -7.152  0.00  0.00    +0.255 A 
ATOM      4  O   UNL     1      -0.234   4.702  -7.227  0.00  0.00    -0.268 OA
ATOM      5  N   UNL     1       0.338   2.750  -6.342  0.00  0.00    -0.313 N 
ATOM      6  C   UNL     1       1.232   1.766  -6.189  0.00  0.00    +0.036 A 
ATOM      7  C   UNL     1       2.418   1.779  -6.907  0.00  0.00    +0.098 A 
ATOM      8  C   UNL     1       1.032   0.615  -5.233  0.00  0.00    +0.036 C 
ATOM      9  C   UNL     1      -0.449   0.293  -5.049  0.00  0.00    -0.073 C 
ATOM     10  C   UNL     1      -0.793   2.511  -4.158  0.00  0.00    -0.057 C 
ATOM     11  C   UNL     1      -0.960   2.750  -5.659  0.00  0.00    +0.106 C 
ATOM     12  N   UNL     1      -0.979   1.069  -3.909  0.00  0.00    +0.381 N 
ATOM     13  H   UNL     1      -1.982   0.874  -3.808  0.00  0.00    -0.082 HD
ENDROOT
BRANCH   7  14
ATOM     14  C   UNL     1       3.387   0.679  -6.760  0.00  0.00    +0.252 C 
ATOM     15  O   UNL     1       4.346   0.807  -6.022  0.00  0.00    -0.270 OA
ATOM     16  N   UNL     1       3.212  -0.469  -7.443  0.00  0.00    -0.293 N 
ATOM     17  C   UNL     1       4.104  -1.623  -7.244  0.00  0.00    +0.113 C 
ATOM     18  C   UNL     1       3.274  -2.764  -6.659  0.00  0.00    +0.054 C 
ATOM     19  C   UNL     1       1.992  -2.944  -7.429  0.00  0.00    -0.041 A 
ATOM     20  C   UNL     1       1.339  -4.166  -7.316  0.00  0.00    +0.004 A 
ATOM     21  C   UNL     1       0.156  -4.393  -7.987  0.00  0.00    +0.000 A 
ATOM     22  C   UNL     1      -0.389  -3.398  -8.777  0.00  0.00    +0.000 A 
ATOM     23  C   UNL     1       0.259  -2.186  -8.893  0.00  0.00    +0.005 A 
ATOM     24  C   UNL     1       1.454  -1.958  -8.223  0.00  0.00    -0.027 A 
ATOM     25  C   UNL     1       2.120  -0.622  -8.410  0.00  0.00    +0.143 C 
ENDBRANCH   7  14
BRANCH   1  27
ATOM     26  C   UNL     1       4.090   4.122  -9.292  0.00  0.00    +0.277 C 
ATOM     27  O   UNL     1       3.846   2.937  -8.532  0.00  0.00    -0.494 OA
ENDBRANCH   1  27
BRANCH  12  28
ATOM     28  C   UNL     1      -0.286   0.677  -2.663  0.00  0.00    -0.075 C 
BRANCH  28  29
ATOM     29  C   UNL     1      -0.641  -0.774  -2.334  0.00  0.00    -0.024 C 
ATOM     30  C   UNL     1       0.112  -1.216  -1.073  0.00  0.00    +0.006 C 
ATOM     31  C   UNL     1      -0.116  -2.715  -0.867  0.00  0.00    +0.027 C 
ATOM     32  C   UNL     1      -1.581  -3.033  -0.968  0.00  0.00    -0.031 C 
ATOM     33  C   UNL     1      -2.461  -2.242  -1.491  0.00  0.00    -0.031 C 
ATOM     34  C   UNL     1      -2.143  -0.893  -2.067  0.00  0.00    +0.028 C 
ENDBRANCH  28  29
ENDBRANCH  12  28
TORSDOF 4
