REMARK  Name = ZINC12047590
REMARK  7 active torsions:
REMARK  status: ('A' for Active; 'I' for Inactive)
REMARK    1  A    between atoms: C_1  and  C_2
REMARK    2  A    between atoms: C_5  and  C_8
REMARK    3  A    between atoms: N_10  and  C_11
REMARK    4  A    between atoms: N_10  and  C_30
REMARK    5  A    between atoms: C_11  and  C_12
REMARK    6  A    between atoms: C_20  and  N_21
REMARK    7  A    between atoms: C_30  and  C_31
REMARK                            x       y       z     vdW  Elec       q    Type
REMARK                         _______ _______ _______ _____ _____    ______ ____
ROOT
ATOM      1  C   UNL     1      -1.830   0.851  -0.430  0.00  0.00    +0.008 A 
ATOM      2  C   UNL     1      -1.507   2.034  -1.023  0.00  0.00    +0.018 A 
ATOM      3  C   UNL     1      -0.250   2.144  -1.653  0.00  0.00    -0.001 A 
ATOM      4  C   UNL     1       0.147   3.330  -2.287  0.00  0.00    +0.014 A 
ATOM      5  C   UNL     1       1.370   3.405  -2.889  0.00  0.00    -0.043 A 
ATOM      6  C   UNL     1       2.234   2.311  -2.882  0.00  0.00    -0.042 A 
ATOM      7  C   UNL     1       1.876   1.144  -2.272  0.00  0.00    +0.030 A 
ATOM      8  C   UNL     1       0.626   1.032  -1.642  0.00  0.00    +0.048 A 
ATOM      9  C   UNL     1      -0.916  -0.212  -0.447  0.00  0.00    +0.104 A 
ATOM     10  C   UNL     1       3.509   2.669  -3.618  0.00  0.00    +0.036 C 
ATOM     11  C   UNL     1       3.161   3.923  -4.446  0.00  0.00    +0.009 C 
ATOM     12  C   UNL     1       2.017   4.558  -3.629  0.00  0.00    +0.036 C 
ATOM     13  N   UNL     1       0.305  -0.163  -1.037  0.00  0.00    -0.343 N 
ATOM     14  H   UNL     1       0.947  -0.964  -1.033  0.00  0.00    +0.167 HD
ENDROOT
BRANCH   9  15
ATOM     15  N   UNL     1      -1.256  -1.408   0.167  0.00  0.00    -0.312 N 
ATOM     16  C   UNL     1      -0.286  -1.757   1.215  0.00  0.00    +0.134 C 
ATOM     17  C   UNL     1      -0.731  -3.049   1.905  0.00  0.00    +0.178 C 
ATOM     18  O   UNL     1      -0.867  -4.083   0.927  0.00  0.00    -0.377 OA
ATOM     19  C   UNL     1      -1.806  -3.777  -0.108  0.00  0.00    +0.178 C 
ATOM     20  C   UNL     1      -1.371  -2.492  -0.819  0.00  0.00    +0.134 C 
ENDBRANCH   9  15
BRANCH   1  21
ATOM     21  C   UNL     1      -3.165   0.687   0.249  0.00  0.00    +0.146 C 
BRANCH  21  24
ATOM     22  C   UNL     1      -4.172   2.763   1.035  0.00  0.00    +0.247 C 
ATOM     23  O   UNL     1      -4.895   3.726   0.871  0.00  0.00    -0.270 OA
ATOM     24  N   UNL     1      -3.976   1.888   0.029  0.00  0.00    -0.291 N 
BRANCH  22  29
ATOM     25  C   UNL     1      -1.586   1.938   6.109  0.00  0.00    +0.044 C 
ATOM     26  C   UNL     1      -2.263   2.154   4.781  0.00  0.00    -0.050 A 
ATOM     27  C   UNL     1      -3.453   2.857   4.720  0.00  0.00    +0.004 A 
ATOM     28  C   UNL     1      -4.078   3.059   3.507  0.00  0.00    +0.013 A 
ATOM     29  C   UNL     1      -3.507   2.551   2.339  0.00  0.00    +0.037 A 
ATOM     30  C   UNL     1      -2.310   1.837   2.407  0.00  0.00    +0.013 A 
ATOM     31  C   UNL     1      -1.692   1.647   3.626  0.00  0.00    +0.004 A 
ENDBRANCH  22  29
BRANCH  24  32
ATOM     32  C   UNL     1      -4.573   2.137  -1.285  0.00  0.00    +0.140 C 
BRANCH  32  33
ATOM     33  C   UNL     1      -5.906   1.392  -1.390  0.00  0.00    +0.136 C 
ATOM     34  C   UNL     1      -6.513   1.570  -2.799  0.00  0.00    +0.035 C 
ATOM     35  C   UNL     1      -8.032   1.684  -2.542  0.00  0.00    +0.031 C 
ATOM     36  C   UNL     1      -8.163   1.561  -1.007  0.00  0.00    +0.160 C 
ATOM     37  O   UNL     1      -6.877   1.971  -0.491  0.00  0.00    -0.375 OA
ENDBRANCH  32  33
ENDBRANCH  24  32
ENDBRANCH  21  24
ENDBRANCH   1  21
TORSDOF 6
