REMARK  Name = ZINC63846269
REMARK  8 active torsions:
REMARK  status: ('A' for Active; 'I' for Inactive)
REMARK    1  A    between atoms: C_1  and  N_2
REMARK    2  A    between atoms: N_2  and  C_3
REMARK    3  A    between atoms: N_2  and  C_10
REMARK    4  A    between atoms: C_3  and  C_4
REMARK    5  A    between atoms: C_4  and  N_5
REMARK    6  A    between atoms: C_10  and  C_11
REMARK    7  A    between atoms: C_14  and  C_17
REMARK    8  A    between atoms: C_22  and  C_24
REMARK                            x       y       z     vdW  Elec       q    Type
REMARK                         _______ _______ _______ _____ _____    ______ ____
ROOT
ATOM      1  C   UNL     1      -2.067  -0.116  -1.267  0.00  0.00    -0.064 A 
ATOM      2  C   UNL     1      -2.750   1.086  -1.337  0.00  0.00    +0.002 A 
ATOM      3  C   UNL     1      -3.385   1.455  -2.504  0.00  0.00    +0.011 A 
ATOM      4  C   UNL     1      -3.338   0.613  -3.617  0.00  0.00    +0.017 A 
ATOM      5  C   UNL     1      -2.646  -0.599  -3.540  0.00  0.00    +0.011 A 
ATOM      6  C   UNL     1      -2.012  -0.953  -2.368  0.00  0.00    +0.002 A 
ENDROOT
BRANCH   4   7
ATOM      7  C   UNL     1      -4.016   1.001  -4.871  0.00  0.00    +0.153 C 
ATOM      8  N   UNL     1      -4.648   2.157  -4.886  0.00  0.00    -0.161 NA
ATOM      9  C   UNL     1      -5.291   2.597  -5.972  0.00  0.00    +0.244 C 
ATOM     10  O   UNL     1      -5.871   3.664  -5.977  0.00  0.00    -0.273 OA
ATOM     11  C   UNL     1      -5.265   1.705  -7.200  0.00  0.00    +0.154 C 
ATOM     12  C   UNL     1      -4.505   0.399  -7.058  0.00  0.00    +0.060 C 
ATOM     13  N   UNL     1      -3.935   0.154  -5.902  0.00  0.00    -0.233 NA
BRANCH  12  14
ATOM     14  C   UNL     1      -4.406  -0.553  -8.176  0.00  0.00    -0.000 A 
ATOM     15  C   UNL     1      -5.008  -0.279  -9.413  0.00  0.00    +0.029 A 
ATOM     16  C   UNL     1      -4.889  -1.202 -10.433  0.00  0.00    +0.111 A 
ATOM     17  N   UNL     1      -4.222  -2.325 -10.256  0.00  0.00    -0.263 NA
ATOM     18  C   UNL     1      -3.640  -2.623  -9.112  0.00  0.00    +0.111 A 
ATOM     19  C   UNL     1      -3.701  -1.758  -8.038  0.00  0.00    +0.029 A 
ENDBRANCH  12  14
ENDBRANCH   4   7
BRANCH   1  20
ATOM     20  C   UNL     1      -1.376  -0.512   0.012  0.00  0.00    -0.043 C 
BRANCH  20  22
ATOM     21  C   UNL     1      -0.018   1.465   0.010  0.00  0.00    -0.096 C 
ATOM     22  N   UNL     1       0.002  -0.004   0.002  0.00  0.00    +0.382 N 
ATOM     23  H   UNL     1       0.474  -0.330  -0.828  0.00  0.00    -0.082 HD
BRANCH  22  24
ATOM     24  C   UNL     1       0.713  -0.491   1.192  0.00  0.00    -0.057 C 
BRANCH  24  25
ATOM     25  C   UNL     1       2.180  -0.066   1.119  0.00  0.00    +0.104 C 
BRANCH  25  26
ATOM     26  N   UNL     1       2.889  -0.551   2.306  0.00  0.00    -0.340 N 
ATOM     27  C   UNL     1       3.032   0.113   3.494  0.00  0.00    +0.104 A 
ATOM     28  C   UNL     1       3.748  -0.690   4.305  0.00  0.00    +0.101 A 
ATOM     29  N   UNL     1       4.033  -1.813   3.631  0.00  0.00    -0.352 N 
ATOM     30  C   UNL     1       3.518  -1.739   2.434  0.00  0.00    +0.173 A 
ATOM     31  H   UNL     1       4.540  -2.564   3.978  0.00  0.00    +0.166 HD
ENDBRANCH  25  26
ENDBRANCH  24  25
ENDBRANCH  22  24
ENDBRANCH  20  22
ENDBRANCH   1  20
TORSDOF 7
