REMARK  Name = ZINC09459808
REMARK  14 active torsions:
REMARK  status: ('A' for Active; 'I' for Inactive)
REMARK    1  A    between atoms: C_1  and  C_2
REMARK    2  A    between atoms: C_2  and  N_66
REMARK    3  A    between atoms: C_3  and  C_4
REMARK    4  A    between atoms: C_3  and  N_66
REMARK    5  A    between atoms: C_5  and  C_6
REMARK    6  A    between atoms: C_5  and  N_66
REMARK    7  A    between atoms: C_6  and  C_7
REMARK    8  A    between atoms: C_7  and  N_8
REMARK    9  A    between atoms: C_9  and  C_29
REMARK   10  A    between atoms: C_11  and  C_16
REMARK   11  A    between atoms: C_12  and  O_15
REMARK   12  A    between atoms: C_16  and  C_18
REMARK   13  A    between atoms: C_25  and  C_28
REMARK   14  A    between atoms: C_33  and  O_35
REMARK                            x       y       z     vdW  Elec       q    Type
REMARK                         _______ _______ _______ _____ _____    ______ ____
ROOT
ATOM      1  N   UNL     1       0.545  -2.212  -0.505  0.00  0.00    -0.284 N 
ATOM      2  C   UNL     1      -0.160  -0.965  -0.824  0.00  0.00    +0.145 C 
ATOM      3  C   UNL     1       0.905   0.097  -0.966  0.00  0.00    +0.071 C 
ATOM      4  C   UNL     1       2.094  -0.511  -0.750  0.00  0.00    +0.188 C 
ATOM      5  C   UNL     1       1.862  -1.942  -0.460  0.00  0.00    +0.282 C 
ATOM      6  O   UNL     1       2.733  -2.755  -0.219  0.00  0.00    -0.267 OA
ENDROOT
BRANCH   2   7
ATOM      7  C   UNL     1      -1.107  -0.604   0.292  0.00  0.00    -0.019 A 
ATOM      8  C   UNL     1      -0.705  -0.736   1.609  0.00  0.00    +0.006 A 
ATOM      9  C   UNL     1      -1.569  -0.400   2.635  0.00  0.00    +0.004 A 
ATOM     10  C   UNL     1      -2.840   0.057   2.346  0.00  0.00    +0.045 A 
ATOM     11  C   UNL     1      -3.248   0.185   1.027  0.00  0.00    +0.117 A 
ATOM     12  C   UNL     1      -2.377  -0.148  -0.001  0.00  0.00    +0.051 A 
BRANCH  11  13
ATOM     13  O   UNL     1      -4.498   0.634   0.741  0.00  0.00    -0.507 OA
ATOM     14  H   UNL     1      -5.162  -0.067   0.671  0.00  0.00    +0.292 HD
ENDBRANCH  11  13
ENDBRANCH   2   7
BRANCH   4  15
ATOM     15  O   UNL     1       3.303   0.094  -0.790  0.00  0.00    -0.502 OA
ATOM     16  H   UNL     1       4.019  -0.577  -0.595  0.00  0.00    +0.292 HD
ENDBRANCH   4  15
BRANCH   3  17
ATOM     17  C   UNL     1       0.691   1.512  -1.283  0.00  0.00    +0.195 C 
ATOM     18  O   UNL     1       0.953   2.367  -0.457  0.00  0.00    -0.287 OA
BRANCH  17  19
ATOM     19  C   UNL     1       0.159   1.901  -2.603  0.00  0.00    +0.023 A 
ATOM     20  C   UNL     1      -0.063   0.932  -3.587  0.00  0.00    +0.015 A 
ATOM     21  C   UNL     1      -0.550   1.296  -4.819  0.00  0.00    +0.046 A 
ATOM     22  C   UNL     1      -0.838   2.634  -5.098  0.00  0.00    +0.124 A 
ATOM     23  C   UNL     1      -0.621   3.594  -4.113  0.00  0.00    -0.002 A 
ATOM     24  C   UNL     1      -0.128   3.242  -2.882  0.00  0.00    +0.019 A 
ATOM     25  C   UNL     1      -1.030   4.931  -4.700  0.00  0.00    +0.083 C 
ATOM     26  C   UNL     1      -1.851   4.499  -5.938  0.00  0.00    +0.175 C 
ATOM     27  O   UNL     1      -1.313   3.200  -6.240  0.00  0.00    -0.488 OA
ATOM     28  C   UNL     1      -3.339   4.402  -5.595  0.00  0.00    +0.052 C 
ENDBRANCH  17  19
ENDBRANCH   3  17
BRANCH   1  29
ATOM     29  C   UNL     1      -0.075  -3.520  -0.277  0.00  0.00    +0.107 C 
BRANCH  29  30
ATOM     30  C   UNL     1      -0.182  -4.272  -1.604  0.00  0.00    +0.000 C 
BRANCH  30  31
ATOM     31  C   UNL     1      -0.830  -5.638  -1.365  0.00  0.00    -0.077 C 
BRANCH  31  32
ATOM     32  N   UNL     1      -0.945  -6.343  -2.659  0.00  0.00    +0.379 N 
ATOM     33  H   UNL     1      -1.406  -5.725  -3.337  0.00  0.00    -0.082 HD
BRANCH  32  35
ATOM     34  C   UNL     1       1.123  -7.611  -2.179  0.00  0.00    -0.017 C 
ATOM     35  C   UNL     1       0.399  -6.693  -3.166  0.00  0.00    -0.082 C 
ENDBRANCH  32  35
BRANCH  32  36
ATOM     36  C   UNL     1      -1.757  -7.568  -2.496  0.00  0.00    -0.082 C 
ATOM     37  C   UNL     1      -2.086  -8.129  -3.881  0.00  0.00    -0.017 C 
ENDBRANCH  32  36
ENDBRANCH  31  32
ENDBRANCH  30  31
ENDBRANCH  29  30
ENDBRANCH   1  29
TORSDOF 11
