REMARK  Name = ZINC09076373
REMARK  9 active torsions:
REMARK  status: ('A' for Active; 'I' for Inactive)
REMARK    1  A    between atoms: C_1  and  C_2
REMARK    2  A    between atoms: C_2  and  C_34
REMARK    3  A    between atoms: C_7  and  C_33
REMARK    4  A    between atoms: C_10  and  N_11
REMARK    5  A    between atoms: C_10  and  N_66
REMARK    6  A    between atoms: N_19  and  N_20
REMARK    7  A    between atoms: C_21  and  C_23
REMARK    8  A    between atoms: C_26  and  O_29
REMARK    9  A    between atoms: O_29  and  C_30
REMARK                            x       y       z     vdW  Elec       q    Type
REMARK                         _______ _______ _______ _____ _____    ______ ____
ROOT
ATOM      1  N   UNL     1       0.457   2.770   2.734  0.00  0.00    -0.282 N 
ATOM      2  C   UNL     1       1.666   3.097   2.131  0.00  0.00    +0.044 A 
ATOM      3  C   UNL     1       2.660   2.306   1.564  0.00  0.00    +0.024 A 
ATOM      4  C   UNL     1       3.783   2.891   1.015  0.00  0.00    +0.002 A 
ATOM      5  C   UNL     1       3.932   4.268   1.016  0.00  0.00    +0.001 A 
ATOM      6  C   UNL     1       2.954   5.070   1.569  0.00  0.00    +0.012 A 
ATOM      7  C   UNL     1       1.819   4.489   2.125  0.00  0.00    +0.028 A 
ATOM      8  C   UNL     1       0.613   5.045   2.782  0.00  0.00    +0.153 C 
ATOM      9  N   UNL     1       0.333   6.308   2.999  0.00  0.00    -0.174 NA
ATOM     10  C   UNL     1      -0.204   3.868   3.138  0.00  0.00    +0.270 C 
ATOM     11  O   UNL     1      -1.283   3.889   3.700  0.00  0.00    -0.268 OA
ENDROOT
BRANCH   9  12
ATOM     12  N   UNL     1      -0.863   6.659   3.639  0.00  0.00    -0.202 N 
ATOM     13  C   UNL     1      -1.151   7.957   3.863  0.00  0.00    +0.263 C 
ATOM     14  O   UNL     1      -0.373   8.822   3.509  0.00  0.00    -0.268 OA
ATOM     15  H   UNL     1      -1.483   5.969   3.921  0.00  0.00    +0.178 HD
BRANCH  13  16
ATOM     16  C   UNL     1      -2.409   8.327   4.537  0.00  0.00    +0.039 A 
ATOM     17  C   UNL     1      -3.308   7.334   4.939  0.00  0.00    +0.016 A 
ATOM     18  C   UNL     1      -4.479   7.684   5.573  0.00  0.00    +0.046 A 
ATOM     19  C   UNL     1      -4.774   9.023   5.803  0.00  0.00    +0.120 A 
ATOM     20  C   UNL     1      -3.886  10.014   5.399  0.00  0.00    +0.046 A 
ATOM     21  C   UNL     1      -2.710   9.672   4.770  0.00  0.00    +0.016 A 
BRANCH  19  22
ATOM     22  O   UNL     1      -5.932   9.364   6.422  0.00  0.00    -0.495 OA
ATOM     23  C   UNL     1      -6.799   8.296   6.810  0.00  0.00    +0.277 C 
ENDBRANCH  19  22
ENDBRANCH  13  16
ENDBRANCH   9  12
BRANCH   1  24
ATOM     24  C   UNL     1      -0.034   1.401   2.910  0.00  0.00    +0.039 C 
BRANCH  24  35
ATOM     25  C   UNL     1      -3.990  -1.688   3.320  0.00  0.00    +0.011 C 
ATOM     26  C   UNL     1      -3.103  -0.476   2.932  0.00  0.00    -0.036 C 
ATOM     27  C   UNL     1      -1.683  -0.984   2.812  0.00  0.00    -0.009 C 
ATOM     28  C   UNL     1      -0.891  -0.518   1.602  0.00  0.00    -0.065 C 
ATOM     29  C   UNL     1      -1.826  -0.635   0.364  0.00  0.00    -0.011 C 
ATOM     30  C   UNL     1      -2.750   0.585   0.627  0.00  0.00    -0.048 C 
ATOM     31  C   UNL     1      -3.736   0.167   1.716  0.00  0.00    +0.011 C 
ATOM     32  C   UNL     1      -1.794   1.648   1.220  0.00  0.00    -0.070 C 
ATOM     33  C   UNL     1      -3.447   1.078  -0.650  0.00  0.00    +0.009 C 
ATOM     34  C   UNL     1      -3.188   0.506   4.117  0.00  0.00    +0.011 C 
ATOM     35  N   UNL     1      -0.576   0.928   1.591  0.00  0.00    +0.393 N 
ATOM     36  H   UNL     1       0.140   1.102   0.875  0.00  0.00    -0.079 HD
ENDBRANCH  24  35
ENDBRANCH   1  24
TORSDOF 5
