REMARK  Name = ZINC49179813
REMARK  5 active torsions:
REMARK  status: ('A' for Active; 'I' for Inactive)
REMARK    1  A    between atoms: C_1  and  C_2
REMARK    2  A    between atoms: C_7  and  C_9
REMARK    3  A    between atoms: C_7  and  C_10
REMARK    4  A    between atoms: C_11  and  C_13
REMARK    5  A    between atoms: C_14  and  C_15
REMARK                            x       y       z     vdW  Elec       q    Type
REMARK                         _______ _______ _______ _____ _____    ______ ____
ROOT
ATOM      1  C   UNL     1      -0.012   1.530   0.004  0.00  0.00    +0.039 C 
ATOM      2  C   UNL     1       0.004  -0.000  -0.002  0.00  0.00    +0.133 C 
ATOM      3  C   UNL     1       0.726  -0.499  -1.259  0.00  0.00    +0.139 C 
ATOM      4  N   UNL     1       0.893  -1.957  -1.151  0.00  0.00    -0.293 N 
ATOM      5  C   UNL     1       1.477  -2.496   0.088  0.00  0.00    +0.142 C 
ATOM      6  C   UNL     1       0.719  -1.900   1.279  0.00  0.00    +0.080 C 
ATOM      7  O   UNL     1       0.693  -0.476   1.157  0.00  0.00    -0.368 OA
ATOM      8  C   UNL     1       1.424  -2.288   2.580  0.00  0.00    +0.043 C 
ATOM      9  C   UNL     1      -0.714  -2.437   1.294  0.00  0.00    +0.043 C 
ATOM     10  C   UNL     1       0.523  -2.775  -2.156  0.00  0.00    +0.240 C 
ATOM     11  O   UNL     1      -0.045  -2.321  -3.132  0.00  0.00    -0.271 OA
ENDROOT
BRANCH  10  12
ATOM     12  C   UNL     1       0.803  -4.212  -2.074  0.00  0.00    +0.068 C 
ATOM     13  C   UNL     1       0.524  -5.013  -3.119  0.00  0.00    +0.013 C 
BRANCH  13  14
ATOM     14  C   UNL     1       0.807  -6.457  -3.037  0.00  0.00    -0.022 A 
ATOM     15  C   UNL     1       1.359  -7.019  -1.877  0.00  0.00    +0.027 A 
ATOM     16  C   UNL     1       1.607  -8.376  -1.844  0.00  0.00    +0.111 A 
ATOM     17  N   UNL     1       1.330  -9.141  -2.882  0.00  0.00    -0.263 NA
ATOM     18  C   UNL     1       0.809  -8.655  -3.993  0.00  0.00    +0.111 A 
ATOM     19  C   UNL     1       0.524  -7.310  -4.112  0.00  0.00    +0.027 A 
ENDBRANCH  13  14
ENDBRANCH  10  12
TORSDOF 2
