REMARK  Name = ZINC64977821
REMARK  5 active torsions:
REMARK  status: ('A' for Active; 'I' for Inactive)
REMARK    1  A    between atoms: C_1  and  C_2
REMARK    2  A    between atoms: C_7  and  S_8
REMARK    3  A    between atoms: S_8  and  N_11
REMARK    4  A    between atoms: C_15  and  C_17
REMARK    5  A    between atoms: N_19  and  C_20
REMARK                            x       y       z     vdW  Elec       q    Type
REMARK                         _______ _______ _______ _____ _____    ______ ____
ROOT
ATOM      1  S   UNL     1      -0.718   1.491   3.204  0.00  0.00    +0.062 S 
ATOM      2  O   UNL     1      -1.152   0.140   3.279  0.00  0.00    -0.153 OA
ATOM      3  O   UNL     1      -1.088   2.352   2.136  0.00  0.00    -0.153 OA
ENDROOT
BRANCH   1  10
ATOM      4  C   UNL     1      -0.292   0.347   5.965  0.00  0.00    +0.046 C 
ATOM      5  C   UNL     1      -1.009   1.671   5.910  0.00  0.00    -0.022 A 
ATOM      6  C   UNL     1      -1.418   2.283   7.082  0.00  0.00    +0.032 A 
ATOM      7  C   UNL     1      -2.077   3.499   7.029  0.00  0.00    +0.076 A 
ATOM      8  C   UNL     1      -2.326   4.104   5.798  0.00  0.00    +0.144 A 
ATOM      9  C   UNL     1      -1.912   3.487   4.630  0.00  0.00    +0.076 A 
ATOM     10  C   UNL     1      -1.250   2.274   4.690  0.00  0.00    +0.112 A 
ATOM     11  O   UNL     1      -2.978   5.297   5.758  0.00  0.00    -0.481 OA
ATOM     12  C   UNL     1      -3.961   5.527   6.771  0.00  0.00    +0.325 C 
ATOM     13  C   UNL     1      -3.402   5.139   8.116  0.00  0.00    +0.255 C 
ATOM     14  O   UNL     1      -3.760   5.725   9.116  0.00  0.00    -0.272 OA
ATOM     15  N   UNL     1      -2.501   4.137   8.204  0.00  0.00    -0.280 N 
ATOM     16  H   UNL     1      -2.153   3.861   9.066  0.00  0.00    +0.155 HD
ENDBRANCH   1  10
BRANCH   1  17
ATOM     17  N   UNL     1       0.937   1.458   3.233  0.00  0.00    -0.165 NA
ATOM     18  C   UNL     1       1.767   0.318   3.664  0.00  0.00    +0.110 C 
ATOM     19  C   UNL     1       3.126   0.523   2.949  0.00  0.00    +0.019 C 
ATOM     20  C   UNL     1       3.276   2.067   3.002  0.00  0.00    +0.031 C 
ATOM     21  C   UNL     1       1.823   2.559   2.828  0.00  0.00    +0.165 C 
BRANCH  21  22
ATOM     22  C   UNL     1       1.570   2.917   1.387  0.00  0.00    +0.232 C 
ATOM     23  O   UNL     1       1.179   2.071   0.612  0.00  0.00    -0.274 OA
ATOM     24  N   UNL     1       1.778   4.178   0.959  0.00  0.00    -0.311 N 
ATOM     25  H   UNL     1       2.161   4.837   1.559  0.00  0.00    +0.149 HD
BRANCH  24  26
ATOM     26  C   UNL     1       1.427   4.553  -0.413  0.00  0.00    +0.073 C 
ATOM     27  C   UNL     1       2.582   4.196  -1.351  0.00  0.00    +0.022 C 
ATOM     28  C   UNL     1       2.216   4.588  -2.784  0.00  0.00    +0.002 C 
ATOM     29  C   UNL     1       1.953   6.093  -2.850  0.00  0.00    +0.000 C 
ATOM     30  C   UNL     1       0.798   6.451  -1.912  0.00  0.00    +0.002 C 
ATOM     31  C   UNL     1       1.165   6.059  -0.479  0.00  0.00    +0.022 C 
ENDBRANCH  24  26
ENDBRANCH  21  22
ENDBRANCH   1  17
TORSDOF 4
