REMARK  Name = ZINC02286805
REMARK  7 active torsions:
REMARK  status: ('A' for Active; 'I' for Inactive)
REMARK    1  A    between atoms: C_1  and  C_2
REMARK    2  A    between atoms: C_2  and  C_3
REMARK    3  A    between atoms: C_2  and  C_4
REMARK    4  A    between atoms: C_2  and  C_5
REMARK    5  A    between atoms: N_16  and  C_21
REMARK    6  A    between atoms: N_19  and  N_20
REMARK    7  A    between atoms: C_21  and  C_22
REMARK                            x       y       z     vdW  Elec       q    Type
REMARK                         _______ _______ _______ _____ _____    ______ ____
ROOT
ATOM      1  C   UNL     1       0.002  -0.004   0.002  0.00  0.00    -0.000 C 
ATOM      2  C   UNL     1       0.742  -0.515   1.242  0.00  0.00    +0.009 C 
ATOM      3  C   UNL     1       0.984  -2.019   1.118  0.00  0.00    +0.037 C 
ATOM      4  C   UNL     1      -0.343  -2.711   0.817  0.00  0.00    -0.023 A 
ATOM      5  C   UNL     1      -1.391  -2.005   0.335  0.00  0.00    -0.004 A 
ATOM      6  S   UNL     1      -2.698  -3.191   0.137  0.00  0.00    -0.073 S 
ATOM      7  C   UNL     1      -1.838  -4.626   0.698  0.00  0.00    +0.117 A 
ATOM      8  C   UNL     1      -0.554  -4.134   1.024  0.00  0.00    +0.076 A 
ATOM      9  C   UNL     1       0.403  -5.079   1.520  0.00  0.00    +0.264 A 
ATOM     10  O   UNL     1       1.536  -4.751   1.828  0.00  0.00    -0.267 OA
ATOM     11  N   UNL     1      -0.030  -6.357   1.626  0.00  0.00    -0.275 N 
ATOM     12  C   UNL     1      -1.290  -6.744   1.288  0.00  0.00    +0.213 A 
ATOM     13  N   UNL     1      -2.199  -5.897   0.826  0.00  0.00    -0.207 NA
ATOM     14  N   UNL     1      -1.633  -8.065   1.431  0.00  0.00    -0.253 N 
ATOM     15  C   UNL     1      -1.437  -0.539   0.034  0.00  0.00    +0.046 C 
ATOM     16  H   UNL     1      -0.983  -8.701   1.768  0.00  0.00    +0.169 HD
ENDROOT
BRANCH   1  18
ATOM     17  C   UNL     1       1.417   2.055  -0.000  0.00  0.00    +0.011 C 
ATOM     18  C   UNL     1      -0.019   1.526   0.010  0.00  0.00    -0.035 C 
ATOM     19  C   UNL     1      -0.759   2.033  -1.229  0.00  0.00    +0.011 C 
ATOM     20  C   UNL     1      -0.735   2.019   1.269  0.00  0.00    +0.011 C 
ENDBRANCH   1  18
BRANCH  14  21
ATOM     21  N   UNL     1      -2.891  -8.483   1.101  0.00  0.00    -0.254 NA
ATOM     22  H   UNL     1      -2.995  -9.474   1.259  0.00  0.00    +0.140 HD
ATOM     23  H   UNL     1      -3.591  -7.961   1.607  0.00  0.00    +0.140 HD
ENDBRANCH  14  21
BRANCH  11  24
ATOM     24  C   UNL     1       0.902  -7.371   2.126  0.00  0.00    +0.163 C 
BRANCH  24  25
ATOM     25  C   UNL     1       0.787  -7.462   3.626  0.00  0.00    -0.028 A 
ATOM     26  C   UNL     1       1.587  -6.671   4.430  0.00  0.00    +0.005 A 
ATOM     27  C   UNL     1       1.478  -6.751   5.806  0.00  0.00    +0.000 A 
ATOM     28  C   UNL     1       0.577  -7.629   6.378  0.00  0.00    +0.000 A 
ATOM     29  C   UNL     1      -0.219  -8.424   5.574  0.00  0.00    +0.000 A 
ATOM     30  C   UNL     1      -0.114  -8.340   4.199  0.00  0.00    +0.005 A 
ENDBRANCH  24  25
ENDBRANCH  11  24
TORSDOF 4
