REMARK  Name = ZINC04227463
REMARK  4 active torsions:
REMARK  status: ('A' for Active; 'I' for Inactive)
REMARK    1  A    between atoms: C_5  and  O_8
REMARK    2  A    between atoms: O_8  and  C_9
REMARK    3  A    between atoms: C_9  and  C_10
REMARK    4  A    between atoms: C_10  and  N_21
REMARK                            x       y       z     vdW  Elec       q    Type
REMARK                         _______ _______ _______ _____ _____    ______ ____
ROOT
ATOM      1  C   UNL     1      -0.013   1.076   0.008  0.00  0.00    +0.034 A 
ATOM      2  C   UNL     1       1.176   1.783   0.000  0.00  0.00    +0.020 A 
ATOM      3  C   UNL     1       1.161   3.167   0.008  0.00  0.00    +0.034 A 
ATOM      4  C   UNL     1      -0.044   3.845   0.023  0.00  0.00    +0.062 A 
ATOM      5  C   UNL     1      -1.237   3.138   0.030  0.00  0.00    +0.148 A 
ATOM      6  C   UNL     1      -1.219   1.750   0.017  0.00  0.00    +0.062 A 
ATOM      7 BR   UNL     1      -2.844   0.782   0.020  0.00  0.00    -0.046 Br
ATOM      8 BR   UNL     1      -0.064   5.736   0.033  0.00  0.00    -0.046 Br
ATOM      9 BR   UNL     1       2.825   0.858  -0.021  0.00  0.00    -0.050 Br
ENDROOT
BRANCH   5  10
ATOM     10  O   UNL     1      -2.423   3.803   0.045  0.00  0.00    -0.492 OA
BRANCH  10  11
ATOM     11  C   UNL     1      -3.001   4.127  -1.222  0.00  0.00    +0.210 C 
BRANCH  11  12
ATOM     12  C   UNL     1      -4.321   4.868  -1.005  0.00  0.00    -0.045 C 
BRANCH  12  15
ATOM     13  H   UNL     1      -3.403   6.707  -0.895  0.00  0.00    -0.090 HD
ATOM     14  H   UNL     1      -4.915   6.669  -0.203  0.00  0.00    -0.090 HD
ATOM     15  N   UNL     1      -4.047   6.151  -0.335  0.00  0.00    +0.380 N 
ATOM     16  H   UNL     1      -3.623   5.969   0.582  0.00  0.00    -0.090 HD
ENDBRANCH  12  15
ENDBRANCH  11  12
ENDBRANCH  10  11
ENDBRANCH   5  10
TORSDOF 4
