REMARK  Name = ZINC38654868
REMARK  13 active torsions:
REMARK  status: ('A' for Active; 'I' for Inactive)
REMARK    1  A    between atoms: C_1  and  C_2
REMARK    2  A    between atoms: C_2  and  C_3
REMARK    3  A    between atoms: C_2  and  C_4
REMARK    4  A    between atoms: C_2  and  C_5
REMARK    5  A    between atoms: C_8  and  O_11
REMARK    6  A    between atoms: O_11  and  C_12
REMARK    7  A    between atoms: C_12  and  C_13
REMARK    8  A    between atoms: C_13  and  O_15
REMARK    9  A    between atoms: O_15  and  C_16
REMARK   10  A    between atoms: C_23  and  N_38
REMARK   11  A    between atoms: C_24  and  C_36
REMARK   12  A    between atoms: C_25  and  C_27
REMARK   13  A    between atoms: C_30  and  N_33
REMARK                            x       y       z     vdW  Elec       q    Type
REMARK                         _______ _______ _______ _____ _____    ______ ____
ROOT
ATOM      1  C   UNL     1       6.342  -2.281  -7.587  0.00  0.00    +0.135 A 
ATOM      2  C   UNL     1       5.555  -3.035  -8.446  0.00  0.00    +0.047 A 
ATOM      3  C   UNL     1       6.103  -3.568  -9.596  0.00  0.00    +0.012 A 
ATOM      4  C   UNL     1       7.437  -3.353  -9.897  0.00  0.00    +0.008 A 
ATOM      5  C   UNL     1       8.228  -2.601  -9.043  0.00  0.00    +0.138 A 
ATOM      6  C   UNL     1       7.676  -2.059  -7.889  0.00  0.00    +0.093 A 
ATOM      7  O   UNL     1       9.536  -2.380  -9.320  0.00  0.00    -0.441 OA
ATOM      8  C   UNL     1      10.181  -3.176 -10.190  0.00  0.00    +0.199 C 
ATOM      9  C   UNL     1       9.517  -3.943 -11.086  0.00  0.00    +0.098 C 
ATOM     10  C   UNL     1       8.016  -3.943 -11.155  0.00  0.00    +0.098 C 
ENDROOT
BRANCH  10  11
ATOM     11  C   UNL     1       7.571  -3.125 -12.340  0.00  0.00    -0.035 A 
ATOM     12  C   UNL     1       7.902  -1.786 -12.419  0.00  0.00    +0.007 A 
ATOM     13  C   UNL     1       7.494  -1.035 -13.506  0.00  0.00    +0.033 A 
ATOM     14  C   UNL     1       6.755  -1.625 -14.514  0.00  0.00    +0.126 A 
ATOM     15  C   UNL     1       6.424  -2.965 -14.436  0.00  0.00    +0.033 A 
ATOM     16  C   UNL     1       6.836  -3.716 -13.351  0.00  0.00    +0.007 A 
BRANCH  14  17
ATOM     17  N   UNL     1       6.317  -0.821 -15.678  0.00  0.00    +0.056 N 
ATOM     18  O   UNL     1       6.606   0.351 -15.746  0.00  0.00    -0.126 OA
ATOM     19  O   UNL     1       5.670  -1.337 -16.560  0.00  0.00    -0.126 OA
ENDBRANCH  14  17
ENDBRANCH  10  11
BRANCH   8  20
ATOM     20  N   UNL     1      11.553  -3.212 -10.168  0.00  0.00    -0.328 N 
ATOM     21  H   UNL     1      12.043  -2.668  -9.532  0.00  0.00    +0.145 HD
ATOM     22  H   UNL     1      12.033  -3.782 -10.790  0.00  0.00    +0.145 HD
ENDBRANCH   8  20
BRANCH   9  23
ATOM     23  C   UNL     1      10.261  -4.771 -11.987  0.00  0.00    +0.101 C 
ATOM     24  N   UNL     1      10.851  -5.428 -12.702  0.00  0.00    -0.191 NA
ENDBRANCH   9  23
BRANCH   1  25
ATOM     25  O   UNL     1       5.804  -1.756  -6.455  0.00  0.00    -0.423 OA
BRANCH  25  26
ATOM     26  C   UNL     1       5.607  -2.577  -5.411  0.00  0.00    +0.350 C 
ATOM     27  O   UNL     1       5.822  -3.760  -5.524  0.00  0.00    -0.247 OA
BRANCH  26  28
ATOM     28  C   UNL     1       5.118  -2.022  -4.098  0.00  0.00    +0.349 C 
BRANCH  28  29
ATOM     29  O   UNL     1       4.988  -3.084  -3.151  0.00  0.00    -0.481 OA
BRANCH  29  33
ATOM     30  C   UNL     1       3.671  -2.076   0.626  0.00  0.00    -0.042 A 
ATOM     31  C   UNL     1       3.963  -3.393   0.326  0.00  0.00    +0.008 A 
ATOM     32  C   UNL     1       4.404  -3.734  -0.938  0.00  0.00    +0.046 A 
ATOM     33  C   UNL     1       4.553  -2.752  -1.907  0.00  0.00    +0.121 A 
ATOM     34  C   UNL     1       4.259  -1.431  -1.604  0.00  0.00    +0.046 A 
ATOM     35  C   UNL     1       3.813  -1.097  -0.340  0.00  0.00    +0.008 A 
BRANCH  30  37
ATOM     36  C   UNL     1       1.799  -1.077   1.910  0.00  0.00    +0.015 C 
ATOM     37  C   UNL     1       3.190  -1.707   2.006  0.00  0.00    -0.013 C 
ATOM     38  C   UNL     1       4.162  -0.706   2.634  0.00  0.00    +0.015 C 
ATOM     39  C   UNL     1       3.121  -2.965   2.875  0.00  0.00    +0.015 C 
ENDBRANCH  30  37
ENDBRANCH  29  33
ENDBRANCH  28  29
ENDBRANCH  26  28
ENDBRANCH  25  26
ENDBRANCH   1  25
TORSDOF 10
