REMARK  Name = ZINC24579608
REMARK  4 active torsions:
REMARK  status: ('A' for Active; 'I' for Inactive)
REMARK    1  A    between atoms: C_1  and  S_2
REMARK    2  A    between atoms: S_2  and  C_3
REMARK    3  A    between atoms: C_6  and  C_14
REMARK    4  A    between atoms: N_7  and  C_8
REMARK                            x       y       z     vdW  Elec       q    Type
REMARK                         _______ _______ _______ _____ _____    ______ ____
ROOT
ATOM      1  C   UNL     1      -2.950   2.565   4.710  0.00  0.00    +0.174 A 
ATOM      2  N   UNL     1      -3.175   1.322   5.089  0.00  0.00    -0.229 NA
ATOM      3  C   UNL     1      -2.706   0.477   4.174  0.00  0.00    +0.145 A 
ATOM      4  C   UNL     1      -2.149   1.218   3.154  0.00  0.00    +0.129 A 
ATOM      5  N   UNL     1      -2.306   2.553   3.512  0.00  0.00    -0.283 N 
ENDROOT
BRANCH   4   6
ATOM      6  C   UNL     1      -1.514   0.703   1.942  0.00  0.00    +0.265 C 
ATOM      7  O   UNL     1      -1.354   1.434   0.981  0.00  0.00    -0.268 OA
ATOM      8  N   UNL     1      -1.106  -0.580   1.887  0.00  0.00    -0.286 N 
ATOM      9  C   UNL     1      -0.592  -1.168   0.639  0.00  0.00    +0.127 C 
ATOM     10  C   UNL     1       0.856  -1.601   0.874  0.00  0.00    +0.123 C 
ATOM     11  N   UNL     1       0.979  -2.335   2.126  0.00  0.00    -0.313 N 
ATOM     12  C   UNL     1       0.117  -2.252   3.140  0.00  0.00    +0.230 C 
ATOM     13  O   UNL     1       0.368  -2.852   4.164  0.00  0.00    -0.274 OA
ATOM     14  C   UNL     1      -1.154  -1.449   3.073  0.00  0.00    +0.203 C 
ATOM     15  H   UNL     1       1.830  -3.014   2.284  0.00  0.00    +0.149 HD
ENDBRANCH   4   6
BRANCH   5  16
ATOM     16  C   UNL     1      -1.886   3.670   2.779  0.00  0.00    +0.049 A 
ATOM     17  C   UNL     1      -0.531   3.921   2.608  0.00  0.00    +0.026 A 
ATOM     18  C   UNL     1      -0.119   5.019   1.879  0.00  0.00    +0.002 A 
ATOM     19  C   UNL     1      -1.055   5.877   1.330  0.00  0.00    +0.000 A 
ATOM     20  C   UNL     1      -2.405   5.633   1.503  0.00  0.00    +0.002 A 
ATOM     21  C   UNL     1      -2.823   4.532   2.226  0.00  0.00    +0.026 A 
ENDBRANCH   5  16
BRANCH   1  23
ATOM     22  C   UNL     1      -4.185   3.242   7.056  0.00  0.00    +0.093 C 
ATOM     23  S   UNL     1      -3.403   4.007   5.615  0.00  0.00    -0.091 S 
ENDBRANCH   1  23
TORSDOF 3
