REMARK  Name = ZINC20518961
REMARK  4 active torsions:
REMARK  status: ('A' for Active; 'I' for Inactive)
REMARK    1  A    between atoms: C_3  and  C_10
REMARK    2  A    between atoms: C_5  and  C_7
REMARK    3  A    between atoms: C_10  and  O_11
REMARK    4  A    between atoms: O_11  and  C_12
REMARK                            x       y       z     vdW  Elec       q    Type
REMARK                         _______ _______ _______ _____ _____    ______ ____
ROOT
ATOM      1  C   UNL     1       6.539   4.989  -0.836  0.00  0.00    +0.001 A 
ATOM      2  C   UNL     1       5.355   4.294  -1.010  0.00  0.00    +0.007 A 
ATOM      3  C   UNL     1       4.152   4.972  -1.086  0.00  0.00    -0.010 A 
ATOM      4  C   UNL     1       4.127   6.349  -0.993  0.00  0.00    +0.018 A 
ATOM      5  C   UNL     1       5.315   7.055  -0.813  0.00  0.00    +0.012 A 
ATOM      6  C   UNL     1       6.525   6.365  -0.737  0.00  0.00    +0.011 A 
ENDROOT
BRANCH   5   7
ATOM      7  C   UNL     1       5.294   8.532  -0.708  0.00  0.00    +0.094 C 
ATOM      8  N   UNL     1       4.163   9.174  -0.779  0.00  0.00    -0.387 N 
ATOM      9  N   UNL     1       6.471   9.228  -0.535  0.00  0.00    -0.345 N 
ATOM     10  H   UNL     1       4.147  10.271  -0.701  0.00  0.00    +0.157 HD
ATOM     11  H   UNL     1       6.455  10.325  -0.458  0.00  0.00    +0.144 HD
ATOM     12  H   UNL     1       7.426   8.686  -0.475  0.00  0.00    +0.144 HD
ATOM     13  H   UNL     1       3.223   8.619  -0.917  0.00  0.00    +0.157 HD
ENDBRANCH   5   7
BRANCH   3  14
ATOM     14  C   UNL     1       2.868   4.207  -1.275  0.00  0.00    +0.264 C 
BRANCH  14  15
ATOM     15  O   UNL     1       2.323   3.868   0.001  0.00  0.00    -0.485 OA
BRANCH  15  16
ATOM     16  C   UNL     1       1.156   3.170   0.008  0.00  0.00    +0.149 A 
ATOM     17  C   UNL     1       1.175   1.783   0.000  0.00  0.00    +0.062 A 
ATOM     18  C   UNL     1      -0.013   1.076   0.008  0.00  0.00    +0.034 A 
ATOM     19  C   UNL     1      -1.220   1.751   0.017  0.00  0.00    +0.020 A 
ATOM     20  C   UNL     1      -1.242   3.134   0.031  0.00  0.00    +0.034 A 
ATOM     21  C   UNL     1      -0.057   3.845   0.023  0.00  0.00    +0.062 A 
ATOM     22 BR   UNL     1      -0.087   5.736   0.034  0.00  0.00    -0.046 Br
ATOM     23 BR   UNL     1      -2.844   0.781   0.020  0.00  0.00    -0.050 Br
ATOM     24 BR   UNL     1       2.826   0.860  -0.021  0.00  0.00    -0.046 Br
ENDBRANCH  15  16
ENDBRANCH  14  15
ENDBRANCH   3  14
TORSDOF 4
