REMARK  Name = ZINC07786663
REMARK  5 active torsions:
REMARK  status: ('A' for Active; 'I' for Inactive)
REMARK    1  A    between atoms: C_3  and  C_7
REMARK    2  A    between atoms: C_10  and  S_13
REMARK    3  A    between atoms: N_11  and  N_12
REMARK    4  A    between atoms: S_13  and  C_14
REMARK    5  A    between atoms: C_14  and  C_15
REMARK                            x       y       z     vdW  Elec       q    Type
REMARK                         _______ _______ _______ _____ _____    ______ ____
ROOT
ATOM      1  S   UNL     1      -4.122   4.440  -1.410  0.00  0.00    -0.080 S 
ENDROOT
BRANCH   1   5
ATOM      2  C   UNL     1      -7.565   2.613  -1.679  0.00  0.00    +0.183 A 
ATOM      3  N   UNL     1      -7.434   2.791  -0.386  0.00  0.00    -0.127 NA
ATOM      4  N   UNL     1      -6.324   3.388  -0.135  0.00  0.00    -0.121 NA
ATOM      5  C   UNL     1      -5.682   3.635  -1.255  0.00  0.00    +0.209 A 
ATOM      6  N   UNL     1      -6.447   3.148  -2.276  0.00  0.00    -0.224 N 
BRANCH   2   9
ATOM      7  C   UNL     1      -9.664   0.910  -4.284  0.00  0.00    +0.020 A 
ATOM      8  C   UNL     1      -8.572   1.515  -3.687  0.00  0.00    +0.014 A 
ATOM      9  C   UNL     1      -8.700   1.959  -2.366  0.00  0.00    +0.039 A 
ATOM     10  C   UNL     1      -9.914   1.769  -1.706  0.00  0.00    +0.122 A 
ATOM     11  N   UNL     1     -10.927   1.192  -2.319  0.00  0.00    -0.263 NA
ATOM     12  C   UNL     1     -10.835   0.764  -3.564  0.00  0.00    +0.111 A 
ENDBRANCH   2   9
BRANCH   6  13
ATOM     13  N   UNL     1      -6.161   3.184  -3.611  0.00  0.00    -0.295 N 
ATOM     14  H   UNL     1      -5.731   2.322  -3.913  0.00  0.00    +0.163 HD
ATOM     15  H   UNL     1      -6.988   3.384  -4.153  0.00  0.00    +0.163 HD
ENDBRANCH   6  13
ENDBRANCH   1   5
BRANCH   1  16
ATOM     16  C   UNL     1      -3.767   4.774   0.333  0.00  0.00    +0.113 C 
BRANCH  16  17
ATOM     17  C   UNL     1      -2.440   5.479   0.449  0.00  0.00    -0.020 A 
ATOM     18  C   UNL     1      -2.365   6.834   0.415  0.00  0.00    +0.097 A 
ATOM     19  C   UNL     1      -1.109   7.470   0.525  0.00  0.00    +0.338 A 
ATOM     20  O   UNL     1      -1.056   8.686   0.494  0.00  0.00    -0.245 OA
ATOM     21  O   UNL     1       0.027   6.769   0.664  0.00  0.00    -0.422 OA
ATOM     22  C   UNL     1       0.021   5.420   0.705  0.00  0.00    +0.140 A 
ATOM     23  C   UNL     1      -1.194   4.721   0.601  0.00  0.00    +0.022 A 
ATOM     24  C   UNL     1      -1.199   3.325   0.640  0.00  0.00    +0.015 A 
ATOM     25  C   UNL     1      -0.022   2.639   0.787  0.00  0.00    -0.043 A 
ATOM     26  C   UNL     1       1.180   3.325   0.889  0.00  0.00    -0.041 A 
ATOM     27  C   UNL     1       1.203   4.707   0.848  0.00  0.00    +0.051 A 
ATOM     28  C   UNL     1       2.318   2.337   1.036  0.00  0.00    +0.036 C 
ATOM     29  C   UNL     1       1.651   1.010   1.455  0.00  0.00    +0.009 C 
ATOM     30  C   UNL     1       0.234   1.149   0.862  0.00  0.00    +0.036 C 
ENDBRANCH  16  17
ENDBRANCH   1  16
TORSDOF 5
