REMARK  Name = ZINC56412053
REMARK  9 active torsions:
REMARK  status: ('A' for Active; 'I' for Inactive)
REMARK    1  A    between atoms: C_1  and  C_2
REMARK    2  A    between atoms: C_2  and  C_3
REMARK    3  A    between atoms: C_2  and  O_4
REMARK    4  A    between atoms: O_4  and  C_5
REMARK    5  A    between atoms: C_9  and  C_11
REMARK    6  A    between atoms: C_11  and  N_12
REMARK    7  A    between atoms: N_15  and  N_16
REMARK    8  A    between atoms: C_17  and  C_19
REMARK    9  A    between atoms: C_19  and  C_20
REMARK                            x       y       z     vdW  Elec       q    Type
REMARK                         _______ _______ _______ _____ _____    ______ ____
ROOT
ATOM      1  N   UNL     1       0.550  -2.909   6.079  0.00  0.00    -0.294 N 
ATOM      2  C   UNL     1       1.112  -3.480   7.163  0.00  0.00    +0.316 C 
ATOM      3  O   UNL     1       1.613  -2.784   8.025  0.00  0.00    -0.251 OA
ATOM      4  N   UNL     1       1.119  -4.821   7.291  0.00  0.00    -0.218 N 
ATOM      5  H   UNL     1       0.150  -3.464   5.391  0.00  0.00    +0.151 HD
ATOM      6  H   UNL     1       1.523  -5.232   8.071  0.00  0.00    +0.174 HD
ENDROOT
BRANCH   4   7
ATOM      7  N   UNL     1       0.541  -5.623   6.297  0.00  0.00    -0.233 N 
ATOM      8  C   UNL     1       0.548  -6.964   6.425  0.00  0.00    +0.233 C 
ATOM      9  O   UNL     1       1.054  -7.478   7.400  0.00  0.00    -0.274 OA
ATOM     10  H   UNL     1       0.137  -5.212   5.517  0.00  0.00    +0.173 HD
BRANCH   8  11
ATOM     11  C   UNL     1      -0.073  -7.826   5.356  0.00  0.00    +0.132 C 
BRANCH  11  12
ATOM     12  C   UNL     1       0.066  -9.278   5.737  0.00  0.00    -0.038 A 
ATOM     13  C   UNL     1       1.184  -9.990   5.346  0.00  0.00    +0.007 A 
ATOM     14  C   UNL     1       1.313 -11.321   5.695  0.00  0.00    +0.038 A 
ATOM     15  C   UNL     1       0.322 -11.941   6.438  0.00  0.00    +0.123 A 
ATOM     16  C   UNL     1      -0.797 -11.226   6.829  0.00  0.00    +0.038 A 
ATOM     17  C   UNL     1      -0.921  -9.893   6.483  0.00  0.00    +0.007 A 
ATOM     18  F   UNL     1       0.447 -13.242   6.779  0.00  0.00    -0.205 F 
ENDBRANCH  11  12
ENDBRANCH   8  11
ENDBRANCH   4   7
BRANCH   1  19
ATOM     19  C   UNL     1       0.543  -1.450   5.940  0.00  0.00    +0.141 C 
BRANCH  19  24
ATOM     20  C   UNL     1      -0.031  -0.600   2.303  0.00  0.00    +0.121 A 
ATOM     21  C   UNL     1      -1.400  -0.376   2.286  0.00  0.00    +0.045 A 
ATOM     22  C   UNL     1      -2.133  -0.502   3.450  0.00  0.00    +0.004 A 
ATOM     23  C   UNL     1      -1.504  -0.850   4.631  0.00  0.00    +0.005 A 
ATOM     24  C   UNL     1      -0.140  -1.072   4.651  0.00  0.00    -0.027 A 
ATOM     25  C   UNL     1       0.597  -0.954   3.489  0.00  0.00    +0.050 A 
BRANCH  20  26
ATOM     26  O   UNL     1       0.693  -0.477   1.160  0.00  0.00    -0.489 OA
BRANCH  26  28
ATOM     27  C   UNL     1      -0.292   1.273  -0.184  0.00  0.00    +0.051 C 
ATOM     28  C   UNL     1      -0.034  -0.229  -0.045  0.00  0.00    +0.167 C 
ATOM     29  C   UNL     1       0.781  -0.720  -1.243  0.00  0.00    +0.051 C 
ENDBRANCH  26  28
ENDBRANCH  20  26
ENDBRANCH  19  24
ENDBRANCH   1  19
TORSDOF 7
