REMARK  Name = ZINC19580927
REMARK  13 active torsions:
REMARK  status: ('A' for Active; 'I' for Inactive)
REMARK    1  A    between atoms: C_1  and  C_2
REMARK    2  A    between atoms: C_3  and  C_8
REMARK    3  A    between atoms: C_4  and  C_7
REMARK    4  A    between atoms: C_8  and  O_9
REMARK    5  A    between atoms: O_9  and  C_10
REMARK    6  A    between atoms: C_13  and  C_18
REMARK    7  A    between atoms: C_15  and  O_16
REMARK    8  A    between atoms: O_16  and  C_17
REMARK    9  A    between atoms: C_18  and  N_19
REMARK   10  A    between atoms: N_19  and  C_20
REMARK   11  A    between atoms: C_20  and  C_25
REMARK   12  A    between atoms: C_28  and  O_31
REMARK   13  A    between atoms: O_31  and  C_32
REMARK                            x       y       z     vdW  Elec       q    Type
REMARK                         _______ _______ _______ _____ _____    ______ ____
ROOT
ATOM      1  C   UNL     1       0.710  -0.513  -1.023  0.00  0.00    +0.162 A 
ATOM      2  C   UNL     1       1.391   0.260  -1.950  0.00  0.00    +0.049 A 
ATOM      3  C   UNL     1       1.992  -0.339  -3.041  0.00  0.00    +0.005 A 
ATOM      4  C   UNL     1       1.916  -1.709  -3.211  0.00  0.00    -0.061 A 
ATOM      5  C   UNL     1       1.239  -2.486  -2.290  0.00  0.00    +0.051 A 
ATOM      6  C   UNL     1       0.639  -1.892  -1.191  0.00  0.00    +0.162 A 
ENDROOT
BRANCH   6   7
ATOM      7  O   UNL     1      -0.024  -2.656  -0.281  0.00  0.00    -0.491 OA
ATOM      8  C   UNL     1      -0.056  -4.065  -0.517  0.00  0.00    +0.277 C 
ENDBRANCH   6   7
BRANCH   1   9
ATOM      9  O   UNL     1       0.118   0.075   0.051  0.00  0.00    -0.484 OA
BRANCH   9  10
ATOM     10  C   UNL     1       0.238   1.494   0.162  0.00  0.00    +0.270 C 
BRANCH  10  13
ATOM     11  C   UNL     1       1.465   1.824   3.147  0.00  0.00    +0.069 C 
ATOM     12  C   UNL     1       0.052   2.110   2.707  0.00  0.00    +0.087 A 
ATOM     13  C   UNL     1      -0.475   1.963   1.404  0.00  0.00    +0.054 A 
ATOM     14  C   UNL     1      -1.768   2.348   1.529  0.00  0.00    +0.141 A 
ATOM     15  O   UNL     1      -1.944   2.676   2.816  0.00  0.00    -0.359 OA
ATOM     16  N   UNL     1      -0.924   2.540   3.453  0.00  0.00    -0.083 NA
ATOM     17  C   UNL     1      -2.805   2.395   0.436  0.00  0.00    +0.089 C 
ENDBRANCH  10  13
ENDBRANCH   9  10
ENDBRANCH   1   9
BRANCH   4  18
ATOM     18  C   UNL     1       2.574  -2.356  -4.402  0.00  0.00    -0.045 C 
BRANCH  18  19
ATOM     19  N   UNL     1       3.955  -2.722  -4.060  0.00  0.00    +0.388 N 
ATOM     20  H   UNL     1       4.537  -1.810  -3.861  0.00  0.00    -0.084 HD
ATOM     21  H   UNL     1       3.954  -3.359  -3.164  0.00  0.00    -0.084 HD
BRANCH  19  22
ATOM     22  C   UNL     1       4.593  -3.458  -5.160  0.00  0.00    -0.042 C 
ATOM     23  C   UNL     1       6.081  -3.704  -4.839  0.00  0.00    -0.008 C 
ATOM     24  C   UNL     1       6.796  -3.549  -6.204  0.00  0.00    -0.001 C 
ATOM     25  C   UNL     1       6.021  -2.381  -6.864  0.00  0.00    -0.001 C 
ATOM     26  C   UNL     1       4.555  -2.616  -6.448  0.00  0.00    -0.008 C 
BRANCH  22  27
ATOM     27  C   UNL     1       3.887  -4.771  -5.380  0.00  0.00    -0.058 A 
ATOM     28  C   UNL     1       3.974  -5.404  -6.606  0.00  0.00    +0.006 A 
ATOM     29  C   UNL     1       3.333  -6.611  -6.809  0.00  0.00    +0.046 A 
ATOM     30  C   UNL     1       2.591  -7.181  -5.784  0.00  0.00    +0.120 A 
ATOM     31  C   UNL     1       2.501  -6.541  -4.557  0.00  0.00    +0.046 A 
ATOM     32  C   UNL     1       3.149  -5.337  -4.358  0.00  0.00    +0.006 A 
BRANCH  30  33
ATOM     33  O   UNL     1       1.955  -8.366  -5.982  0.00  0.00    -0.495 OA
ATOM     34  C   UNL     1       2.092  -8.968  -7.271  0.00  0.00    +0.277 C 
ENDBRANCH  30  33
ENDBRANCH  22  27
ENDBRANCH  19  22
ENDBRANCH  18  19
ENDBRANCH   4  18
TORSDOF 9
