REMARK  Name = ZINC35395386
REMARK  8 active torsions:
REMARK  status: ('A' for Active; 'I' for Inactive)
REMARK    1  A    between atoms: C_4  and  C_7
REMARK    2  A    between atoms: C_7  and  C_8
REMARK    3  A    between atoms: C_8  and  N_9
REMARK    4  A    between atoms: C_10  and  C_12
REMARK    5  A    between atoms: C_12  and  C_13
REMARK    6  A    between atoms: N_17  and  C_31
REMARK    7  A    between atoms: N_20  and  N_21
REMARK    8  A    between atoms: C_22  and  C_24
REMARK                            x       y       z     vdW  Elec       q    Type
REMARK                         _______ _______ _______ _____ _____    ______ ____
ROOT
ATOM      1  C   UNL     1       7.786  -3.072   3.846  0.00  0.00    +0.191 C 
ATOM      2  C   UNL     1       9.096  -3.830   3.771  0.00  0.00    +0.248 C 
ATOM      3  O   UNL     1      10.073  -3.540   3.115  0.00  0.00    -0.273 OA
ATOM      4  N   UNL     1       8.949  -4.893   4.586  0.00  0.00    -0.219 N 
ATOM      5  C   UNL     1       7.740  -4.912   5.160  0.00  0.00    +0.164 C 
ATOM      6  S   UNL     1       7.223  -6.125   6.252  0.00  0.00    -0.016 S 
ATOM      7  N   UNL     1       6.974  -3.867   4.783  0.00  0.00    -0.218 N 
ENDROOT
BRANCH   4   8
ATOM      8  C   UNL     1       9.939  -5.861   4.806  0.00  0.00    +0.043 A 
ATOM      9  C   UNL     1      11.104  -5.523   5.482  0.00  0.00    +0.024 A 
ATOM     10  C   UNL     1      12.078  -6.478   5.697  0.00  0.00    +0.002 A 
ATOM     11  C   UNL     1      11.894  -7.770   5.239  0.00  0.00    +0.000 A 
ATOM     12  C   UNL     1      10.735  -8.109   4.565  0.00  0.00    +0.002 A 
ATOM     13  C   UNL     1       9.755  -7.160   4.352  0.00  0.00    +0.024 A 
ENDBRANCH   4   8
BRANCH   7  14
ATOM     14  N   UNL     1       5.666  -3.591   5.200  0.00  0.00    -0.228 N 
ATOM     15  C   UNL     1       4.636  -4.311   4.712  0.00  0.00    +0.260 C 
ATOM     16  O   UNL     1       4.844  -5.201   3.909  0.00  0.00    -0.269 OA
ATOM     17  H   UNL     1       5.500  -2.881   5.840  0.00  0.00    +0.173 HD
BRANCH  15  18
ATOM     18  C   UNL     1       3.255  -4.020   5.152  0.00  0.00    +0.041 A 
ATOM     19  C   UNL     1       3.014  -2.995   6.069  0.00  0.00    +0.013 A 
ATOM     20  C   UNL     1       1.723  -2.727   6.476  0.00  0.00    +0.004 A 
ATOM     21  C   UNL     1       0.668  -3.471   5.978  0.00  0.00    +0.038 A 
ATOM     22  C   UNL     1       0.900  -4.489   5.067  0.00  0.00    +0.124 A 
ATOM     23  C   UNL     1       2.188  -4.764   4.648  0.00  0.00    +0.051 A 
ATOM     24  F   UNL     1      -0.135  -5.212   4.585  0.00  0.00    -0.205 F 
ENDBRANCH  15  18
ENDBRANCH   7  14
BRANCH   1  25
ATOM     25  C   UNL     1       7.118  -3.014   2.470  0.00  0.00    +0.129 C 
BRANCH  25  27
ATOM     26  N   UNL     1       5.075  -2.042   1.470  0.00  0.00    -0.315 N 
ATOM     27  C   UNL     1       5.837  -2.225   2.566  0.00  0.00    +0.215 C 
ATOM     28  O   UNL     1       5.493  -1.755   3.630  0.00  0.00    -0.276 OA
ATOM     29  H   UNL     1       5.350  -2.418   0.619  0.00  0.00    +0.149 HD
BRANCH  26  30
ATOM     30  C   UNL     1       3.830  -1.275   1.563  0.00  0.00    +0.109 C 
BRANCH  30  31
ATOM     31  C   UNL     1       3.162  -1.218   0.188  0.00  0.00    +0.054 C 
BRANCH  31  35
ATOM     32  C   UNL     1      -0.467   1.018   0.458  0.00  0.00    +0.000 A 
ATOM     33  C   UNL     1       0.721   1.662   0.165  0.00  0.00    +0.000 A 
ATOM     34  C   UNL     1       1.895   0.938   0.078  0.00  0.00    +0.004 A 
ATOM     35  C   UNL     1       1.882  -0.429   0.284  0.00  0.00    -0.046 A 
ATOM     36  C   UNL     1       0.694  -1.072   0.577  0.00  0.00    +0.004 A 
ATOM     37  C   UNL     1      -0.481  -0.348   0.663  0.00  0.00    +0.000 A 
ENDBRANCH  31  35
ENDBRANCH  30  31
ENDBRANCH  26  30
ENDBRANCH  25  27
ENDBRANCH   1  25
TORSDOF 8
