REMARK  Name = ZINC20450985
REMARK  3 active torsions:
REMARK  status: ('A' for Active; 'I' for Inactive)
REMARK    1  A    between atoms: C_7  and  N_26
REMARK    2  A    between atoms: C_9  and  O_25
REMARK    3  A    between atoms: C_17  and  C_19
REMARK                            x       y       z     vdW  Elec       q    Type
REMARK                         _______ _______ _______ _____ _____    ______ ____
ROOT
ATOM      1  C   UNL     1      -7.741   5.905  -4.374  0.00  0.00    +0.000 A 
ATOM      2  C   UNL     1      -6.567   5.298  -4.779  0.00  0.00    +0.000 A 
ATOM      3  C   UNL     1      -5.752   4.685  -3.849  0.00  0.00    +0.004 A 
ATOM      4  C   UNL     1      -6.105   4.676  -2.509  0.00  0.00    -0.037 A 
ATOM      5  C   UNL     1      -7.281   5.282  -2.105  0.00  0.00    -0.055 A 
ATOM      6  C   UNL     1      -8.097   5.896  -3.039  0.00  0.00    +0.002 A 
ATOM      7  C   UNL     1      -7.444   5.134  -0.607  0.00  0.00    -0.007 C 
ATOM      8  C   UNL     1      -6.041   4.756  -0.083  0.00  0.00    +0.116 C 
ATOM      9  C   UNL     1      -5.400   4.085  -1.311  0.00  0.00    +0.023 C 
ATOM     10  C   UNL     1      -5.622   2.577  -1.256  0.00  0.00    +0.033 C 
ATOM     11  C   UNL     1      -4.951   2.009  -0.001  0.00  0.00    +0.109 C 
ATOM     12  N   UNL     1      -3.542   2.424   0.010  0.00  0.00    -0.296 N 
ATOM     13  C   UNL     1      -3.225   3.855  -0.102  0.00  0.00    +0.109 C 
ATOM     14  C   UNL     1      -3.909   4.408  -1.362  0.00  0.00    +0.033 C 
ATOM     15  C   UNL     1      -2.558   1.511   0.127  0.00  0.00    +0.267 C 
ATOM     16  O   UNL     1      -1.402   1.872   0.229  0.00  0.00    -0.268 OA
ENDROOT
BRANCH   7  17
ATOM     17  N   UNL     1      -8.407   4.068  -0.302  0.00  0.00    +0.387 N 
ATOM     18  C   UNL     1      -9.642   4.242  -1.069  0.00  0.00    -0.067 C 
ATOM     19  C   UNL     1     -10.425   2.924  -1.100  0.00  0.00    +0.050 C 
ATOM     20  S   UNL     1     -10.859   2.476   0.609  0.00  0.00    -0.164 S 
ATOM     21  C   UNL     1      -9.265   2.612   1.477  0.00  0.00    +0.050 C 
ATOM     22  C   UNL     1      -8.648   3.974   1.140  0.00  0.00    -0.067 C 
ATOM     23  H   UNL     1      -7.977   3.104  -0.612  0.00  0.00    -0.081 HD
ENDBRANCH   7  17
BRANCH  15  24
ATOM     24  C   UNL     1      -2.885   0.070   0.129  0.00  0.00    +0.147 A 
ATOM     25  C   UNL     1      -1.962  -1.002   0.116  0.00  0.00    +0.054 A 
ATOM     26  C   UNL     1      -2.714  -2.127   0.130  0.00  0.00    +0.105 A 
ATOM     27  N   UNL     1      -4.008  -1.743   0.146  0.00  0.00    -0.284 N 
ATOM     28  H   UNL     1      -4.807  -2.499   0.159  0.00  0.00    +0.188 HD
ATOM     29  N   UNL     1      -4.091  -0.461   0.142  0.00  0.00    -0.169 NA
ENDBRANCH  15  24
BRANCH   8  30
ATOM     30  O   UNL     1      -5.310   5.924   0.298  0.00  0.00    -0.392 OA
ATOM     31  H   UNL     1      -4.288   5.828   0.694  0.00  0.00    +0.210 HD
ENDBRANCH   8  30
TORSDOF 3
