REMARK  Name = ZINC35270983
REMARK  4 active torsions:
REMARK  status: ('A' for Active; 'I' for Inactive)
REMARK    1  A    between atoms: C_1  and  C_2
REMARK    2  A    between atoms: C_2  and  C_34
REMARK    3  A    between atoms: C_19  and  C_20
REMARK    4  A    between atoms: C_19  and  C_21
REMARK                            x       y       z     vdW  Elec       q    Type
REMARK                         _______ _______ _______ _____ _____    ______ ____
ROOT
ATOM      1  C   UNL     1       0.210   2.477  -0.648  0.00  0.00    +0.060 C 
ATOM      2  C   UNL     1       0.081   0.971  -0.880  0.00  0.00    +0.124 C 
ATOM      3  C   UNL     1       0.849   0.593  -2.119  0.00  0.00    +0.020 C 
ATOM      4  C   UNL     1       2.139   0.266  -2.026  0.00  0.00    +0.013 C 
ATOM      5  C   UNL     1       2.758   0.277  -0.690  0.00  0.00    +0.038 A 
ATOM      6  C   UNL     1       1.932   0.282   0.447  0.00  0.00    +0.131 A 
ATOM      7  C   UNL     1       2.472   0.292   1.719  0.00  0.00    +0.047 A 
ATOM      8  C   UNL     1       3.849   0.296   1.918  0.00  0.00    +0.010 A 
ATOM      9  C   UNL     1       4.662   0.290   0.804  0.00  0.00    -0.010 A 
ATOM     10  C   UNL     1       4.143   0.283  -0.500  0.00  0.00    +0.048 A 
ATOM     11  N   UNL     1       5.170   0.284  -1.425  0.00  0.00    -0.284 N 
ATOM     12  C   UNL     1       6.385   0.288  -0.836  0.00  0.00    +0.228 C 
ATOM     13  O   UNL     1       7.461   0.293  -1.395  0.00  0.00    -0.274 OA
ATOM     14  C   UNL     1       6.145   0.289   0.653  0.00  0.00    +0.082 C 
ATOM     15  C   UNL     1       6.777  -0.965   1.302  0.00  0.00    +0.057 C 
ATOM     16  C   UNL     1       7.276  -0.435   2.637  0.00  0.00    +0.115 C 
ATOM     17  C   UNL     1       7.845   0.960   2.262  0.00  0.00    +0.031 C 
ATOM     18  C   UNL     1       6.790   1.523   1.313  0.00  0.00    -0.011 C 
ATOM     19  C   UNL     1       7.447   2.410   0.254  0.00  0.00    +0.012 C 
ATOM     20  C   UNL     1       5.741   2.316   2.095  0.00  0.00    +0.012 C 
ATOM     21  C   UNL     1       8.113   1.760   3.522  0.00  0.00    +0.042 C 
ATOM     22  C   UNL     1       7.967   0.802   4.713  0.00  0.00    +0.114 C 
ATOM     23  C   UNL     1       8.476   1.375   6.021  0.00  0.00    +0.037 C 
ATOM     24  C   UNL     1       9.209   0.172   6.683  0.00  0.00    +0.022 C 
ATOM     25  C   UNL     1       9.768  -0.589   5.448  0.00  0.00    +0.109 C 
ATOM     26  N   UNL     1       8.752  -0.429   4.426  0.00  0.00    -0.285 N 
ATOM     27  C   UNL     1       8.406  -1.178   3.312  0.00  0.00    +0.240 C 
ATOM     28  O   UNL     1       8.895  -2.228   2.952  0.00  0.00    -0.273 OA
ATOM     29  C   UNL     1       6.510   0.376   4.754  0.00  0.00    +0.238 C 
ATOM     30  O   UNL     1       5.760   0.569   5.688  0.00  0.00    -0.273 OA
ATOM     31  N   UNL     1       6.169  -0.263   3.594  0.00  0.00    -0.299 N 
ATOM     32  O   UNL     1       0.585   0.275   0.259  0.00  0.00    -0.482 OA
ATOM     33  C   UNL     1      -1.394   0.616  -1.075  0.00  0.00    +0.060 C 
ATOM     34  H   UNL     1       5.033   0.281  -2.386  0.00  0.00    +0.155 HD
ATOM     35  H   UNL     1       5.264  -0.564   3.417  0.00  0.00    +0.150 HD
ENDROOT
TORSDOF 0
