REMARK  Name = ZINC03431837
REMARK  13 active torsions:
REMARK  status: ('A' for Active; 'I' for Inactive)
REMARK    1  A    between atoms: C_1  and  C_2
REMARK    2  A    between atoms: C_5  and  S_29
REMARK    3  A    between atoms: C_7  and  N_8
REMARK    4  A    between atoms: C_18  and  S_19
REMARK    5  A    between atoms: S_19  and  C_20
REMARK    6  A    between atoms: C_20  and  C_21
REMARK    7  A    between atoms: N_23  and  C_24
REMARK    8  A    between atoms: N_23  and  C_25
REMARK    9  A    between atoms: C_25  and  C_26
REMARK   10  A    between atoms: C_26  and  C_27
REMARK   11  A    between atoms: S_29  and  N_32
REMARK   12  A    between atoms: N_32  and  C_33
REMARK   13  A    between atoms: N_32  and  C_34
REMARK                            x       y       z     vdW  Elec       q    Type
REMARK                         _______ _______ _______ _____ _____    ______ ____
ROOT
ATOM      1  N   UNL     1       0.037  -2.767  -0.012  0.00  0.00    -0.255 N 
ATOM      2  C   UNL     1       1.239  -2.146  -0.021  0.00  0.00    +0.267 A 
ATOM      3  O   UNL     1       2.277  -2.781  -0.034  0.00  0.00    -0.267 OA
ATOM      4  C   UNL     1       1.245  -0.677  -0.013  0.00  0.00    +0.065 A 
ATOM      5  C   UNL     1       2.432   0.055  -0.021  0.00  0.00    +0.015 A 
ATOM      6  C   UNL     1       2.381   1.421  -0.013  0.00  0.00    +0.001 A 
ATOM      7  C   UNL     1       1.161   2.086   0.002  0.00  0.00    +0.002 A 
ATOM      8  C   UNL     1      -0.017   1.394   0.010  0.00  0.00    +0.028 A 
ATOM      9  C   UNL     1       0.002  -0.004   0.002  0.00  0.00    +0.079 A 
ATOM     10  N   UNL     1      -1.141  -0.729   0.009  0.00  0.00    -0.223 NA
ATOM     11  C   UNL     1      -1.121  -2.039   0.003  0.00  0.00    +0.177 A 
ENDROOT
BRANCH   1  18
ATOM     12  C   UNL     1      -0.056  -4.097  -2.526  0.00  0.00    +0.046 C 
ATOM     13  C   UNL     1      -0.069  -4.855  -1.224  0.00  0.00    -0.026 A 
ATOM     14  C   UNL     1      -0.123  -6.235  -1.228  0.00  0.00    +0.007 A 
ATOM     15  C   UNL     1      -0.140  -6.931  -0.033  0.00  0.00    +0.029 A 
ATOM     16  C   UNL     1      -0.099  -6.248   1.169  0.00  0.00    +0.107 A 
ATOM     17  C   UNL     1      -0.040  -4.868   1.179  0.00  0.00    +0.055 A 
ATOM     18  C   UNL     1      -0.022  -4.167  -0.019  0.00  0.00    +0.057 A 
BRANCH  16  19
ATOM     19  S   UNL     1      -0.120  -7.139   2.689  0.00  0.00    +0.060 S 
ATOM     20  O   UNL     1       0.373  -8.441   2.404  0.00  0.00    -0.153 OA
ATOM     21  O   UNL     1       0.478  -6.295   3.663  0.00  0.00    -0.153 OA
BRANCH  19  22
ATOM     22  N   UNL     1      -1.706  -7.319   3.128  0.00  0.00    -0.183 NA
ATOM     23  C   UNL     1      -2.462  -8.492   2.681  0.00  0.00    +0.131 C 
ATOM     24  C   UNL     1      -2.355  -6.306   3.964  0.00  0.00    +0.131 C 
ENDBRANCH  19  22
ENDBRANCH  16  19
ENDBRANCH   1  18
BRANCH  11  25
ATOM     25  S   UNL     1      -2.657  -2.903   0.014  0.00  0.00    -0.078 S 
BRANCH  25  26
ATOM     26  C   UNL     1      -3.804  -1.504   0.032  0.00  0.00    +0.173 C 
BRANCH  26  27
ATOM     27  C   UNL     1      -5.221  -2.016   0.043  0.00  0.00    +0.226 C 
ATOM     28  O   UNL     1      -5.434  -3.210   0.040  0.00  0.00    -0.275 OA
ATOM     29  N   UNL     1      -6.252  -1.148   0.058  0.00  0.00    -0.303 N 
ATOM     30  C   UNL     1      -5.995   0.294   0.062  0.00  0.00    +0.132 C 
BRANCH  29  31
ATOM     31  C   UNL     1      -7.630  -1.646   0.069  0.00  0.00    +0.122 C 
BRANCH  31  32
ATOM     32  C   UNL     1      -8.095  -1.826   1.516  0.00  0.00    +0.137 C 
BRANCH  32  33
ATOM     33  C   UNL     1      -9.479  -2.327   1.527  0.00  0.00    +0.064 C 
ATOM     34  N   UNL     1     -10.547  -2.713   1.536  0.00  0.00    -0.197 NA
ENDBRANCH  32  33
ENDBRANCH  31  32
ENDBRANCH  29  31
ENDBRANCH  26  27
ENDBRANCH  25  26
ENDBRANCH  11  25
TORSDOF 9
