REMARK  Name = ZINC67479217
REMARK  8 active torsions:
REMARK  status: ('A' for Active; 'I' for Inactive)
REMARK    1  A    between atoms: C_1  and  N_2
REMARK    2  A    between atoms: C_4  and  C_7
REMARK    3  A    between atoms: C_7  and  C_8
REMARK    4  A    between atoms: C_8  and  C_9
REMARK    5  A    between atoms: C_9  and  N_10
REMARK    6  A    between atoms: C_16  and  C_19
REMARK    7  A    between atoms: C_19  and  C_21
REMARK    8  A    between atoms: C_19  and  O_28
REMARK                            x       y       z     vdW  Elec       q    Type
REMARK                         _______ _______ _______ _____ _____    ______ ____
ROOT
ATOM      1  N   UNL     1       2.121  -7.098  -4.350  0.00  0.00    -0.299 N 
ATOM      2  C   UNL     1       3.139  -6.375  -3.841  0.00  0.00    +0.302 C 
ATOM      3  O   UNL     1       2.909  -5.359  -3.214  0.00  0.00    -0.253 OA
ATOM      4  N   UNL     1       4.411  -6.779  -4.027  0.00  0.00    -0.286 N 
ATOM      5  C   UNL     1       5.524  -6.068  -3.383  0.00  0.00    +0.109 C 
ATOM      6  C   UNL     1       6.368  -7.079  -2.601  0.00  0.00    +0.025 C 
ATOM      7  C   UNL     1       6.802  -8.208  -3.538  0.00  0.00    +0.025 C 
ATOM      8  C   UNL     1       5.565  -8.928  -4.080  0.00  0.00    +0.025 C 
ATOM      9  C   UNL     1       4.712  -7.941  -4.874  0.00  0.00    +0.109 C 
ATOM     10  H   UNL     1       2.306  -7.867  -4.912  0.00  0.00    +0.150 HD
ENDROOT
BRANCH   1  11
ATOM     11  C   UNL     1       0.737  -6.722  -4.055  0.00  0.00    +0.106 C 
BRANCH  11  12
ATOM     12  C   UNL     1      -0.216  -7.698  -4.748  0.00  0.00    +0.023 C 
BRANCH  12  13
ATOM     13  C   UNL     1      -1.662  -7.306  -4.440  0.00  0.00    +0.040 C 
BRANCH  13  17
ATOM     14  C   UNL     1      -4.615 -11.247  -5.371  0.00  0.00    +0.172 C 
ATOM     15  N   UNL     1      -3.885  -9.986  -5.523  0.00  0.00    -0.274 N 
ATOM     16  C   UNL     1      -3.081  -9.418  -4.599  0.00  0.00    +0.111 A 
ATOM     17  C   UNL     1      -2.600  -8.267  -5.123  0.00  0.00    -0.010 A 
ATOM     18  C   UNL     1      -3.128  -8.127  -6.411  0.00  0.00    +0.138 A 
ATOM     19  N   UNL     1      -3.893  -9.160  -6.654  0.00  0.00    -0.180 NA
ENDBRANCH  13  17
ENDBRANCH  12  13
ENDBRANCH  11  12
ENDBRANCH   1  11
BRANCH   7  20
ATOM     20  C   UNL     1       7.674  -9.203  -2.769  0.00  0.00    +0.148 C 
BRANCH  20  21
ATOM     21  C   UNL     1       8.102 -10.315  -3.692  0.00  0.00    -0.019 A 
ATOM     22  C   UNL     1       9.222 -10.159  -4.488  0.00  0.00    +0.007 A 
ATOM     23  C   UNL     1       9.615 -11.179  -5.334  0.00  0.00    +0.020 A 
ATOM     24  C   UNL     1       8.887 -12.354  -5.385  0.00  0.00    +0.041 A 
ATOM     25  C   UNL     1       7.767 -12.509  -4.588  0.00  0.00    +0.020 A 
ATOM     26  C   UNL     1       7.378 -11.491  -3.738  0.00  0.00    +0.007 A 
ATOM     27 CL   UNL     1       9.380 -13.635  -6.449  0.00  0.00    -0.084 Cl
ENDBRANCH  20  21
BRANCH  20  28
ATOM     28  O   UNL     1       8.830  -8.531  -2.264  0.00  0.00    -0.387 OA
ATOM     29  H   UNL     1       9.386  -8.135  -2.950  0.00  0.00    +0.210 HD
ENDBRANCH  20  28
ENDBRANCH   7  20
TORSDOF 7
