REMARK  Name = ZINC33326519
REMARK  6 active torsions:
REMARK  status: ('A' for Active; 'I' for Inactive)
REMARK    1  A    between atoms: C_1  and  C_2
REMARK    2  A    between atoms: C_5  and  C_7
REMARK    3  A    between atoms: C_10  and  C_23
REMARK    4  A    between atoms: C_11  and  C_21
REMARK    5  A    between atoms: C_15  and  C_18
REMARK    6  A    between atoms: C_16  and  C_17
REMARK                            x       y       z     vdW  Elec       q    Type
REMARK                         _______ _______ _______ _____ _____    ______ ____
ROOT
ATOM      1  C   UNL     1       1.040  -3.899  -0.740  0.00  0.00    +0.024 C 
ATOM      2  C   UNL     1       2.420  -4.067  -0.691  0.00  0.00    -0.010 C 
ATOM      3  C   UNL     1       3.134  -5.349  -0.531  0.00  0.00    +0.013 A 
ATOM      4  C   UNL     1       2.711  -6.666  -0.392  0.00  0.00    -0.020 A 
ATOM      5  C   UNL     1       3.683  -7.661  -0.259  0.00  0.00    +0.095 A 
ATOM      6  C   UNL     1       5.045  -7.296  -0.271  0.00  0.00    +0.135 A 
ATOM      7  N   UNL     1       5.410  -6.036  -0.405  0.00  0.00    -0.230 NA
ATOM      8  C   UNL     1       4.515  -5.057  -0.535  0.00  0.00    +0.092 A 
ATOM      9  C   UNL     1       4.648  -3.602  -0.696  0.00  0.00    +0.081 C 
ATOM     10  C   UNL     1       3.384  -3.047  -0.792  0.00  0.00    -0.023 C 
ATOM     11  C   UNL     1       3.086  -1.581  -0.971  0.00  0.00    +0.046 C 
ATOM     12  N   UNL     1       6.014  -8.277  -0.140  0.00  0.00    -0.342 N 
ATOM     13  C   UNL     1       1.244  -7.011  -0.384  0.00  0.00    +0.046 C 
ATOM     14  H   UNL     1       5.755  -9.206  -0.041  0.00  0.00    +0.144 HD
ATOM     15  H   UNL     1       6.954  -8.034  -0.147  0.00  0.00    +0.144 HD
ENDROOT
BRANCH   1  20
ATOM     16  C   UNL     1      -0.411   1.201   0.695  0.00  0.00    +0.051 C 
ATOM     17  C   UNL     1      -0.206  -0.171   0.107  0.00  0.00    -0.013 A 
ATOM     18  C   UNL     1      -0.861  -0.735  -0.944  0.00  0.00    +0.011 A 
ATOM     19  C   UNL     1      -0.528  -2.005  -1.333  0.00  0.00    +0.016 A 
ATOM     20  C   UNL     1       0.484  -2.619  -0.590  0.00  0.00    +0.013 A 
ATOM     21  S   UNL     1       0.888  -1.348   0.594  0.00  0.00    -0.094 S 
ENDBRANCH   1  20
BRANCH   9  22
ATOM     22  C   UNL     1       5.883  -2.878  -0.751  0.00  0.00    +0.102 C 
ATOM     23  N   UNL     1       6.862  -2.304  -0.795  0.00  0.00    -0.191 NA
ENDBRANCH   9  22
BRANCH   5  24
ATOM     24  C   UNL     1       3.301  -9.034  -0.112  0.00  0.00    +0.103 C 
ATOM     25  N   UNL     1       2.998 -10.122   0.004  0.00  0.00    -0.191 NA
ENDBRANCH   5  24
TORSDOF 3
