REMARK  Name = ZINC14058524
REMARK  12 active torsions:
REMARK  status: ('A' for Active; 'I' for Inactive)
REMARK    1  A    between atoms: C_1  and  O_2
REMARK    2  A    between atoms: O_2  and  C_3
REMARK    3  A    between atoms: C_3  and  C_4
REMARK    4  A    between atoms: C_4  and  N_5
REMARK    5  A    between atoms: C_9  and  S_27
REMARK    6  A    between atoms: N_14  and  C_15
REMARK    7  A    between atoms: C_15  and  C_17
REMARK    8  A    between atoms: C_21  and  O_25
REMARK    9  A    between atoms: C_22  and  O_23
REMARK   10  A    between atoms: O_23  and  C_24
REMARK   11  A    between atoms: O_25  and  C_26
REMARK   12  A    between atoms: S_27  and  N_30
REMARK                            x       y       z     vdW  Elec       q    Type
REMARK                         _______ _______ _______ _____ _____    ______ ____
ROOT
ATOM      1  N   UNL     1      -2.286   4.295   0.015  0.00  0.00    -0.319 N 
ATOM      2  C   UNL     1      -2.116   5.667  -0.014  0.00  0.00    +0.058 A 
ATOM      3  C   UNL     1      -3.102   6.666  -0.035  0.00  0.00    +0.029 A 
ATOM      4  C   UNL     1      -2.755   7.995  -0.070  0.00  0.00    +0.030 A 
ATOM      5  C   UNL     1      -1.427   8.390  -0.084  0.00  0.00    +0.106 A 
ATOM      6  C   UNL     1      -0.435   7.426  -0.064  0.00  0.00    +0.045 A 
ATOM      7  C   UNL     1      -0.781   6.096  -0.029  0.00  0.00    +0.041 A 
ATOM      8  S   UNL     1       0.136   4.577   0.005  0.00  0.00    -0.052 S 
ATOM      9  C   UNL     1      -1.202   3.474   0.038  0.00  0.00    +0.167 A 
ATOM     10  N   UNL     1      -1.174   2.146   0.070  0.00  0.00    -0.152 NA
ENDROOT
BRANCH   5  11
ATOM     11  S   UNL     1      -1.007  10.101  -0.129  0.00  0.00    +0.056 S 
ATOM     12  O   UNL     1       0.297  10.184  -0.686  0.00  0.00    -0.153 OA
ATOM     13  O   UNL     1      -2.122  10.778  -0.693  0.00  0.00    -0.153 OA
BRANCH  11  14
ATOM     14  N   UNL     1      -0.885  10.616   1.440  0.00  0.00    -0.204 NA
ATOM     15  H   UNL     1      -0.276  11.336   1.668  0.00  0.00    +0.144 HD
ATOM     16  H   UNL     1      -1.422  10.198   2.131  0.00  0.00    +0.144 HD
ENDBRANCH  11  14
ENDBRANCH   5  11
BRANCH  10  17
ATOM     17  C   UNL     1      -0.001   1.502   0.082  0.00  0.00    +0.273 C 
ATOM     18  O   UNL     1       1.041   2.133   0.058  0.00  0.00    -0.268 OA
BRANCH  17  19
ATOM     19  C   UNL     1       0.030   0.024   0.119  0.00  0.00    +0.084 A 
ATOM     20  C   UNL     1      -1.163  -0.702   0.152  0.00  0.00    +0.017 A 
ATOM     21  C   UNL     1      -1.131  -2.079   0.180  0.00  0.00    +0.005 A 
ATOM     22  C   UNL     1       0.081  -2.751   0.187  0.00  0.00    +0.049 A 
ATOM     23  C   UNL     1       1.271  -2.044   0.160  0.00  0.00    +0.162 A 
ATOM     24  C   UNL     1       1.253  -0.653   0.126  0.00  0.00    +0.174 A 
BRANCH  24  25
ATOM     25  O   UNL     1       2.419   0.044   0.099  0.00  0.00    -0.491 OA
ATOM     26  C   UNL     1       2.986   0.408   1.359  0.00  0.00    +0.277 C 
ENDBRANCH  24  25
BRANCH  23  27
ATOM     27  O   UNL     1       2.457  -2.709   0.166  0.00  0.00    -0.491 OA
ATOM     28  C   UNL     1       2.400  -4.137   0.202  0.00  0.00    +0.277 C 
ENDBRANCH  23  27
ENDBRANCH  17  19
ENDBRANCH  10  17
BRANCH   1  29
ATOM     29  C   UNL     1      -3.636   3.725   0.027  0.00  0.00    +0.152 C 
BRANCH  29  30
ATOM     30  C   UNL     1      -3.655   2.442  -0.807  0.00  0.00    +0.181 C 
BRANCH  30  32
ATOM     31  C   UNL     1      -5.126   0.758  -1.670  0.00  0.00    +0.194 C 
ATOM     32  O   UNL     1      -4.996   1.959  -0.907  0.00  0.00    -0.381 OA
ENDBRANCH  30  32
ENDBRANCH  29  30
ENDBRANCH   1  29
TORSDOF 9
