REMARK  Name = ZINC63882393
REMARK  9 active torsions:
REMARK  status: ('A' for Active; 'I' for Inactive)
REMARK    1  A    between atoms: C_1  and  C_2
REMARK    2  A    between atoms: C_2  and  N_3
REMARK    3  A    between atoms: N_3  and  C_4
REMARK    4  A    between atoms: N_3  and  C_6
REMARK    5  A    between atoms: C_4  and  C_5
REMARK    6  A    between atoms: C_9  and  C_15
REMARK    7  A    between atoms: C_10  and  O_12
REMARK    8  A    between atoms: O_12  and  C_13
REMARK    9  A    between atoms: C_13  and  C_14
REMARK                            x       y       z     vdW  Elec       q    Type
REMARK                         _______ _______ _______ _____ _____    ______ ____
ROOT
ATOM      1  C   UNL     1       1.177  -6.115   0.931  0.00  0.00    +0.143 C 
ATOM      2  N   UNL     1       2.321  -6.768   0.930  0.00  0.00    -0.228 NA
ATOM      3  C   UNL     1       2.048  -8.100   0.859  0.00  0.00    +0.091 A 
ATOM      4  C   UNL     1       2.810  -9.227   0.826  0.00  0.00    +0.055 A 
ATOM      5  C   UNL     1       2.154 -10.547   0.745  0.00  0.00    +0.058 A 
ATOM      6  N   UNL     1       2.606 -11.779   0.698  0.00  0.00    -0.267 N 
ATOM      7  C   UNL     1       1.573 -12.653   0.629  0.00  0.00    +0.308 C 
ATOM      8  O   UNL     1       1.692 -13.862   0.575  0.00  0.00    -0.252 OA
ATOM      9  N   UNL     1       0.395 -11.998   0.628  0.00  0.00    -0.267 N 
ATOM     10  C   UNL     1       0.685 -10.634   0.702  0.00  0.00    +0.058 A 
ATOM     11  C   UNL     1      -0.070  -9.515   0.735  0.00  0.00    +0.053 A 
ATOM     12  C   UNL     1       0.577  -8.200   0.815  0.00  0.00    +0.068 A 
ATOM     13  N   UNL     1       0.131  -6.962   0.867  0.00  0.00    -0.338 N 
ATOM     14  H   UNL     1      -0.487 -12.398   0.586  0.00  0.00    +0.156 HD
ATOM     15  H   UNL     1       3.544 -12.027   0.711  0.00  0.00    +0.156 HD
ATOM     16  H   UNL     1      -0.804  -6.700   0.859  0.00  0.00    +0.167 HD
ENDROOT
BRANCH   1  20
ATOM     17  C   UNL     1       0.831  -1.882   1.127  0.00  0.00    +0.017 A 
ATOM     18  C   UNL     1      -0.308  -2.668   1.064  0.00  0.00    +0.022 A 
ATOM     19  C   UNL     1      -0.203  -4.041   1.000  0.00  0.00    +0.017 A 
ATOM     20  C   UNL     1       1.057  -4.644   0.999  0.00  0.00    +0.059 A 
ATOM     21  C   UNL     1       2.208  -3.844   1.062  0.00  0.00    +0.133 A 
ATOM     22  C   UNL     1       2.084  -2.465   1.121  0.00  0.00    +0.068 A 
BRANCH  17  23
ATOM     23  N   UNL     1       0.713  -0.491   1.192  0.00  0.00    -0.394 NA
ATOM     24  H   UNL     1       1.632  -0.076   1.228  0.00  0.00    +0.126 HD
BRANCH  23  26
ATOM     25  C   UNL     1      -0.019   1.526   0.010  0.00  0.00    +0.022 C 
ATOM     26  C   UNL     1       0.002  -0.004   0.002  0.00  0.00    +0.081 C 
ENDBRANCH  23  26
BRANCH  23  27
ATOM     27  C   UNL     1      -0.040  -0.119   2.398  0.00  0.00    +0.081 C 
ATOM     28  C   UNL     1       0.760  -0.515   3.640  0.00  0.00    +0.022 C 
ENDBRANCH  23  27
ENDBRANCH  17  23
BRANCH  21  29
ATOM     29  O   UNL     1       3.438  -4.418   1.062  0.00  0.00    -0.491 OA
BRANCH  29  30
ATOM     30  C   UNL     1       4.564  -3.541   1.129  0.00  0.00    +0.226 C 
ATOM     31  C   UNL     1       5.853  -4.364   1.117  0.00  0.00    +0.048 C 
ENDBRANCH  29  30
ENDBRANCH  21  29
ENDBRANCH   1  20
TORSDOF 6
