REMARK  Name = ZINC61368661
REMARK  5 active torsions:
REMARK  status: ('A' for Active; 'I' for Inactive)
REMARK    1  A    between atoms: C_3  and  S_9
REMARK    2  A    between atoms: C_6  and  C_7
REMARK    3  A    between atoms: C_7  and  N_8
REMARK    4  A    between atoms: S_9  and  N_12
REMARK    5  A    between atoms: N_12  and  C_13
REMARK                            x       y       z     vdW  Elec       q    Type
REMARK                         _______ _______ _______ _____ _____    ______ ____
ROOT
ATOM      1  S   UNL     1       3.891   2.312  -0.024  0.00  0.00    +0.059 S 
ATOM      2  O   UNL     1       4.872   1.453  -0.588  0.00  0.00    -0.153 OA
ATOM      3  O   UNL     1       3.597   3.593  -0.566  0.00  0.00    -0.153 OA
ENDROOT
BRANCH   1   6
ATOM      4  C   UNL     1      -0.017   1.378   0.010  0.00  0.00    +0.003 A 
ATOM      5  C   UNL     1       1.171   2.086   0.002  0.00  0.00    +0.029 A 
ATOM      6  C   UNL     1       2.377   1.411  -0.013  0.00  0.00    +0.105 A 
ATOM      7  C   UNL     1       2.396   0.029  -0.020  0.00  0.00    +0.029 A 
ATOM      8  C   UNL     1       1.208  -0.679  -0.012  0.00  0.00    +0.003 A 
ATOM      9  C   UNL     1       0.002  -0.004   0.002  0.00  0.00    -0.065 A 
BRANCH   9  10
ATOM     10  C   UNL     1      -1.293  -0.775   0.011  0.00  0.00    -0.051 C 
BRANCH  10  11
ATOM     11  N   UNL     1      -1.727  -1.018  -1.371  0.00  0.00    +0.381 N 
ATOM     12  H   UNL     1      -1.864  -0.136  -1.841  0.00  0.00    -0.090 HD
ATOM     13  H   UNL     1      -1.021  -1.552  -1.857  0.00  0.00    -0.090 HD
ATOM     14  H   UNL     1      -2.594  -1.535  -1.366  0.00  0.00    -0.090 HD
ENDBRANCH  10  11
ENDBRANCH   9  10
ENDBRANCH   1   6
BRANCH   1  15
ATOM     15  N   UNL     1       4.327   2.556   1.555  0.00  0.00    -0.183 NA
ATOM     16  H   UNL     1       4.356   3.455   1.917  0.00  0.00    +0.149 HD
BRANCH  15  17
ATOM     17  C   UNL     1       4.670   1.412   2.405  0.00  0.00    +0.107 C 
ATOM     18  C   UNL     1       4.205   1.680   3.836  0.00  0.00    +0.025 C 
ATOM     19  C   UNL     1       5.013   2.829   4.445  0.00  0.00    +0.007 C 
ATOM     20  C   UNL     1       6.450   2.344   4.692  0.00  0.00    +0.043 C 
ATOM     21  C   UNL     1       6.930   1.650   3.459  0.00  0.00    -0.005 A 
ATOM     22  C   UNL     1       6.183   1.212   2.406  0.00  0.00    -0.019 A 
ATOM     23  C   UNL     1       6.871   0.589   1.365  0.00  0.00    +0.013 A 
ATOM     24  C   UNL     1       8.214   0.443   1.432  0.00  0.00    +0.046 A 
ATOM     25  S   UNL     1       8.586   1.200   3.016  0.00  0.00    -0.101 S 
ENDBRANCH  15  17
ENDBRANCH   1  15
TORSDOF 5
