REMARK  Name = ZINC00783155
REMARK  11 active torsions:
REMARK  status: ('A' for Active; 'I' for Inactive)
REMARK    1  A    between atoms: C_1  and  C_2
REMARK    2  A    between atoms: C_2  and  O_3
REMARK    3  A    between atoms: O_3  and  C_4
REMARK    4  A    between atoms: C_4  and  C_6
REMARK    5  A    between atoms: C_7  and  C_34
REMARK    6  A    between atoms: C_12  and  C_14
REMARK    7  A    between atoms: N_16  and  C_28
REMARK    8  A    between atoms: C_18  and  C_19
REMARK    9  A    between atoms: C_22  and  C_25
REMARK   10  A    between atoms: C_25  and  C_26
REMARK   11  A    between atoms: C_25  and  C_27
REMARK                            x       y       z     vdW  Elec       q    Type
REMARK                         _______ _______ _______ _____ _____    ______ ____
ROOT
ATOM      1  C   UNL     1       1.513  -0.519  -0.241  0.00  0.00    +0.023 A 
ATOM      2  C   UNL     1       0.242  -0.094  -0.069  0.00  0.00    +0.121 A 
ATOM      3  N   UNL     1       0.288   1.200   0.345  0.00  0.00    -0.239 N 
ATOM      4  N   UNL     1       1.634   1.581   0.428  0.00  0.00    -0.166 NA
ATOM      5  C   UNL     1       2.374   0.550   0.076  0.00  0.00    +0.098 A 
ENDROOT
BRANCH   1  12
ATOM      6  C   UNL     1       2.092  -1.861  -2.200  0.00  0.00    +0.078 C 
ATOM      7  C   UNL     1       1.347  -2.721  -2.928  0.00  0.00    +0.021 C 
ATOM      8  N   UNL     1       0.482  -3.589  -2.326  0.00  0.00    -0.273 N 
ATOM      9  C   UNL     1       0.304  -3.660  -1.000  0.00  0.00    +0.304 C 
ATOM     10  O   UNL     1      -0.490  -4.466  -0.556  0.00  0.00    -0.252 OA
ATOM     11  N   UNL     1       0.976  -2.866  -0.143  0.00  0.00    -0.288 N 
ATOM     12  C   UNL     1       1.935  -1.893  -0.694  0.00  0.00    +0.147 C 
ATOM     13  C   UNL     1       1.473  -2.723  -4.430  0.00  0.00    +0.061 C 
ATOM     14  H   UNL     1      -0.032  -4.188  -2.889  0.00  0.00    +0.156 HD
ATOM     15  H   UNL     1       0.832  -2.934   0.814  0.00  0.00    +0.151 HD
BRANCH   6  16
ATOM     16  C   UNL     1       2.988  -0.962  -2.823  0.00  0.00    +0.339 C 
ATOM     17  O   UNL     1       4.178  -1.212  -2.853  0.00  0.00    -0.245 OA
BRANCH  16  18
ATOM     18  O   UNL     1       2.523   0.174  -3.385  0.00  0.00    -0.462 OA
BRANCH  18  20
ATOM     19  C   UNL     1       2.794   2.346  -4.410  0.00  0.00    +0.048 C 
ATOM     20  C   UNL     1       3.491   1.068  -3.938  0.00  0.00    +0.229 C 
ENDBRANCH  18  20
ENDBRANCH  16  18
ENDBRANCH   6  16
ENDBRANCH   1  12
BRANCH   5  21
ATOM     21  C   UNL     1       3.857   0.520   0.023  0.00  0.00    +0.002 A 
ATOM     22  C   UNL     1       4.552  -0.579   0.522  0.00  0.00    +0.010 A 
ATOM     23  C   UNL     1       5.931  -0.604   0.465  0.00  0.00    +0.004 A 
ATOM     24  C   UNL     1       6.623   0.465  -0.077  0.00  0.00    -0.045 A 
ATOM     25  C   UNL     1       5.937   1.561  -0.569  0.00  0.00    +0.004 A 
ATOM     26  C   UNL     1       4.558   1.594  -0.521  0.00  0.00    +0.010 A 
BRANCH  24  27
ATOM     27  C   UNL     1       8.128   0.435  -0.130  0.00  0.00    +0.013 C 
ATOM     28  C   UNL     1       8.687   0.311   1.289  0.00  0.00    +0.012 C 
ATOM     29  C   UNL     1       8.585  -0.764  -0.964  0.00  0.00    +0.012 C 
ENDBRANCH  24  27
ENDBRANCH   5  21
BRANCH   3  30
ATOM     30  C   UNL     1      -0.817   2.012   0.632  0.00  0.00    +0.065 A 
ATOM     31  C   UNL     1      -2.104   1.509   0.496  0.00  0.00    +0.028 A 
ATOM     32  C   UNL     1      -3.191   2.311   0.785  0.00  0.00    +0.002 A 
ATOM     33  C   UNL     1      -2.999   3.616   1.198  0.00  0.00    +0.000 A 
ATOM     34  C   UNL     1      -1.718   4.122   1.329  0.00  0.00    +0.002 A 
ATOM     35  C   UNL     1      -0.627   3.324   1.047  0.00  0.00    +0.028 A 
ENDBRANCH   3  30
TORSDOF 7
