REMARK  Name = ZINC12129237
REMARK  7 active torsions:
REMARK  status: ('A' for Active; 'I' for Inactive)
REMARK    1  A    between atoms: C_1  and  C_2
REMARK    2  A    between atoms: C_2  and  C_3
REMARK    3  A    between atoms: C_2  and  C_4
REMARK    4  A    between atoms: C_2  and  C_5
REMARK    5  A    between atoms: C_5  and  C_6
REMARK    6  A    between atoms: N_8  and  C_9
REMARK    7  A    between atoms: C_11  and  C_25
REMARK                            x       y       z     vdW  Elec       q    Type
REMARK                         _______ _______ _______ _____ _____    ______ ____
ROOT
ATOM      1  C   UNL     1       1.271   1.830  -0.000  0.00  0.00    +0.132 A 
ATOM      2  C   UNL     1      -0.017   1.395   0.010  0.00  0.00    +0.069 A 
ATOM      3  C   UNL     1       0.002  -0.004   0.002  0.00  0.00    +0.068 A 
ATOM      4  N   UNL     1       1.247  -0.403  -0.012  0.00  0.00    -0.167 NA
ATOM      5  N   UNL     1       2.075   0.727  -0.014  0.00  0.00    -0.185 N 
ATOM      6  C   UNL     1       3.457   0.725  -0.028  0.00  0.00    +0.234 A 
ATOM      7  N   UNL     1       4.123  -0.460  -0.035  0.00  0.00    -0.291 N 
ATOM      8  H   UNL     1       3.630  -1.295  -0.031  0.00  0.00    +0.172 HD
ATOM      9  C   UNL     1       5.472  -0.468  -0.053  0.00  0.00    +0.256 A 
ATOM     10  O   UNL     1       6.087  -1.521  -0.065  0.00  0.00    -0.267 OA
ATOM     11  C   UNL     1       6.158   0.763  -0.054  0.00  0.00    +0.038 A 
ATOM     12  C   UNL     1       5.438   1.920  -0.041  0.00  0.00    +0.053 A 
ATOM     13  N   UNL     1       4.103   1.869  -0.028  0.00  0.00    -0.217 NA
ATOM     14  C   UNL     1       6.374   3.110  -0.044  0.00  0.00    +0.056 C 
ATOM     15  C   UNL     1       7.747   2.544   0.377  0.00  0.00    +0.011 C 
ATOM     16  C   UNL     1       7.638   1.068  -0.066  0.00  0.00    +0.043 C 
ENDROOT
BRANCH   1  19
ATOM     17  C   UNL     1       0.785   4.154   0.017  0.00  0.00    +0.219 C 
ATOM     18  O   UNL     1      -0.400   3.894   0.028  0.00  0.00    -0.275 OA
ATOM     19  N   UNL     1       1.693   3.158   0.003  0.00  0.00    -0.270 N 
ATOM     20  H   UNL     1       2.641   3.366  -0.005  0.00  0.00    +0.156 HD
BRANCH  17  21
ATOM     21  C   UNL     1       1.242   5.590   0.021  0.00  0.00    +0.102 C 
BRANCH  21  23
ATOM     22  C   UNL     1      -0.808   6.238   1.294  0.00  0.00    +0.011 C 
ATOM     23  C   UNL     1       0.022   6.513   0.038  0.00  0.00    -0.029 C 
ATOM     24  C   UNL     1       0.485   7.971   0.041  0.00  0.00    +0.011 C 
ATOM     25  C   UNL     1      -0.833   6.252  -1.204  0.00  0.00    +0.011 C 
ENDBRANCH  21  23
ENDBRANCH  17  21
ENDBRANCH   1  19
BRANCH   3  26
ATOM     26  C   UNL     1      -1.209  -0.901   0.008  0.00  0.00    +0.040 C 
ATOM     27  C   UNL     1      -2.549  -0.276   0.404  0.00  0.00    +0.010 C 
ATOM     28  C   UNL     1      -1.836  -1.231   1.364  0.00  0.00    +0.010 C 
ENDBRANCH   3  26
TORSDOF 4
