REMARK  Name = ZINC17885403
REMARK  12 active torsions:
REMARK  status: ('A' for Active; 'I' for Inactive)
REMARK    1  A    between atoms: C_1  and  C_2
REMARK    2  A    between atoms: C_5  and  N_9
REMARK    3  A    between atoms: C_7  and  C_8
REMARK    4  A    between atoms: C_11  and  C_15
REMARK    5  A    between atoms: C_12  and  C_14
REMARK    6  A    between atoms: C_15  and  C_17
REMARK    7  A    between atoms: C_15  and  C_24
REMARK    8  A    between atoms: C_21  and  O_23
REMARK    9  A    between atoms: C_26  and  C_39
REMARK   10  A    between atoms: N_28  and  C_31
REMARK   11  A    between atoms: C_34  and  C_38
REMARK   12  A    between atoms: C_35  and  C_37
REMARK                            x       y       z     vdW  Elec       q    Type
REMARK                         _______ _______ _______ _____ _____    ______ ____
ROOT
ATOM      1  C   UNL     1       0.093  -7.524  -1.554  0.00  0.00    +0.074 C 
ENDROOT
BRANCH   1   4
ATOM      2  N   UNL     1       0.456  -4.566   0.620  0.00  0.00    -0.219 N 
ATOM      3  C   UNL     1       0.245  -5.109  -0.596  0.00  0.00    +0.276 A 
ATOM      4  C   UNL     1       0.282  -6.515  -0.450  0.00  0.00    +0.047 A 
ATOM      5  C   UNL     1       0.514  -6.795   0.848  0.00  0.00    +0.039 A 
ATOM      6  N   UNL     1       0.631  -5.618   1.530  0.00  0.00    -0.294 N 
ATOM      7  C   UNL     1       0.630  -8.174   1.444  0.00  0.00    +0.065 C 
ATOM      8  O   UNL     1       0.056  -4.498  -1.633  0.00  0.00    -0.266 OA
ATOM      9  H   UNL     1       0.803  -5.525   2.480  0.00  0.00    +0.187 HD
BRANCH   2  14
ATOM     10  C   UNL     1       0.629   0.972   1.832  0.00  0.00    +0.044 C 
ATOM     11  C   UNL     1       0.584  -0.499   1.510  0.00  0.00    -0.047 A 
ATOM     12  C   UNL     1       0.357  -0.914   0.211  0.00  0.00    +0.006 A 
ATOM     13  C   UNL     1       0.315  -2.262  -0.088  0.00  0.00    +0.028 A 
ATOM     14  C   UNL     1       0.499  -3.201   0.919  0.00  0.00    +0.067 A 
ATOM     15  C   UNL     1       0.727  -2.780   2.223  0.00  0.00    +0.031 A 
ATOM     16  C   UNL     1       0.773  -1.431   2.514  0.00  0.00    -0.046 A 
ATOM     17  C   UNL     1       1.026  -0.974   3.928  0.00  0.00    +0.044 C 
ENDBRANCH   2  14
ENDBRANCH   1   4
BRANCH   1  18
ATOM     18  C   UNL     1      -1.210  -7.229  -2.298  0.00  0.00    +0.135 C 
ATOM     19  C   UNL     1      -2.397  -7.359  -1.367  0.00  0.00    +0.047 C 
ATOM     20  N   UNL     1      -3.139  -8.288  -1.829  0.00  0.00    -0.181 NA
ATOM     21  N   UNL     1      -2.637  -8.860  -2.994  0.00  0.00    -0.160 N 
ATOM     22  C   UNL     1      -1.470  -8.281  -3.359  0.00  0.00    +0.249 C 
ATOM     23  O   UNL     1      -0.780  -8.545  -4.322  0.00  0.00    -0.273 OA
ATOM     24  C   UNL     1      -2.654  -6.543  -0.126  0.00  0.00    +0.063 C 
BRANCH  21  25
ATOM     25  C   UNL     1      -3.259  -9.898  -3.699  0.00  0.00    +0.060 A 
ATOM     26  C   UNL     1      -2.674 -10.406  -4.851  0.00  0.00    +0.026 A 
ATOM     27  C   UNL     1      -3.290 -11.429  -5.543  0.00  0.00    +0.005 A 
ATOM     28  C   UNL     1      -4.490 -11.947  -5.091  0.00  0.00    -0.047 A 
ATOM     29  C   UNL     1      -5.075 -11.444  -3.944  0.00  0.00    -0.046 A 
ATOM     30  C   UNL     1      -4.461 -10.425  -3.243  0.00  0.00    +0.029 A 
ATOM     31  C   UNL     1      -6.383 -12.012  -3.455  0.00  0.00    +0.044 C 
ATOM     32  C   UNL     1      -5.160 -13.064  -5.850  0.00  0.00    +0.044 C 
ENDBRANCH  21  25
ENDBRANCH   1  18
BRANCH   1  33
ATOM     33  C   UNL     1       1.251  -7.439  -2.515  0.00  0.00    -0.035 A 
ATOM     34  C   UNL     1       1.394  -6.330  -3.329  0.00  0.00    +0.004 A 
ATOM     35  C   UNL     1       2.454  -6.250  -4.211  0.00  0.00    +0.004 A 
ATOM     36  C   UNL     1       3.375  -7.277  -4.283  0.00  0.00    +0.045 A 
ATOM     37  C   UNL     1       3.234  -8.391  -3.468  0.00  0.00    +0.117 A 
ATOM     38  C   UNL     1       2.172  -8.467  -2.578  0.00  0.00    +0.049 A 
BRANCH  37  39
ATOM     39  O   UNL     1       4.138  -9.403  -3.536  0.00  0.00    -0.507 OA
ATOM     40  H   UNL     1       4.888  -9.303  -2.934  0.00  0.00    +0.292 HD
ENDBRANCH  37  39
ENDBRANCH   1  33
TORSDOF 6
