REMARK  Name = ZINC12897930
REMARK  10 active torsions:
REMARK  status: ('A' for Active; 'I' for Inactive)
REMARK    1  A    between atoms: CG1_1  and  CB_2
REMARK    2  A    between atoms: CB_2  and  CG2_3
REMARK    3  A    between atoms: CB_2  and  CA_4
REMARK    4  A    between atoms: CA_4  and  C_6
REMARK    5  A    between atoms: CA_4  and  N_8
REMARK    6  A    between atoms: C_6  and  O_7
REMARK    7  A    between atoms: C_9  and  C_11
REMARK    8  A    between atoms: C_11  and  O_12
REMARK    9  A    between atoms: O_12  and  C_13
REMARK   10  A    between atoms: C_21  and  C_24
REMARK                            x       y       z     vdW  Elec       q    Type
REMARK                         _______ _______ _______ _____ _____    ______ ____
ROOT
ATOM      1  C   UNK A   0       0.931   1.826   7.126  0.00  0.00    +0.125 A 
ATOM      2  C   UNK A   0       1.740   0.696   7.221  0.00  0.00    +0.046 A 
ATOM      3  C   UNK A   0       2.340   0.375   8.405  0.00  0.00    +0.019 A 
ATOM      4  C   UNK A   0       2.131   1.179   9.527  0.00  0.00    +0.065 A 
ATOM      5  C   UNK A   0       1.313   2.318   9.443  0.00  0.00    +0.142 A 
ATOM      6  C   UNK A   0       0.715   2.633   8.230  0.00  0.00    +0.092 A 
ATOM      7  O   UNK A   0       1.113   3.094  10.527  0.00  0.00    -0.462 OA
ATOM      8  C   UNK A   0       1.660   2.842  11.719  0.00  0.00    +0.208 A 
ATOM      9  C   UNK A   0       2.471   1.775  11.941  0.00  0.00    +0.064 A 
ATOM     10  C   UNK A   0       2.757   0.860  10.823  0.00  0.00    +0.200 A 
ATOM     11  O   UNK A   0       3.477  -0.114  10.963  0.00  0.00    -0.286 OA
ENDROOT
BRANCH   9  12
ATOM     12  C   UNK A   0       3.055   1.536  13.283  0.00  0.00    -0.011 A 
ATOM     13  C   UNK A   0       2.948   0.281  13.879  0.00  0.00    +0.009 A 
ATOM     14  C   UNK A   0       3.499   0.063  15.126  0.00  0.00    +0.001 A 
ATOM     15  C   UNK A   0       4.147   1.090  15.788  0.00  0.00    +0.000 A 
ATOM     16  C   UNK A   0       4.252   2.339  15.203  0.00  0.00    +0.001 A 
ATOM     17  C   UNK A   0       3.709   2.567  13.955  0.00  0.00    +0.009 A 
ENDBRANCH   9  12
BRANCH   1  18
ATOM     18  O   UNK A   0       0.345   2.136   5.941  0.00  0.00    -0.483 OA
BRANCH  18  19
ATOM     19  C   UNK A   0       0.608   1.264   4.840  0.00  0.00    +0.324 C 
BRANCH  19  21
ATOM     20  N   VAL A   1      -0.020   1.094   2.454  0.00  0.00    -0.307 N 
ATOM     21  C   UNK A   0      -0.121   1.763   3.619  0.00  0.00    +0.251 C 
ATOM     22  O   UNK A   0      -0.798   2.767   3.686  0.00  0.00    -0.272 OA
ATOM     23  H   VAL A   1       0.521   0.291   2.401  0.00  0.00    +0.149 HD
BRANCH  20  24
ATOM     24  CA  VAL A   1      -0.729   1.579   1.267  0.00  0.00    +0.101 C 
BRANCH  24  26
ATOM     25  CG1 VAL A   1       1.423   1.615  -0.003  0.00  0.00    +0.009 C 
ATOM     26  CB  VAL A   1      -0.013   1.086   0.008  0.00  0.00    +0.005 C 
ATOM     27  CG2 VAL A   1      -0.753   1.593  -1.232  0.00  0.00    +0.009 C 
ENDBRANCH  24  26
BRANCH  24  28
ATOM     28  C   VAL A   1      -2.164   1.050   1.278  0.00  0.00    +0.178 C 
BRANCH  28  29
ATOM     29  O   VAL A   1      -2.148  -0.374   1.152  0.00  0.00    -0.393 OA
ATOM     30  H   VAL A   1      -3.026  -0.779   1.152  0.00  0.00    +0.209 HD
ENDBRANCH  28  29
ENDBRANCH  24  28
ENDBRANCH  20  24
ENDBRANCH  19  21
ENDBRANCH  18  19
ENDBRANCH   1  18
TORSDOF 8
