REMARK  Name = ZINC05345632
REMARK  8 active torsions:
REMARK  status: ('A' for Active; 'I' for Inactive)
REMARK    1  A    between atoms: C_1  and  N_48
REMARK    2  A    between atoms: C_2  and  N_48
REMARK    3  A    between atoms: C_3  and  C_4
REMARK    4  A    between atoms: C_3  and  N_48
REMARK    5  A    between atoms: C_4  and  C_5
REMARK    6  A    between atoms: C_5  and  N_6
REMARK    7  A    between atoms: C_12  and  C_22
REMARK    8  A    between atoms: C_17  and  O_21
REMARK                            x       y       z     vdW  Elec       q    Type
REMARK                         _______ _______ _______ _____ _____    ______ ____
ROOT
ATOM      1  N   UNL     1       3.062  -2.327   2.852  0.00  0.00    -0.318 N 
ATOM      2  C   UNL     1       4.298  -2.268   2.297  0.00  0.00    +0.204 A 
ATOM      3  N   UNL     1       4.465  -2.053   1.024  0.00  0.00    -0.202 NA
ATOM      4  C   UNL     1       3.426  -1.877   0.186  0.00  0.00    +0.229 A 
ATOM      5  C   UNL     1       2.153  -1.925   0.667  0.00  0.00    +0.069 A 
ATOM      6  C   UNL     1       1.951  -2.158   2.048  0.00  0.00    +0.115 A 
ATOM      7  C   UNL     1       0.967  -1.735  -0.236  0.00  0.00    +0.127 C 
ATOM      8  C   UNL     1       1.367  -1.920  -1.675  0.00  0.00    +0.010 A 
ATOM      9  C   UNL     1       0.391  -2.141  -2.631  0.00  0.00    +0.012 A 
ATOM     10  C   UNL     1       0.741  -2.311  -3.956  0.00  0.00    +0.046 A 
ATOM     11  C   UNL     1       2.076  -2.261  -4.332  0.00  0.00    +0.120 A 
ATOM     12  C   UNL     1       3.055  -2.041  -3.377  0.00  0.00    +0.092 A 
ATOM     13  C   UNL     1       2.701  -1.869  -2.045  0.00  0.00    +0.138 A 
ATOM     14  O   UNL     1       3.670  -1.653  -1.123  0.00  0.00    -0.437 OA
ATOM     15  H   UNL     1       0.510  -2.365   3.490  0.00  0.00    +0.157 HD
ATOM     16  N   UNL     1       0.692  -2.200   2.500  0.00  0.00    -0.384 N 
ATOM     17  H   UNL     1      -0.092  -2.066   1.850  0.00  0.00    +0.157 HD
ENDROOT
BRANCH   7  18
ATOM     18  C   UNL     1       0.414  -0.345  -0.047  0.00  0.00    +0.117 A 
ATOM     19  C   UNL     1      -0.830  -0.043   0.363  0.00  0.00    +0.045 A 
ATOM     20  C   UNL     1      -0.918   1.368   0.400  0.00  0.00    +0.041 A 
ATOM     21  C   UNL     1       0.279   1.843   0.010  0.00  0.00    +0.195 A 
ATOM     22  O   UNL     1       1.082   0.801  -0.259  0.00  0.00    -0.467 OA
ENDBRANCH   7  18
BRANCH  11  23
ATOM     23  O   UNL     1       2.422  -2.428  -5.636  0.00  0.00    -0.507 OA
ATOM     24  H   UNL     1       2.592  -3.348  -5.883  0.00  0.00    +0.292 HD
ENDBRANCH  11  23
BRANCH   1  25
ATOM     25  C   UNL     1       2.905  -2.568   4.288  0.00  0.00    +0.123 C 
BRANCH  25  26
ATOM     26  C   UNL     1       2.684  -4.061   4.534  0.00  0.00    +0.003 C 
BRANCH  26  27
ATOM     27  C   UNL     1       2.521  -4.313   6.035  0.00  0.00    -0.078 C 
BRANCH  27  30
ATOM     28  C   UNL     1       3.506  -6.521   5.915  0.00  0.00    -0.097 C 
ATOM     29  C   UNL     1       1.914  -5.998   7.663  0.00  0.00    -0.097 C 
ATOM     30  N   UNL     1       2.288  -5.755   6.254  0.00  0.00    +0.376 N 
ATOM     31  H   UNL     1       1.520  -6.065   5.647  0.00  0.00    -0.083 HD
ENDBRANCH  27  30
ENDBRANCH  26  27
ENDBRANCH  25  26
ENDBRANCH   1  25
TORSDOF 6
