REMARK  Name = ZINC39655342
REMARK  9 active torsions:
REMARK  status: ('A' for Active; 'I' for Inactive)
REMARK    1  A    between atoms: C_1  and  C_2
REMARK    2  A    between atoms: C_2  and  C_3
REMARK    3  A    between atoms: C_3  and  C_5
REMARK    4  A    between atoms: C_3  and  C_6
REMARK    5  A    between atoms: C_10  and  C_19
REMARK    6  A    between atoms: N_21  and  C_22
REMARK    7  A    between atoms: C_22  and  C_23
REMARK    8  A    between atoms: C_23  and  N_24
REMARK    9  A    between atoms: N_24  and  C_25
REMARK                            x       y       z     vdW  Elec       q    Type
REMARK                         _______ _______ _______ _____ _____    ______ ____
ROOT
ATOM      1  C   UNL     1       0.814  -2.159  -1.185  0.00  0.00    +0.218 C 
ATOM      2  O   UNL     1       0.434  -2.793  -0.224  0.00  0.00    -0.275 OA
ATOM      3  N   UNL     1       1.452  -2.782  -2.196  0.00  0.00    -0.300 N 
ATOM      4  C   UNL     1       1.991  -2.181  -3.438  0.00  0.00    +0.121 C 
ATOM      5  C   UNL     1       3.329  -2.915  -3.678  0.00  0.00    +0.100 C 
ATOM      6  C   UNL     1       3.180  -4.256  -2.940  0.00  0.00    -0.004 C 
ATOM      7  C   UNL     1       1.779  -4.224  -2.311  0.00  0.00    +0.115 C 
ATOM      8  C   UNL     1       3.292  -5.416  -3.923  0.00  0.00    -0.010 C 
ATOM      9  C   UNL     1       3.199  -6.739  -3.158  0.00  0.00    -0.082 C 
ATOM     10  N   UNL     1       4.276  -6.809  -2.163  0.00  0.00    +0.379 N 
ATOM     11  C   UNL     1       4.107  -5.744  -1.167  0.00  0.00    -0.082 C 
ATOM     12  C   UNL     1       4.239  -4.379  -1.848  0.00  0.00    -0.010 C 
ATOM     13  H   UNL     1       4.249  -7.706  -1.702  0.00  0.00    -0.086 HD
ATOM     14  H   UNL     1       5.166  -6.697  -2.625  0.00  0.00    -0.086 HD
ENDROOT
BRANCH   5  15
ATOM     15  C   UNL     1       3.544  -3.146  -5.152  0.00  0.00    +0.218 C 
ATOM     16  O   UNL     1       2.592  -3.303  -5.886  0.00  0.00    -0.275 OA
ATOM     17  N   UNL     1       4.795  -3.178  -5.653  0.00  0.00    -0.314 N 
ATOM     18  H   UNL     1       5.556  -3.052  -5.066  0.00  0.00    +0.149 HD
BRANCH  17  19
ATOM     19  C   UNL     1       5.004  -3.403  -7.086  0.00  0.00    +0.123 C 
BRANCH  19  20
ATOM     20  C   UNL     1       6.503  -3.393  -7.390  0.00  0.00    +0.120 C 
BRANCH  20  21
ATOM     21  N   UNL     1       6.712  -3.617  -8.823  0.00  0.00    -0.342 N 
ATOM     22  H   UNL     1       5.951  -3.743  -9.410  0.00  0.00    +0.146 HD
BRANCH  21  23
ATOM     23  C   UNL     1       8.008  -3.650  -9.343  0.00  0.00    +0.027 A 
ATOM     24  C   UNL     1       9.100  -3.476  -8.502  0.00  0.00    +0.023 A 
ATOM     25  C   UNL     1      10.380  -3.510  -9.019  0.00  0.00    +0.002 A 
ATOM     26  C   UNL     1      10.575  -3.717 -10.373  0.00  0.00    +0.000 A 
ATOM     27  C   UNL     1       9.491  -3.890 -11.212  0.00  0.00    +0.002 A 
ATOM     28  C   UNL     1       8.208  -3.863 -10.701  0.00  0.00    +0.023 A 
ENDBRANCH  21  23
ENDBRANCH  20  21
ENDBRANCH  19  20
ENDBRANCH  17  19
ENDBRANCH   5  15
BRANCH   1  29
ATOM     29  C   UNL     1       0.572  -0.672  -1.251  0.00  0.00    +0.072 C 
ATOM     30  C   UNL     1      -0.277  -0.347  -2.481  0.00  0.00    +0.017 C 
BRANCH  29  32
ATOM     31  C   UNL     1      -0.300   1.304   0.004  0.00  0.00    +0.004 C 
ATOM     32  C   UNL     1      -0.165  -0.220   0.011  0.00  0.00    +0.009 C 
ENDBRANCH  29  32
ENDBRANCH   1  29
TORSDOF 7
