REMARK  Name = ZINC02374856
REMARK  12 active torsions:
REMARK  status: ('A' for Active; 'I' for Inactive)
REMARK    1  A    between atoms: C_1  and  C_2
REMARK    2  A    between atoms: C_2  and  C_3
REMARK    3  A    between atoms: C_2  and  C_4
REMARK    4  A    between atoms: C_4  and  C_6
REMARK    5  A    between atoms: C_4  and  N_21
REMARK    6  A    between atoms: N_8  and  N_9
REMARK    7  A    between atoms: C_10  and  C_11
REMARK    8  A    between atoms: C_22  and  O_24
REMARK    9  A    between atoms: O_24  and  C_25
REMARK   10  A    between atoms: C_25  and  C_26
REMARK   11  A    between atoms: C_25  and  C_27
REMARK   12  A    between atoms: C_25  and  C_28
REMARK                            x       y       z     vdW  Elec       q    Type
REMARK                         _______ _______ _______ _____ _____    ______ ____
ROOT
ATOM      1  C   UNL     1       6.971   5.931  -0.207  0.00  0.00    +0.253 C 
ATOM      2  O   UNL     1       6.799   4.929  -0.869  0.00  0.00    -0.272 OA
ATOM      3  N   UNL     1       6.078   6.274   0.742  0.00  0.00    -0.205 N 
ATOM      4  H   UNL     1       6.250   7.036   1.317  0.00  0.00    +0.177 HD
ENDROOT
BRANCH   3   5
ATOM      5  N   UNL     1       4.901   5.530   0.898  0.00  0.00    -0.188 NA
ATOM      6  C   UNL     1       4.038   5.862   1.815  0.00  0.00    +0.137 C 
BRANCH   6   7
ATOM      7  C   UNL     1       2.847   5.109   1.973  0.00  0.00    +0.010 C 
ATOM      8  C   UNL     1       2.604   4.044   1.171  0.00  0.00    +0.020 C 
ATOM      9  C   UNL     1       1.342   3.310   1.364  0.00  0.00    +0.017 A 
ATOM     10  C   UNL     1       1.153   2.035   0.834  0.00  0.00    +0.011 A 
ATOM     11  C   UNL     1      -0.047   1.384   1.041  0.00  0.00    +0.001 A 
ATOM     12  C   UNL     1      -1.058   1.994   1.764  0.00  0.00    +0.004 A 
ATOM     13  C   UNL     1      -0.878   3.257   2.300  0.00  0.00    +0.046 A 
ATOM     14  C   UNL     1       0.316   3.924   2.103  0.00  0.00    +0.128 A 
ATOM     15  O   UNL     1       0.522   5.166   2.609  0.00  0.00    -0.487 OA
ATOM     16  C   UNL     1       1.846   5.490   3.033  0.00  0.00    +0.266 C 
ENDBRANCH   6   7
ENDBRANCH   3   5
BRANCH   1  17
ATOM     17  C   UNL     1       8.185   6.792  -0.446  0.00  0.00    +0.166 C 
BRANCH  17  18
ATOM     18  N   UNL     1       9.263   5.972  -1.004  0.00  0.00    -0.270 N 
ATOM     19  C   UNL     1      10.547   6.347  -0.841  0.00  0.00    +0.401 C 
ATOM     20  O   UNL     1      10.811   7.364  -0.231  0.00  0.00    -0.226 OA
ATOM     21  H   UNL     1       9.053   5.160  -1.491  0.00  0.00    +0.153 HD
BRANCH  19  22
ATOM     22  O   UNL     1      11.539   5.593  -1.353  0.00  0.00    -0.445 OA
BRANCH  22  23
ATOM     23  C   UNL     1      12.898   6.057  -1.138  0.00  0.00    +0.107 C 
ATOM     24  C   UNL     1      13.178   6.138   0.364  0.00  0.00    +0.055 C 
ATOM     25  C   UNL     1      13.879   5.079  -1.788  0.00  0.00    +0.055 C 
ATOM     26  C   UNL     1      13.069   7.442  -1.764  0.00  0.00    +0.055 C 
ENDBRANCH  22  23
ENDBRANCH  19  22
ENDBRANCH  17  18
BRANCH  17  28
ATOM     27  C   UNL     1       7.251   7.298  -2.708  0.00  0.00    +0.009 C 
ATOM     28  C   UNL     1       7.832   7.909  -1.431  0.00  0.00    +0.012 C 
ATOM     29  C   UNL     1       6.798   8.841  -0.796  0.00  0.00    +0.009 C 
ENDBRANCH  17  28
ENDBRANCH   1  17
TORSDOF 7
