REMARK  Name = ZINC46584318
REMARK  7 active torsions:
REMARK  status: ('A' for Active; 'I' for Inactive)
REMARK    1  A    between atoms: C_1  and  C_2
REMARK    2  A    between atoms: C_5  and  N_9
REMARK    3  A    between atoms: C_10  and  C_12
REMARK    4  A    between atoms: C_12  and  N_13
REMARK    5  A    between atoms: N_16  and  C_19
REMARK    6  A    between atoms: C_20  and  C_29
REMARK    7  A    between atoms: C_22  and  C_24
REMARK                            x       y       z     vdW  Elec       q    Type
REMARK                         _______ _______ _______ _____ _____    ______ ____
ROOT
ATOM      1  N   UNL     1      -0.234  -6.827  -2.574  0.00  0.00    +0.387 N 
ATOM      2  C   UNL     1       1.005  -6.505  -3.292  0.00  0.00    -0.059 C 
ATOM      3  C   UNL     1       0.861  -6.905  -4.764  0.00  0.00    +0.089 C 
ATOM      4  N   UNL     1       0.474  -8.323  -4.825  0.00  0.00    -0.303 N 
ATOM      5  C   UNL     1      -0.663  -8.768  -4.005  0.00  0.00    +0.089 C 
ATOM      6  C   UNL     1      -0.446  -8.280  -2.568  0.00  0.00    -0.059 C 
ATOM      7  H   UNL     1      -1.012  -6.376  -3.031  0.00  0.00    -0.081 HD
ENDROOT
BRANCH   4   8
ATOM      8  C   UNL     1       1.158  -9.210  -5.628  0.00  0.00    +0.227 A 
ATOM      9  C   UNL     1       0.936  -9.445  -6.976  0.00  0.00    +0.201 A 
ATOM     10  N   UNL     1       1.833 -10.390  -7.366  0.00  0.00    -0.194 NA
ATOM     11  C   UNL     1       2.566 -10.723  -6.332  0.00  0.00    +0.266 A 
ATOM     12  O   UNL     1       2.175 -10.009  -5.257  0.00  0.00    -0.417 OA
BRANCH  11  13
ATOM     13  C   UNL     1       3.649 -11.715  -6.343  0.00  0.00    +0.189 A 
ATOM     14  C   UNL     1       4.063 -12.436  -7.424  0.00  0.00    +0.055 A 
ATOM     15  C   UNL     1       5.117 -13.258  -6.983  0.00  0.00    +0.042 A 
ATOM     16  C   UNL     1       5.296 -13.003  -5.671  0.00  0.00    +0.196 A 
ATOM     17  O   UNL     1       4.412 -12.067  -5.289  0.00  0.00    -0.458 OA
ENDBRANCH  11  13
BRANCH   9  18
ATOM     18  C   UNL     1      -0.051  -8.815  -7.801  0.00  0.00    +0.124 C 
ATOM     19  N   UNL     1      -0.833  -8.314  -8.455  0.00  0.00    -0.189 NA
ENDBRANCH   9  18
ENDBRANCH   4   8
BRANCH   1  20
ATOM     20  C   UNL     1      -0.136  -6.343  -1.190  0.00  0.00    +0.019 C 
BRANCH  20  22
ATOM     21  N   UNL     1       0.057  -4.171  -0.022  0.00  0.00    -0.286 N 
ATOM     22  C   UNL     1      -0.042  -4.839  -1.189  0.00  0.00    +0.201 C 
ATOM     23  O   UNL     1      -0.055  -4.230  -2.237  0.00  0.00    -0.278 OA
ATOM     24  H   UNL     1       0.148  -4.660   0.810  0.00  0.00    +0.155 HD
BRANCH  21  29
ATOM     25  C   UNL     1      -0.063   1.502   0.016  0.00  0.00    +0.044 C 
ATOM     26  C   UNL     1      -0.030  -0.005   0.006  0.00  0.00    -0.049 A 
ATOM     27  C   UNL     1      -0.621  -0.701  -1.033  0.00  0.00    +0.005 A 
ATOM     28  C   UNL     1      -0.594  -2.082  -1.045  0.00  0.00    +0.024 A 
ATOM     29  C   UNL     1       0.028  -2.772  -0.013  0.00  0.00    +0.047 A 
ATOM     30  C   UNL     1       0.621  -2.070   1.029  0.00  0.00    +0.039 A 
ATOM     31  C   UNL     1       0.595  -0.688   1.033  0.00  0.00    +0.020 A 
ATOM     32 BR   UNL     1       1.470  -3.005   2.438  0.00  0.00    -0.048 Br
ENDBRANCH  21  29
ENDBRANCH  20  22
ENDBRANCH   1  20
TORSDOF 6
