REMARK  Name = ZINC06443616
REMARK  9 active torsions:
REMARK  status: ('A' for Active; 'I' for Inactive)
REMARK    1  A    between atoms: C_1  and  C_2
REMARK    2  A    between atoms: C_12  and  C_14
REMARK    3  A    between atoms: C_14  and  C_16
REMARK    4  A    between atoms: C_14  and  N_69
REMARK    5  A    between atoms: N_20  and  C_21
REMARK    6  A    between atoms: C_26  and  C_27
REMARK    7  A    between atoms: C_26  and  N_69
REMARK    8  A    between atoms: C_33  and  C_34
REMARK    9  A    between atoms: C_33  and  N_69
REMARK                            x       y       z     vdW  Elec       q    Type
REMARK                         _______ _______ _______ _____ _____    ______ ____
ROOT
ATOM      1  C   UNL     1      -0.225  -2.485   4.937  0.00  0.00    +0.040 C 
ENDROOT
BRANCH   1  13
ATOM      2  C   UNL     1      -1.221   0.018  -1.059  0.00  0.00    +0.046 C 
ATOM      3  C   UNL     1      -1.158  -1.407  -0.573  0.00  0.00    -0.026 A 
ATOM      4  C   UNL     1      -1.331  -2.448  -1.460  0.00  0.00    +0.005 A 
ATOM      5  C   UNL     1      -1.269  -3.765  -1.026  0.00  0.00    +0.001 A 
ATOM      6  C   UNL     1      -1.047  -4.054   0.291  0.00  0.00    +0.010 A 
ATOM      7  C   UNL     1      -0.874  -3.014   1.209  0.00  0.00    -0.001 A 
ATOM      8  C   UNL     1      -0.930  -1.677   0.772  0.00  0.00    +0.052 A 
ATOM      9  N   UNL     1      -0.758  -0.654   1.681  0.00  0.00    -0.322 N 
ATOM     10  H   UNL     1      -0.797   0.266   1.379  0.00  0.00    +0.169 HD
ATOM     11  C   UNL     1      -0.539  -0.916   2.982  0.00  0.00    +0.251 A 
ATOM     12  O   UNL     1      -0.393   0.013   3.758  0.00  0.00    -0.268 OA
ATOM     13  C   UNL     1      -0.474  -2.238   3.471  0.00  0.00    +0.011 A 
ATOM     14  C   UNL     1      -0.633  -3.287   2.627  0.00  0.00    +0.017 A 
ENDBRANCH   1  13
BRANCH   1  15
ATOM     15  C   UNL     1       1.151  -1.993   5.303  0.00  0.00    +0.143 A 
ATOM     16  N   UNL     1       1.485  -0.766   5.621  0.00  0.00    -0.115 NA
ATOM     17  N   UNL     1       2.749  -0.749   5.867  0.00  0.00    -0.023 NA
ATOM     18  N   UNL     1       3.231  -1.933   5.715  0.00  0.00    -0.044 NA
ATOM     19  N   UNL     1       2.276  -2.729   5.372  0.00  0.00    -0.227 N 
BRANCH  19  20
ATOM     20  C   UNL     1       2.394  -4.165   5.105  0.00  0.00    +0.111 C 
ATOM     21  C   UNL     1       2.961  -4.888   6.344  0.00  0.00    +0.027 C 
ATOM     22  C   UNL     1       3.884  -5.983   5.754  0.00  0.00    +0.002 C 
ATOM     23  C   UNL     1       4.530  -5.270   4.540  0.00  0.00    +0.002 C 
ATOM     24  C   UNL     1       3.391  -4.408   3.959  0.00  0.00    +0.027 C 
ENDBRANCH  19  20
ENDBRANCH   1  15
BRANCH   1  25
ATOM     25  N   UNL     1      -1.223  -1.738   5.731  0.00  0.00    +0.395 N 
ATOM     26  H   UNL     1      -0.983  -0.739   5.714  0.00  0.00    -0.079 HD
BRANCH  25  27
ATOM     27  C   UNL     1      -1.210  -2.210   7.131  0.00  0.00    -0.041 C 
BRANCH  27  28
ATOM     28  C   UNL     1      -0.033  -1.591   7.839  0.00  0.00    -0.064 A 
ATOM     29  C   UNL     1       1.138  -2.310   7.992  0.00  0.00    +0.002 A 
ATOM     30  C   UNL     1       2.220  -1.740   8.636  0.00  0.00    +0.000 A 
ATOM     31  C   UNL     1       2.127  -0.455   9.138  0.00  0.00    +0.000 A 
ATOM     32  C   UNL     1       0.955   0.262   8.990  0.00  0.00    +0.000 A 
ATOM     33  C   UNL     1      -0.126  -0.306   8.341  0.00  0.00    +0.002 A 
ENDBRANCH  27  28
ENDBRANCH  25  27
BRANCH  25  34
ATOM     34  C   UNL     1      -2.570  -1.918   5.149  0.00  0.00    -0.040 C 
BRANCH  34  35
ATOM     35  C   UNL     1      -3.490  -0.875   5.728  0.00  0.00    -0.046 A 
ATOM     36  C   UNL     1      -4.211  -1.137   6.883  0.00  0.00    +0.005 A 
ATOM     37  C   UNL     1      -5.042  -0.146   7.382  0.00  0.00    +0.020 A 
ATOM     38  C   UNL     1      -5.132   1.059   6.710  0.00  0.00    +0.111 A 
ATOM     39  N   UNL     1      -4.436   1.272   5.610  0.00  0.00    -0.263 NA
ATOM     40  C   UNL     1      -3.632   0.353   5.110  0.00  0.00    +0.112 A 
ENDBRANCH  34  35
ENDBRANCH  25  34
ENDBRANCH   1  25
TORSDOF 8
