REMARK  Name = ZINC19347868
REMARK  7 active torsions:
REMARK  status: ('A' for Active; 'I' for Inactive)
REMARK    1  A    between atoms: C_5  and  C_7
REMARK    2  A    between atoms: C_7  and  C_9
REMARK    3  A    between atoms: C_7  and  N_24
REMARK    4  A    between atoms: N_13  and  C_14
REMARK    5  A    between atoms: C_14  and  C_15
REMARK    6  A    between atoms: N_27  and  C_30
REMARK    7  A    between atoms: C_30  and  C_31
REMARK                            x       y       z     vdW  Elec       q    Type
REMARK                         _______ _______ _______ _____ _____    ______ ____
ROOT
ATOM      1  C   UNL     1       1.228  -2.186  -0.022  0.00  0.00    +0.160 C 
ENDROOT
BRANCH   1   6
ATOM      2  C   UNL     1      -0.017   1.378   0.010  0.00  0.00    +0.000 A 
ATOM      3  C   UNL     1       1.171   2.087   0.002  0.00  0.00    +0.003 A 
ATOM      4  C   UNL     1       2.377   1.414  -0.013  0.00  0.00    +0.039 A 
ATOM      5  C   UNL     1       2.397   0.029  -0.021  0.00  0.00    +0.128 A 
ATOM      6  C   UNL     1       1.208  -0.679  -0.013  0.00  0.00    +0.012 A 
ATOM      7  C   UNL     1       0.002  -0.004   0.002  0.00  0.00    +0.008 A 
ATOM      8  F   UNL     1       3.577  -0.630  -0.036  0.00  0.00    -0.205 F 
ENDBRANCH   1   6
BRANCH   1   9
ATOM      9  N   UNL     1      -0.062  -2.696   0.461  0.00  0.00    -0.293 NA
ATOM     10  C   UNL     1      -0.371  -2.166   1.797  0.00  0.00    +0.067 C 
ATOM     11  C   UNL     1      -1.746  -2.672   2.238  0.00  0.00    -0.063 C 
ATOM     12  N   UNL     1      -1.742  -4.140   2.264  0.00  0.00    +0.386 N 
ATOM     13  C   UNL     1      -1.457  -4.655   0.918  0.00  0.00    -0.063 C 
ATOM     14  C   UNL     1      -0.079  -4.166   0.467  0.00  0.00    +0.067 C 
ATOM     15  H   UNL     1      -1.033  -4.463   2.905  0.00  0.00    -0.081 HD
BRANCH  12  16
ATOM     16  C   UNL     1      -3.057  -4.625   2.705  0.00  0.00    -0.003 C 
BRANCH  16  17
ATOM     17  C   UNL     1      -3.017  -6.125   2.850  0.00  0.00    +0.089 A 
ATOM     18  C   UNL     1      -2.692  -6.798   3.968  0.00  0.00    +0.042 A 
ATOM     19  C   UNL     1      -2.784  -8.175   3.659  0.00  0.00    +0.041 A 
ATOM     20  C   UNL     1      -3.159  -8.260   2.370  0.00  0.00    +0.195 A 
ATOM     21  O   UNL     1      -3.304  -7.015   1.887  0.00  0.00    -0.470 OA
ENDBRANCH  16  17
ENDBRANCH  12  16
ENDBRANCH   1   9
BRANCH   1  22
ATOM     22  C   UNL     1       1.468  -2.677  -1.426  0.00  0.00    +0.173 A 
ATOM     23  N   UNL     1       0.604  -2.682  -2.412  0.00  0.00    -0.111 NA
ATOM     24  N   UNL     1       1.186  -3.177  -3.449  0.00  0.00    -0.023 NA
ATOM     25  N   UNL     1       2.399  -3.489  -3.151  0.00  0.00    -0.044 NA
ATOM     26  N   UNL     1       2.613  -3.190  -1.914  0.00  0.00    -0.223 N 
BRANCH  26  27
ATOM     27  C   UNL     1       3.865  -3.378  -1.177  0.00  0.00    +0.182 C 
BRANCH  27  28
ATOM     28  C   UNL     1       3.874  -4.745  -0.542  0.00  0.00    -0.022 A 
ATOM     29  C   UNL     1       3.362  -4.917   0.731  0.00  0.00    +0.009 A 
ATOM     30  C   UNL     1       3.367  -6.169   1.318  0.00  0.00    +0.050 A 
ATOM     31  C   UNL     1       3.886  -7.254   0.631  0.00  0.00    +0.166 A 
ATOM     32  C   UNL     1       4.402  -7.081  -0.651  0.00  0.00    +0.167 A 
ATOM     33  C   UNL     1       4.388  -5.825  -1.235  0.00  0.00    +0.055 A 
ATOM     34  O   UNL     1       4.848  -8.287  -1.109  0.00  0.00    -0.453 OA
ATOM     35  C   UNL     1       4.974  -9.119   0.060  0.00  0.00    +0.466 C 
ATOM     36  O   UNL     1       4.009  -8.569   0.977  0.00  0.00    -0.453 OA
ENDBRANCH  27  28
ENDBRANCH  26  27
ENDBRANCH   1  22
TORSDOF 7
