REMARK  Name = ZINC63827767
REMARK  10 active torsions:
REMARK  status: ('A' for Active; 'I' for Inactive)
REMARK    1  A    between atoms: C_1  and  C_2
REMARK    2  A    between atoms: C_4  and  C_17
REMARK    3  A    between atoms: C_5  and  C_16
REMARK    4  A    between atoms: N_6  and  C_7
REMARK    5  A    between atoms: C_7  and  C_9
REMARK    6  A    between atoms: C_7  and  C_10
REMARK    7  A    between atoms: C_17  and  C_19
REMARK    8  A    between atoms: C_19  and  N_20
REMARK    9  A    between atoms: C_23  and  C_28
REMARK   10  A    between atoms: C_28  and  C_29
REMARK                            x       y       z     vdW  Elec       q    Type
REMARK                         _______ _______ _______ _____ _____    ______ ____
ROOT
ATOM      1  N   UNL     1       0.103  -4.737  -3.455  0.00  0.00    -0.217 N 
ATOM      2  C   UNL     1       1.196  -5.475  -3.736  0.00  0.00    +0.244 C 
ATOM      3  O   UNL     1       2.355  -5.156  -3.580  0.00  0.00    -0.273 OA
ATOM      4  C   UNL     1       0.673  -6.787  -4.286  0.00  0.00    +0.165 C 
ATOM      5  N   UNL     1      -0.790  -6.620  -4.247  0.00  0.00    -0.287 N 
ATOM      6  C   UNL     1      -1.025  -5.395  -3.743  0.00  0.00    +0.310 C 
ATOM      7  O   UNL     1      -2.137  -4.937  -3.572  0.00  0.00    -0.252 OA
ATOM      8  H   UNL     1      -1.455  -7.269  -4.528  0.00  0.00    +0.151 HD
ENDROOT
BRANCH   1   9
ATOM      9  C   UNL     1       0.146  -3.383  -2.896  0.00  0.00    +0.197 C 
BRANCH   9  10
ATOM     10  C   UNL     1       0.140  -3.460  -1.391  0.00  0.00    +0.183 C 
ATOM     11  O   UNL     1       0.104  -4.540  -0.839  0.00  0.00    -0.290 OA
BRANCH  10  15
ATOM     12  C   UNL     1       0.297   1.451  -0.041  0.00  0.00    +0.063 C 
ATOM     13  C   UNL     1       0.248  -0.055  -0.016  0.00  0.00    +0.017 A 
ATOM     14  C   UNL     1       0.224  -0.852  -1.098  0.00  0.00    +0.034 A 
ATOM     15  C   UNL     1       0.178  -2.231  -0.595  0.00  0.00    +0.040 A 
ATOM     16  C   UNL     1       0.179  -2.132   0.783  0.00  0.00    +0.027 A 
ATOM     17  N   UNL     1       0.226  -0.828   1.109  0.00  0.00    -0.341 N 
ATOM     18  C   UNL     1       0.140  -3.284   1.753  0.00  0.00    +0.064 C 
BRANCH  17  19
ATOM     19  C   UNL     1       0.246  -0.309   2.479  0.00  0.00    +0.114 C 
ATOM     20  C   UNL     1       1.059   0.987   2.522  0.00  0.00    +0.036 C 
BRANCH  19  21
ATOM     21  C   UNL     1       0.877  -1.328   3.393  0.00  0.00    -0.025 A 
ATOM     22  C   UNL     1       2.173  -1.752   3.165  0.00  0.00    +0.005 A 
ATOM     23  C   UNL     1       2.752  -2.687   4.003  0.00  0.00    +0.000 A 
ATOM     24  C   UNL     1       2.035  -3.197   5.069  0.00  0.00    +0.000 A 
ATOM     25  C   UNL     1       0.739  -2.772   5.298  0.00  0.00    +0.000 A 
ATOM     26  C   UNL     1       0.162  -1.834   4.462  0.00  0.00    +0.005 A 
ENDBRANCH  19  21
ENDBRANCH  17  19
ENDBRANCH  10  15
ENDBRANCH   9  10
ENDBRANCH   1   9
BRANCH   4  27
ATOM     27  C   UNL     1       1.109  -7.954  -3.398  0.00  0.00    +0.065 C 
BRANCH  27  28
ATOM     28  C   UNL     1       0.682  -9.254  -4.032  0.00  0.00    -0.039 C 
ATOM     29  C   UNL     1       1.429 -10.056  -4.824  0.00  0.00    -0.001 A 
ATOM     30  C   UNL     1       2.809  -9.962  -5.316  0.00  0.00    +0.010 A 
ATOM     31  C   UNL     1       3.289 -10.943  -6.113  0.00  0.00    +0.001 A 
ATOM     32  C   UNL     1       2.504 -12.044  -6.482  0.00  0.00    +0.002 A 
ATOM     33  C   UNL     1       1.228 -12.200  -6.070  0.00  0.00    +0.026 A 
ATOM     34  C   UNL     1       0.621 -11.229  -5.228  0.00  0.00    +0.043 A 
ATOM     35  N   UNL     1      -0.579 -11.154  -4.705  0.00  0.00    -0.380 N 
ATOM     36  C   UNL     1      -0.666  -9.928  -3.905  0.00  0.00    +0.144 C 
ATOM     37  H   UNL     1      -1.290 -11.804  -4.824  0.00  0.00    +0.160 HD
ENDBRANCH  27  28
ENDBRANCH   4  27
TORSDOF 7
