REMARK  Name = ZINC53112057
REMARK  7 active torsions:
REMARK  status: ('A' for Active; 'I' for Inactive)
REMARK    1  A    between atoms: C_1  and  C_2
REMARK    2  A    between atoms: C_6  and  C_9
REMARK    3  A    between atoms: C_7  and  N_8
REMARK    4  A    between atoms: N_11  and  C_12
REMARK    5  A    between atoms: C_12  and  C_20
REMARK    6  A    between atoms: C_16  and  C_19
REMARK    7  A    between atoms: C_20  and  O_21
REMARK                            x       y       z     vdW  Elec       q    Type
REMARK                         _______ _______ _______ _____ _____    ______ ____
ROOT
ATOM      1  C   UNL     1      -0.599  -4.425   1.780  0.00  0.00    +0.246 C 
ATOM      2  O   UNL     1      -1.420  -5.173   2.274  0.00  0.00    -0.270 OA
ATOM      3  N   UNL     1       0.546  -4.153   2.437  0.00  0.00    -0.304 N 
ATOM      4  H   UNL     1       1.170  -3.503   2.076  0.00  0.00    +0.150 HD
ENDROOT
BRANCH   1  10
ATOM      5  C   UNL     1      -3.423  -4.010  -2.329  0.00  0.00    +0.045 C 
ATOM      6  C   UNL     1      -2.214  -3.611  -1.523  0.00  0.00    -0.029 A 
ATOM      7  C   UNL     1      -1.335  -2.669  -2.019  0.00  0.00    +0.005 A 
ATOM      8  C   UNL     1      -0.220  -2.295  -1.286  0.00  0.00    +0.001 A 
ATOM      9  C   UNL     1       0.025  -2.861  -0.054  0.00  0.00    +0.015 A 
ATOM     10  C   UNL     1      -0.855  -3.816   0.462  0.00  0.00    +0.058 A 
ATOM     11  C   UNL     1      -1.987  -4.188  -0.280  0.00  0.00    +0.040 A 
BRANCH  11  12
ATOM     12  N   UNL     1      -2.872  -5.132   0.224  0.00  0.00    -0.357 N 
ATOM     13  H   UNL     1      -3.605  -5.452  -0.326  0.00  0.00    +0.142 HD
ATOM     14  H   UNL     1      -2.759  -5.471   1.125  0.00  0.00    +0.142 HD
ENDBRANCH  11  12
ENDBRANCH   1  10
BRANCH   3  15
ATOM     15  C   UNL     1       0.849  -4.838   3.696  0.00  0.00    +0.058 C 
ATOM     16  C   UNL     1       2.237  -4.419   4.184  0.00  0.00    +0.028 C 
ATOM     17  C   UNL     1       3.283  -4.797   3.133  0.00  0.00    +0.002 C 
ATOM     18  C   UNL     1       3.257  -6.310   2.909  0.00  0.00    +0.003 C 
ATOM     19  C   UNL     1       1.869  -6.729   2.420  0.00  0.00    -0.012 C 
ATOM     20  C   UNL     1       0.823  -6.352   3.471  0.00  0.00    +0.031 C 
ATOM     21  C   UNL     1       1.843  -8.243   2.196  0.00  0.00    +0.007 C 
BRANCH  15  22
ATOM     22  C   UNL     1      -0.197  -4.461   4.747  0.00  0.00    +0.181 C 
BRANCH  22  23
ATOM     23  O   UNL     1      -0.258  -3.038   4.868  0.00  0.00    -0.393 OA
ATOM     24  H   UNL     1      -0.901  -2.726   5.519  0.00  0.00    +0.209 HD
ENDBRANCH  22  23
ENDBRANCH  15  22
ENDBRANCH   3  15
TORSDOF 5
