REMARK  Name = ZINC14015757
REMARK  3 active torsions:
REMARK  status: ('A' for Active; 'I' for Inactive)
REMARK    1  A    between atoms: C_12  and  C_14
REMARK    2  A    between atoms: N_19  and  S_21
REMARK    3  A    between atoms: S_21  and  C_24
REMARK                            x       y       z     vdW  Elec       q    Type
REMARK                         _______ _______ _______ _____ _____    ______ ____
ROOT
ATOM      1  C   UNL     1      -1.192  -2.156   2.901  0.00  0.00    +0.091 C 
ATOM      2  C   UNL     1       0.069  -2.312   3.755  0.00  0.00    +0.015 C 
ATOM      3  C   UNL     1       1.308  -2.123   2.877  0.00  0.00    +0.018 C 
ATOM      4  C   UNL     1       1.298  -0.716   2.281  0.00  0.00    +0.109 C 
ATOM      5  N   UNL     1       0.024  -0.502   1.581  0.00  0.00    -0.176 NA
ATOM      6  C   UNL     1      -1.230  -0.745   2.307  0.00  0.00    +0.122 C 
ENDROOT
BRANCH   1  18
ATOM      7  C   UNL     1      -7.757  -4.246   7.928  0.00  0.00    +0.003 A 
ATOM      8  C   UNL     1      -6.679  -5.048   7.602  0.00  0.00    +0.017 A 
ATOM      9  C   UNL     1      -5.697  -4.561   6.774  0.00  0.00    +0.042 A 
ATOM     10  C   UNL     1      -5.737  -3.258   6.228  0.00  0.00    +0.099 A 
ATOM     11  C   UNL     1      -6.854  -2.466   6.582  0.00  0.00    +0.067 A 
ATOM     12  C   UNL     1      -7.830  -2.961   7.410  0.00  0.00    +0.022 A 
ATOM     13 CL   UNL     1      -6.992  -0.851   5.962  0.00  0.00    -0.081 Cl
ATOM     14  N   UNL     1      -4.695  -2.924   5.436  0.00  0.00    -0.223 NA
ATOM     15  C   UNL     1      -3.711  -3.754   5.177  0.00  0.00    +0.166 A 
ATOM     16  S   UNL     1      -4.182  -5.206   6.107  0.00  0.00    -0.052 S 
ATOM     17  N   UNL     1      -2.590  -3.553   4.388  0.00  0.00    -0.264 N 
ATOM     18  C   UNL     1      -2.411  -2.374   3.759  0.00  0.00    +0.223 C 
ATOM     19  O   UNL     1      -3.230  -1.489   3.885  0.00  0.00    -0.275 OA
ATOM     20  H   UNL     1      -1.935  -4.261   4.287  0.00  0.00    +0.157 HD
ENDBRANCH   1  18
BRANCH   5  21
ATOM     21  S   UNL     1       0.002  -0.004   0.002  0.00  0.00    +0.061 S 
ATOM     22  O   UNL     1      -1.243  -0.424  -0.539  0.00  0.00    -0.153 OA
ATOM     23  O   UNL     1       1.248  -0.390  -0.563  0.00  0.00    -0.153 OA
BRANCH  21  24
ATOM     24  C   UNL     1      -0.022   1.758   0.012  0.00  0.00    +0.106 A 
ATOM     25  C   UNL     1      -1.229   2.432   0.021  0.00  0.00    +0.031 A 
ATOM     26  C   UNL     1      -1.248   3.814   0.035  0.00  0.00    +0.040 A 
ATOM     27  C   UNL     1      -0.059   4.523   0.026  0.00  0.00    +0.124 A 
ATOM     28  C   UNL     1       1.149   3.846   0.011  0.00  0.00    +0.040 A 
ATOM     29  C   UNL     1       1.166   2.465   0.004  0.00  0.00    +0.031 A 
ATOM     30  F   UNL     1      -0.078   5.874   0.033  0.00  0.00    -0.205 F 
ENDBRANCH  21  24
ENDBRANCH   5  21
TORSDOF 3
