REMARK  Name = ZINC36552676
REMARK  9 active torsions:
REMARK  status: ('A' for Active; 'I' for Inactive)
REMARK    1  A    between atoms: C_4  and  C_7
REMARK    2  A    between atoms: N_9  and  C_10
REMARK    3  A    between atoms: C_10  and  C_11
REMARK    4  A    between atoms: N_13  and  C_14
REMARK    5  A    between atoms: N_13  and  C_21
REMARK    6  A    between atoms: C_21  and  C_23
REMARK    7  A    between atoms: C_21  and  C_30
REMARK    8  A    between atoms: C_26  and  O_29
REMARK    9  A    between atoms: N_32  and  C_33
REMARK                            x       y       z     vdW  Elec       q    Type
REMARK                         _______ _______ _______ _____ _____    ______ ____
ROOT
ATOM      1  C   UNL     1       4.414  -4.659  -0.470  0.00  0.00    +0.238 C 
ATOM      2  O   UNL     1       3.867  -5.234  -1.387  0.00  0.00    -0.274 OA
ATOM      3  N   UNL     1       5.475  -5.222   0.141  0.00  0.00    -0.254 N 
ENDROOT
BRANCH   3   4
ATOM      4  C   UNL     1       6.018  -4.630   1.287  0.00  0.00    +0.039 A 
ATOM      5  C   UNL     1       6.738  -3.446   1.184  0.00  0.00    +0.023 A 
ATOM      6  C   UNL     1       7.272  -2.864   2.317  0.00  0.00    +0.003 A 
ATOM      7  C   UNL     1       7.092  -3.457   3.553  0.00  0.00    +0.020 A 
ATOM      8  C   UNL     1       6.375  -4.636   3.659  0.00  0.00    +0.043 A 
ATOM      9  C   UNL     1       5.833  -5.221   2.530  0.00  0.00    +0.043 A 
ATOM     10 CL   UNL     1       6.151  -5.378   5.213  0.00  0.00    -0.083 Cl
ENDBRANCH   3   4
BRANCH   1  11
ATOM     11  C   UNL     1       3.908  -3.314  -0.015  0.00  0.00    +0.201 C 
BRANCH  11  14
ATOM     12  C   UNL     1       2.177  -1.720  -0.645  0.00  0.00    +0.244 C 
ATOM     13  O   UNL     1       2.549  -1.002   0.263  0.00  0.00    -0.270 OA
ATOM     14  N   UNL     1       2.792  -2.898  -0.867  0.00  0.00    -0.303 N 
ATOM     15  H   UNL     1       2.495  -3.471  -1.592  0.00  0.00    +0.150 HD
BRANCH  12  19
ATOM     16  C   UNL     1      -1.059  -0.513  -3.118  0.00  0.00    +0.000 A 
ATOM     17  C   UNL     1      -0.638   0.306  -2.085  0.00  0.00    +0.001 A 
ATOM     18  C   UNL     1       0.412  -0.080  -1.278  0.00  0.00    +0.013 A 
ATOM     19  C   UNL     1       1.051  -1.300  -1.506  0.00  0.00    +0.037 A 
ATOM     20  C   UNL     1       0.622  -2.121  -2.549  0.00  0.00    +0.013 A 
ATOM     21  C   UNL     1      -0.430  -1.723  -3.349  0.00  0.00    +0.001 A 
ENDBRANCH  12  19
ENDBRANCH  11  14
ENDBRANCH   1  11
BRANCH   3  22
ATOM     22  C   UNL     1       6.060  -6.454  -0.393  0.00  0.00    +0.197 C 
BRANCH  22  23
ATOM     23  C   UNL     1       7.125  -6.954   0.548  0.00  0.00    -0.018 A 
ATOM     24  C   UNL     1       8.177  -6.129   0.901  0.00  0.00    +0.009 A 
ATOM     25  C   UNL     1       9.155  -6.585   1.763  0.00  0.00    +0.046 A 
ATOM     26  C   UNL     1       9.082  -7.872   2.275  0.00  0.00    +0.117 A 
ATOM     27  C   UNL     1       8.025  -8.698   1.920  0.00  0.00    +0.046 A 
ATOM     28  C   UNL     1       7.047  -8.236   1.061  0.00  0.00    +0.009 A 
BRANCH  26  29
ATOM     29  O   UNL     1      10.043  -8.324   3.123  0.00  0.00    -0.507 OA
ATOM     30  H   UNL     1       9.855  -8.154   4.056  0.00  0.00    +0.292 HD
ENDBRANCH  26  29
ENDBRANCH  22  23
BRANCH  22  31
ATOM     31  C   UNL     1       6.671  -6.176  -1.742  0.00  0.00    +0.239 C 
ATOM     32  O   UNL     1       6.624  -5.058  -2.211  0.00  0.00    -0.273 OA
ATOM     33  N   UNL     1       7.272  -7.169  -2.428  0.00  0.00    -0.311 N 
ATOM     34  H   UNL     1       7.310  -8.063  -2.053  0.00  0.00    +0.149 HD
BRANCH  33  35
ATOM     35  C   UNL     1       7.866  -6.898  -3.739  0.00  0.00    +0.073 C 
ATOM     36  C   UNL     1       6.788  -7.002  -4.819  0.00  0.00    +0.022 C 
ATOM     37  C   UNL     1       7.409  -6.720  -6.189  0.00  0.00    +0.002 C 
ATOM     38  C   UNL     1       8.512  -7.742  -6.469  0.00  0.00    +0.000 C 
ATOM     39  C   UNL     1       9.591  -7.638  -5.389  0.00  0.00    +0.002 C 
ATOM     40  C   UNL     1       8.970  -7.920  -4.020  0.00  0.00    +0.022 C 
ENDBRANCH  33  35
ENDBRANCH  22  31
ENDBRANCH   3  22
TORSDOF 9
