REMARK  Name = ZINC00811355
REMARK  6 active torsions:
REMARK  status: ('A' for Active; 'I' for Inactive)
REMARK    1  A    between atoms: C_4  and  C_7
REMARK    2  A    between atoms: N_9  and  C_10
REMARK    3  A    between atoms: C_10  and  C_21
REMARK    4  A    between atoms: C_11  and  C_12
REMARK    5  A    between atoms: C_15  and  N_18
REMARK    6  A    between atoms: N_23  and  C_24
REMARK                            x       y       z     vdW  Elec       q    Type
REMARK                         _______ _______ _______ _____ _____    ______ ____
ROOT
ATOM      1  C   UNL     1      -2.479   1.037  -0.170  0.00  0.00    +0.097 C 
ATOM      2  C   UNL     1      -2.536  -0.149   0.478  0.00  0.00    +0.036 C 
ENDROOT
BRANCH   2   3
ATOM      3  C   UNL     1      -3.822  -0.644   0.995  0.00  0.00    -0.023 A 
ATOM      4  C   UNL     1      -4.717   0.235   1.612  0.00  0.00    +0.010 A 
ATOM      5  C   UNL     1      -5.922  -0.235   2.088  0.00  0.00    +0.033 A 
ATOM      6  C   UNL     1      -6.242  -1.577   1.967  0.00  0.00    +0.126 A 
ATOM      7  C   UNL     1      -5.359  -2.454   1.362  0.00  0.00    +0.033 A 
ATOM      8  C   UNL     1      -4.153  -1.998   0.876  0.00  0.00    +0.010 A 
BRANCH   6   9
ATOM      9  N   UNL     1      -7.536  -2.075   2.487  0.00  0.00    +0.056 N 
ATOM     10  O   UNL     1      -7.820  -3.254   2.382  0.00  0.00    -0.126 OA
ATOM     11  O   UNL     1      -8.315  -1.305   3.020  0.00  0.00    -0.126 OA
ENDBRANCH   6   9
ENDBRANCH   2   3
BRANCH   1  14
ATOM     12  C   UNL     1      -0.855   1.973  -1.633  0.00  0.00    +0.248 C 
ATOM     13  O   UNL     1      -1.530   1.630  -2.584  0.00  0.00    -0.270 OA
ATOM     14  N   UNL     1      -1.246   1.659  -0.382  0.00  0.00    -0.277 N 
ATOM     15  H   UNL     1      -0.594   1.893   0.473  0.00  0.00    +0.155 HD
BRANCH  12  19
ATOM     16  C   UNL     1       2.726   4.171  -2.250  0.00  0.00    +0.000 A 
ATOM     17  C   UNL     1       1.960   3.783  -3.336  0.00  0.00    +0.001 A 
ATOM     18  C   UNL     1       0.796   3.069  -3.142  0.00  0.00    +0.013 A 
ATOM     19  C   UNL     1       0.391   2.738  -1.848  0.00  0.00    +0.037 A 
ATOM     20  C   UNL     1       1.165   3.138  -0.757  0.00  0.00    +0.013 A 
ATOM     21  C   UNL     1       2.330   3.846  -0.965  0.00  0.00    +0.001 A 
ENDBRANCH  12  19
ENDBRANCH   1  14
BRANCH   1  22
ATOM     22  C   UNL     1      -3.715   1.671  -0.652  0.00  0.00    +0.262 C 
ATOM     23  O   UNL     1      -4.770   1.068  -0.596  0.00  0.00    -0.268 OA
ATOM     24  N   UNL     1      -3.679   2.921  -1.156  0.00  0.00    -0.280 N 
ATOM     25  H   UNL     1      -2.718   3.449  -1.249  0.00  0.00    +0.155 HD
BRANCH  24  26
ATOM     26  C   UNL     1      -4.862   3.546  -1.561  0.00  0.00    +0.048 A 
ATOM     27  C   UNL     1      -5.949   2.782  -1.967  0.00  0.00    +0.024 A 
ATOM     28  C   UNL     1      -7.119   3.402  -2.361  0.00  0.00    +0.002 A 
ATOM     29  C   UNL     1      -7.205   4.782  -2.363  0.00  0.00    +0.001 A 
ATOM     30  C   UNL     1      -6.123   5.546  -1.966  0.00  0.00    +0.017 A 
ATOM     31  C   UNL     1      -4.951   4.932  -1.565  0.00  0.00    +0.039 A 
ATOM     32 BR   UNL     1      -3.472   5.978  -1.023  0.00  0.00    -0.048 Br
ENDBRANCH  24  26
ENDBRANCH   1  22
TORSDOF 6
