REMARK  Name = ZINC50395470
REMARK  5 active torsions:
REMARK  status: ('A' for Active; 'I' for Inactive)
REMARK    1  A    between atoms: C_1  and  C_2
REMARK    2  A    between atoms: C_2  and  C_3
REMARK    3  A    between atoms: C_2  and  N_4
REMARK    4  A    between atoms: C_14  and  N_15
REMARK    5  A    between atoms: N_15  and  C_16
REMARK                            x       y       z     vdW  Elec       q    Type
REMARK                         _______ _______ _______ _____ _____    ______ ____
ROOT
ATOM      1  N   UNL     1       0.663  -0.318   1.339  0.00  0.00    +0.381 N 
ATOM      2  C   UNL     1       0.740  -1.763   1.154  0.00  0.00    -0.077 C 
ATOM      3  C   UNL     1       1.280  -2.494   2.374  0.00  0.00    -0.042 C 
ATOM      4  C   UNL     1       2.740  -2.141   2.634  0.00  0.00    +0.000 C 
ATOM      5  C   UNL     1       2.935  -0.696   3.058  0.00  0.00    +0.000 C 
ATOM      6  C   UNL     1       1.942  -0.221   4.105  0.00  0.00    +0.000 C 
ATOM      7  C   UNL     1       0.508  -0.637   3.801  0.00  0.00    -0.042 C 
ATOM      8  C   UNL     1      -0.026   0.072   2.565  0.00  0.00    -0.077 C 
ATOM      9  C   UNL     1       0.450  -2.154   3.612  0.00  0.00    -0.068 C 
ATOM     10  H   UNL     1       1.586   0.087   1.314  0.00  0.00    -0.081 HD
ENDROOT
BRANCH   1  12
ATOM     11  C   UNL     1      -0.110   1.780   0.315  0.00  0.00    -0.014 C 
ATOM     12  C   UNL     1      -0.078   0.255   0.192  0.00  0.00    -0.075 C 
ATOM     13  C   UNL     1       0.620  -0.136  -1.113  0.00  0.00    -0.014 C 
ENDBRANCH   1  12
BRANCH   9  14
ATOM     14  N   UNL     1      -0.935  -2.602   3.447  0.00  0.00    +0.389 N 
ATOM     15  H   UNL     1      -1.483  -2.302   4.239  0.00  0.00    -0.084 HD
ATOM     16  H   UNL     1      -1.319  -2.204   2.603  0.00  0.00    -0.084 HD
BRANCH  14  17
ATOM     17  C   UNL     1      -0.967  -4.068   3.355  0.00  0.00    +0.016 C 
ATOM     18  C   UNL     1      -2.370  -4.520   2.941  0.00  0.00    -0.005 C 
ATOM     19  C   UNL     1      -2.460  -6.041   3.117  0.00  0.00    +0.018 C 
ATOM     20  C   UNL     1      -2.392  -6.365   4.610  0.00  0.00    +0.104 C 
ATOM     21  N   UNL     1      -1.249  -5.701   5.225  0.00  0.00    -0.317 N 
ATOM     22  C   UNL     1      -0.615  -4.659   4.689  0.00  0.00    +0.199 C 
ATOM     23  O   UNL     1       0.299  -4.163   5.314  0.00  0.00    -0.278 OA
ATOM     24  H   UNL     1      -0.932  -6.038   6.077  0.00  0.00    +0.149 HD
ENDBRANCH  14  17
ENDBRANCH   9  14
TORSDOF 3
