REMARK  Name = ZINC09924092
REMARK  10 active torsions:
REMARK  status: ('A' for Active; 'I' for Inactive)
REMARK    1  A    between atoms: C_1  and  C_2
REMARK    2  A    between atoms: C_2  and  C_4
REMARK    3  A    between atoms: C_2  and  N_11
REMARK    4  A    between atoms: C_12  and  C_14
REMARK    5  A    between atoms: C_14  and  O_15
REMARK    6  A    between atoms: O_15  and  C_16
REMARK    7  A    between atoms: C_16  and  C_18
REMARK    8  A    between atoms: C_21  and  N_27
REMARK    9  A    between atoms: C_22  and  N_24
REMARK   10  A    between atoms: N_27  and  C_28
REMARK                            x       y       z     vdW  Elec       q    Type
REMARK                         _______ _______ _______ _____ _____    ______ ____
ROOT
ATOM      1  O   UNL     1      -0.506   5.235  -2.907  0.00  0.00    -0.452 OA
ENDROOT
BRANCH   1   2
ATOM      2  C   UNL     1      -1.125   5.695  -4.012  0.00  0.00    +0.340 C 
ATOM      3  O   UNL     1      -1.955   5.009  -4.574  0.00  0.00    -0.245 OA
BRANCH   2   4
ATOM      4  C   UNL     1      -0.794   7.031  -4.540  0.00  0.00    +0.061 A 
ATOM      5  C   UNL     1       0.158   7.825  -3.891  0.00  0.00    +0.017 A 
ATOM      6  C   UNL     1       0.469   9.060  -4.384  0.00  0.00    +0.026 A 
ATOM      7  C   UNL     1      -0.168   9.539  -5.526  0.00  0.00    +0.058 A 
ATOM      8  C   UNL     1      -1.121   8.758  -6.175  0.00  0.00    +0.148 A 
ATOM      9  C   UNL     1      -1.434   7.510  -5.687  0.00  0.00    +0.049 A 
BRANCH   8  10
ATOM     10  N   UNL     1      -1.795   9.270  -7.389  0.00  0.00    +0.058 N 
ATOM     11  O   UNL     1      -2.544   8.546  -8.021  0.00  0.00    -0.126 OA
ATOM     12  O   UNL     1      -1.601  10.415  -7.757  0.00  0.00    -0.126 OA
ENDBRANCH   8  10
BRANCH   7  13
ATOM     13  N   UNL     1       0.149  10.800  -6.019  0.00  0.00    -0.345 N 
ATOM     14  C   UNL     1       1.239  11.570  -5.415  0.00  0.00    +0.125 C 
ATOM     15  H   UNL     1      -0.352  11.169  -6.764  0.00  0.00    +0.146 HD
ENDBRANCH   7  13
ENDBRANCH   2   4
ENDBRANCH   1   2
BRANCH   1  16
ATOM     16  C   UNL     1      -0.882   3.911  -2.444  0.00  0.00    +0.328 C 
BRANCH  16  18
ATOM     17  N   UNL     1      -0.277   2.381  -0.598  0.00  0.00    -0.306 N 
ATOM     18  C   UNL     1      -0.093   3.569  -1.207  0.00  0.00    +0.251 C 
ATOM     19  O   UNL     1       0.707   4.363  -0.759  0.00  0.00    -0.272 OA
ATOM     20  H   UNL     1      -0.917   1.746  -0.956  0.00  0.00    +0.149 HD
BRANCH  17  22
ATOM     21  C   UNL     1      -0.216   2.622   1.835  0.00  0.00    +0.033 C 
ATOM     22  C   UNL     1       0.490   2.048   0.606  0.00  0.00    +0.100 C 
BRANCH  22  23
ATOM     23  C   UNL     1       0.592   0.550   0.738  0.00  0.00    -0.027 A 
ATOM     24  C   UNL     1      -0.501  -0.245   0.446  0.00  0.00    +0.006 A 
ATOM     25  C   UNL     1      -0.406  -1.619   0.563  0.00  0.00    +0.015 A 
ATOM     26  C   UNL     1       0.778  -2.198   0.982  0.00  0.00    +0.018 A 
ATOM     27  C   UNL     1       1.869  -1.401   1.279  0.00  0.00    +0.015 A 
ATOM     28  C   UNL     1       1.776  -0.027   1.157  0.00  0.00    +0.006 A 
ATOM     29 BR   UNL     1       0.906  -4.077   1.149  0.00  0.00    -0.050 Br
ENDBRANCH  22  23
ENDBRANCH  17  22
ENDBRANCH  16  18
ENDBRANCH   1  16
TORSDOF 8
