REMARK  Name = ZINC13282983
REMARK  8 active torsions:
REMARK  status: ('A' for Active; 'I' for Inactive)
REMARK    1  A    between atoms: C_1  and  C_2
REMARK    2  A    between atoms: C_4  and  C_33
REMARK    3  A    between atoms: N_8  and  S_9
REMARK    4  A    between atoms: S_9  and  C_12
REMARK    5  A    between atoms: C_15  and  N_18
REMARK    6  A    between atoms: C_19  and  C_21
REMARK    7  A    between atoms: C_25  and  C_32
REMARK    8  A    between atoms: C_28  and  C_31
REMARK                            x       y       z     vdW  Elec       q    Type
REMARK                         _______ _______ _______ _____ _____    ______ ____
ROOT
ATOM      1  C   UNL     1      -6.947  -5.359   0.354  0.00  0.00    +0.109 A 
ATOM      2  C   UNL     1      -6.705  -4.186  -0.336  0.00  0.00    +0.030 A 
ATOM      3  C   UNL     1      -5.416  -3.704  -0.452  0.00  0.00    +0.025 A 
ATOM      4  C   UNL     1      -4.362  -4.399   0.126  0.00  0.00    +0.034 A 
ATOM      5  C   UNL     1      -4.607  -5.580   0.813  0.00  0.00    +0.025 A 
ATOM      6  C   UNL     1      -5.899  -6.054   0.930  0.00  0.00    +0.030 A 
ENDROOT
BRANCH   4   7
ATOM      7  N   UNL     1      -3.055  -3.913   0.010  0.00  0.00    -0.285 N 
ATOM      8  C   UNL     1      -2.826  -2.585   0.017  0.00  0.00    +0.223 C 
ATOM      9  O   UNL     1      -3.758  -1.810   0.038  0.00  0.00    -0.275 OA
ATOM     10  H   UNL     1      -2.313  -4.533  -0.075  0.00  0.00    +0.155 HD
BRANCH   8  11
ATOM     11  C   UNL     1      -1.413  -2.064  -0.002  0.00  0.00    +0.049 C 
ATOM     12  C   UNL     1      -0.664  -2.574   1.231  0.00  0.00    +0.019 C 
ATOM     13  C   UNL     1       0.771  -2.044   1.211  0.00  0.00    -0.009 C 
ATOM     14  C   UNL     1       0.751  -0.514   1.224  0.00  0.00    +0.010 C 
ATOM     15  C   UNL     1       0.002  -0.004  -0.010  0.00  0.00    -0.030 C 
ATOM     16  C   UNL     1      -1.433  -0.534   0.010  0.00  0.00    +0.023 C 
ATOM     17  C   UNL     1       0.710  -0.495  -1.275  0.00  0.00    +0.013 C 
ATOM     18  C   UNL     1       0.730  -2.025  -1.287  0.00  0.00    -0.030 C 
ATOM     19  C   UNL     1       1.479  -2.534  -0.054  0.00  0.00    +0.010 C 
ATOM     20  C   UNL     1      -0.705  -2.554  -1.267  0.00  0.00    +0.023 C 
ATOM     21  C   UNL     1       1.437  -2.515  -2.552  0.00  0.00    +0.011 C 
ATOM     22  C   UNL     1      -0.018   1.526   0.003  0.00  0.00    +0.011 C 
ENDBRANCH   8  11
ENDBRANCH   4   7
BRANCH   1  23
ATOM     23  S   UNL     1      -8.593  -5.971   0.500  0.00  0.00    +0.075 S 
ATOM     24  O   UNL     1      -8.619  -6.796   1.657  0.00  0.00    -0.150 OA
ATOM     25  O   UNL     1      -9.457  -4.854   0.341  0.00  0.00    -0.150 OA
BRANCH  23  33
ATOM     26  C   UNL     1      -5.090  -9.609   0.526  0.00  0.00    +0.066 C 
ATOM     27  C   UNL     1      -6.332  -9.420  -0.307  0.00  0.00    +0.044 A 
ATOM     28  C   UNL     1      -6.741 -10.406  -1.191  0.00  0.00    +0.046 A 
ATOM     29  C   UNL     1      -7.889 -10.193  -1.937  0.00  0.00    +0.044 A 
ATOM     30  N   UNL     1      -8.557  -9.061  -1.785  0.00  0.00    -0.219 NA
ATOM     31  C   UNL     1      -8.139  -8.138  -0.931  0.00  0.00    +0.235 A 
ATOM     32  N   UNL     1      -7.043  -8.309  -0.207  0.00  0.00    -0.219 NA
ATOM     33  N   UNL     1      -8.862  -6.966  -0.797  0.00  0.00    -0.184 N 
ATOM     34  C   UNL     1      -8.371 -11.238  -2.910  0.00  0.00    +0.066 C 
ATOM     35  H   UNL     1      -9.526  -6.726  -1.462  0.00  0.00    +0.177 HD
ENDBRANCH  23  33
ENDBRANCH   1  23
TORSDOF 4
