REMARK  Name = ZINC39154604
REMARK  10 active torsions:
REMARK  status: ('A' for Active; 'I' for Inactive)
REMARK    1  A    between atoms: C_1  and  C_2
REMARK    2  A    between atoms: C_2  and  O_3
REMARK    3  A    between atoms: O_3  and  C_4
REMARK    4  A    between atoms: C_4  and  C_6
REMARK    5  A    between atoms: C_8  and  N_15
REMARK    6  A    between atoms: C_11  and  C_14
REMARK    7  A    between atoms: C_12  and  C_13
REMARK    8  A    between atoms: C_16  and  C_18
REMARK    9  A    between atoms: C_18  and  S_19
REMARK   10  A    between atoms: S_19  and  C_20
REMARK                            x       y       z     vdW  Elec       q    Type
REMARK                         _______ _______ _______ _____ _____    ______ ____
ROOT
ATOM      1  N   UNL     1       2.691  -4.467  -3.056  0.00  0.00    -0.301 N 
ATOM      2  C   UNL     1       3.359  -5.446  -2.414  0.00  0.00    +0.224 C 
ATOM      3  O   UNL     1       2.954  -5.859  -1.348  0.00  0.00    -0.275 OA
ATOM      4  H   UNL     1       3.015  -4.137  -3.908  0.00  0.00    +0.150 HD
ENDROOT
BRANCH   1   6
ATOM      5  C   UNL     1       1.468  -2.353  -2.550  0.00  0.00    +0.155 C 
ATOM      6  C   UNL     1       1.475  -3.903  -2.466  0.00  0.00    +0.153 C 
ATOM      7  S   UNL     1      -0.006  -4.250  -3.505  0.00  0.00    -0.106 S 
ATOM      8  C   UNL     1      -0.059  -2.716  -4.414  0.00  0.00    -0.016 C 
ATOM      9  C   UNL     1       0.752  -1.895  -3.779  0.00  0.00    -0.047 C 
ATOM     10  C   UNL     1       0.957  -0.493  -4.294  0.00  0.00    +0.041 C 
ATOM     11  C   UNL     1      -0.865  -2.421  -5.652  0.00  0.00    +0.051 C 
BRANCH   5  12
ATOM     12  C   UNL     1       0.775  -1.794  -1.334  0.00  0.00    +0.317 C 
ATOM     13  O   UNL     1       0.314  -2.540  -0.504  0.00  0.00    -0.250 OA
BRANCH  12  14
ATOM     14  O   UNL     1       0.671  -0.465  -1.174  0.00  0.00    -0.464 OA
BRANCH  14  16
ATOM     15  C   UNL     1      -0.019   1.526   0.010  0.00  0.00    +0.048 C 
ATOM     16  C   UNL     1       0.002  -0.004   0.002  0.00  0.00    +0.229 C 
ENDBRANCH  14  16
ENDBRANCH  12  14
ENDBRANCH   5  12
ENDBRANCH   1   6
BRANCH   2  17
ATOM     17  C   UNL     1       4.611  -6.027  -3.021  0.00  0.00    +0.173 C 
BRANCH  17  18
ATOM     18  S   UNL     1       5.272  -7.314  -1.927  0.00  0.00    -0.075 S 
BRANCH  18  19
ATOM     19  C   UNL     1       6.713  -7.886  -2.765  0.00  0.00    +0.208 C 
ATOM     20  N   UNL     1       7.022  -7.332  -3.912  0.00  0.00    -0.227 NA
ATOM     21  C   UNL     1       8.172  -7.866  -4.637  0.00  0.00    +0.252 C 
ATOM     22  C   UNL     1       9.115  -8.434  -3.586  0.00  0.00    +0.117 C 
ATOM     23  C   UNL     1      10.343  -7.927  -3.884  0.00  0.00    +0.025 A 
ATOM     24  C   UNL     1      11.630  -8.170  -3.343  0.00  0.00    +0.012 A 
ATOM     25  C   UNL     1      12.671  -7.471  -3.868  0.00  0.00    +0.001 A 
ATOM     26  C   UNL     1      12.550  -6.535  -4.900  0.00  0.00    +0.002 A 
ATOM     27  C   UNL     1      11.368  -6.228  -5.498  0.00  0.00    +0.026 A 
ATOM     28  C   UNL     1      10.182  -6.943  -4.999  0.00  0.00    +0.046 A 
ATOM     29  N   UNL     1       8.942  -6.877  -5.379  0.00  0.00    -0.358 N 
ATOM     30  N   UNL     1       8.653  -9.147  -2.554  0.00  0.00    -0.147 NA
ATOM     31  N   UNL     1       7.441  -8.871  -2.183  0.00  0.00    -0.122 NA
ATOM     32  H   UNL     1       8.588  -6.270  -6.047  0.00  0.00    +0.162 HD
ENDBRANCH  18  19
ENDBRANCH  17  18
ENDBRANCH   2  17
TORSDOF 7
