REMARK  Name = ZINC06448191
REMARK  6 active torsions:
REMARK  status: ('A' for Active; 'I' for Inactive)
REMARK    1  A    between atoms: C_6  and  C_7
REMARK    2  A    between atoms: C_7  and  N_8
REMARK    3  A    between atoms: C_11  and  C_12
REMARK    4  A    between atoms: N_13  and  C_14
REMARK    5  A    between atoms: C_20  and  N_47
REMARK    6  A    between atoms: C_25  and  O_26
REMARK                            x       y       z     vdW  Elec       q    Type
REMARK                         _______ _______ _______ _____ _____    ______ ____
ROOT
ATOM      1  N   UNL     1      -3.473   2.352  -0.099  0.00  0.00    -0.223 N 
ATOM      2  C   UNL     1      -2.477   1.445  -0.015  0.00  0.00    +0.241 C 
ATOM      3  O   UNL     1      -2.717   0.257   0.103  0.00  0.00    -0.274 OA
ATOM      4  C   UNL     1      -1.091   1.938  -0.071  0.00  0.00    +0.204 C 
ATOM      5  C   UNL     1      -0.905   3.397  -0.210  0.00  0.00    +0.257 C 
ATOM      6  O   UNL     1       0.212   3.882  -0.259  0.00  0.00    -0.272 OA
ATOM      7  N   UNL     1      -1.998   4.175  -0.286  0.00  0.00    -0.130 NA
ATOM      8  C   UNL     1      -3.208   3.678  -0.230  0.00  0.00    +0.281 C 
ENDROOT
BRANCH   4   9
ATOM      9  C   UNL     1      -0.013   1.076   0.008  0.00  0.00    +0.100 C 
ATOM     10  N   UNL     1       1.238   1.543  -0.175  0.00  0.00    -0.293 NA
BRANCH  10  11
ATOM     11  C   UNL     1       2.386   0.646  -0.014  0.00  0.00    +0.090 C 
ATOM     12  C   UNL     1       2.633  -0.106  -1.323  0.00  0.00    +0.025 C 
ATOM     13  C   UNL     1       3.831  -1.042  -1.155  0.00  0.00    +0.002 C 
ATOM     14  C   UNL     1       5.072  -0.223  -0.796  0.00  0.00    -0.001 C 
ATOM     15  C   UNL     1       4.825   0.529   0.514  0.00  0.00    -0.014 C 
ATOM     16  C   UNL     1       3.627   1.466   0.345  0.00  0.00    -0.050 C 
BRANCH  16  19
ATOM     17  H   UNL     1       4.196   2.737   1.862  0.00  0.00    -0.090 HD
ATOM     18  H   UNL     1       2.565   2.765   1.538  0.00  0.00    -0.090 HD
ATOM     19  N   UNL     1       3.386   2.168   1.618  0.00  0.00    +0.381 N 
ATOM     20  H   UNL     1       3.227   1.477   2.361  0.00  0.00    -0.090 HD
ENDBRANCH  16  19
ENDBRANCH  10  11
ENDBRANCH   4   9
BRANCH   8  21
ATOM     21  O   UNL     1      -4.249   4.529  -0.307  0.00  0.00    -0.483 OA
ATOM     22  H   UNL     1      -4.041   5.469  -0.401  0.00  0.00    +0.295 HD
ENDBRANCH   8  21
BRANCH   1  23
ATOM     23  C   UNL     1      -4.865   1.899  -0.046  0.00  0.00    +0.153 C 
BRANCH  23  29
ATOM     24  C   UNL     1      -5.182   0.740   2.150  0.00  0.00    +0.008 A 
ATOM     25  C   UNL     1      -5.607   0.726   3.465  0.00  0.00    +0.038 A 
ATOM     26  C   UNL     1      -6.196   1.852   4.013  0.00  0.00    +0.123 A 
ATOM     27  C   UNL     1      -6.354   2.994   3.246  0.00  0.00    +0.038 A 
ATOM     28  C   UNL     1      -5.923   3.008   1.933  0.00  0.00    +0.008 A 
ATOM     29  C   UNL     1      -5.335   1.883   1.386  0.00  0.00    -0.029 A 
ATOM     30  F   UNL     1      -6.618   1.837   5.297  0.00  0.00    -0.205 F 
ENDBRANCH  23  29
ENDBRANCH   1  23
TORSDOF 6
