REMARK  Name = ZINC37152266
REMARK  7 active torsions:
REMARK  status: ('A' for Active; 'I' for Inactive)
REMARK    1  A    between atoms: C_1  and  C_2
REMARK    2  A    between atoms: C_6  and  C_21
REMARK    3  A    between atoms: C_8  and  N_11
REMARK    4  A    between atoms: N_11  and  C_12
REMARK    5  A    between atoms: C_15  and  C_18
REMARK    6  A    between atoms: C_21  and  C_22
REMARK    7  A    between atoms: C_21  and  C_23
REMARK                            x       y       z     vdW  Elec       q    Type
REMARK                         _______ _______ _______ _____ _____    ______ ____
ROOT
ATOM      1  N   UNL     1       1.494  -2.543   2.420  0.00  0.00    +0.383 N 
ATOM      2  H   UNL     1       1.034  -2.228   3.261  0.00  0.00    -0.085 HD
ATOM      3  H   UNL     1       1.510  -3.552   2.403  0.00  0.00    -0.085 HD
ENDROOT
BRANCH   1   9
ATOM      4  C   UNL     1      -0.285   1.515   0.218  0.00  0.00    +0.007 C 
ATOM      5  C   UNL     1      -0.141  -0.005   0.121  0.00  0.00    -0.016 C 
ATOM      6  C   UNL     1      -1.528  -0.647   0.074  0.00  0.00    +0.003 C 
ATOM      7  C   UNL     1      -1.384  -2.167  -0.023  0.00  0.00    +0.002 C 
ATOM      8  C   UNL     1      -0.624  -2.687   1.199  0.00  0.00    -0.022 C 
ATOM      9  C   UNL     1       0.764  -2.045   1.247  0.00  0.00    -0.068 C 
ATOM     10  C   UNL     1       0.620  -0.524   1.343  0.00  0.00    -0.012 C 
BRANCH   8  11
ATOM     11  C   UNL     1      -0.480  -4.207   1.102  0.00  0.00    -0.016 C 
ATOM     12  C   UNL     1      -1.864  -4.856   1.172  0.00  0.00    +0.007 C 
ATOM     13  C   UNL     1       0.188  -4.572  -0.225  0.00  0.00    +0.007 C 
ENDBRANCH   8  11
ENDBRANCH   1   9
BRANCH   1  14
ATOM     14  C   UNL     1       2.871  -2.031   2.394  0.00  0.00    -0.071 C 
ATOM     15  C   UNL     1       3.607  -2.609   1.183  0.00  0.00    -0.015 C 
ATOM     16  C   UNL     1       5.041  -2.076   1.156  0.00  0.00    +0.011 C 
ATOM     17  C   UNL     1       5.764  -2.492   2.439  0.00  0.00    +0.075 C 
ATOM     18  C   UNL     1       5.028  -1.914   3.649  0.00  0.00    +0.011 C 
ATOM     19  C   UNL     1       3.594  -2.447   3.677  0.00  0.00    -0.015 C 
BRANCH  17  20
ATOM     20  C   UNL     1       7.176  -1.967   2.412  0.00  0.00    +0.214 C 
ATOM     21  O   UNL     1       7.566  -1.324   1.461  0.00  0.00    -0.276 OA
ATOM     22  N   UNL     1       8.006  -2.212   3.446  0.00  0.00    -0.329 N 
ATOM     23  H   UNL     1       7.694  -2.727   4.207  0.00  0.00    +0.145 HD
ATOM     24  H   UNL     1       8.915  -1.874   3.428  0.00  0.00    +0.145 HD
ENDBRANCH  17  20
ENDBRANCH   1  14
TORSDOF 4
