REMARK  Name = ZINC23827551
REMARK  8 active torsions:
REMARK  status: ('A' for Active; 'I' for Inactive)
REMARK    1  A    between atoms: C_1  and  C_2
REMARK    2  A    between atoms: C_2  and  C_4
REMARK    3  A    between atoms: C_2  and  N_17
REMARK    4  A    between atoms: N_6  and  C_7
REMARK    5  A    between atoms: C_10  and  S_13
REMARK    6  A    between atoms: S_13  and  N_16
REMARK    7  A    between atoms: N_20  and  S_23
REMARK    8  A    between atoms: S_23  and  C_26
REMARK                            x       y       z     vdW  Elec       q    Type
REMARK                         _______ _______ _______ _____ _____    ______ ____
ROOT
ATOM      1  C   UNL     1       2.137   0.112  -5.721  0.00  0.00    -0.004 C 
ATOM      2  C   UNL     1       3.574  -0.413  -5.686  0.00  0.00    +0.017 C 
ENDROOT
BRANCH   2   3
ATOM      3  N   UNL     1       3.968  -0.669  -4.294  0.00  0.00    +0.389 N 
ATOM      4  C   UNL     1       4.011   0.579  -3.521  0.00  0.00    -0.060 C 
ATOM      5  C   UNL     1       4.597   0.297  -2.133  0.00  0.00    +0.091 C 
ATOM      6  N   UNL     1       3.827  -0.792  -1.513  0.00  0.00    -0.180 NA
ATOM      7  C   UNL     1       3.630  -2.030  -2.283  0.00  0.00    +0.091 C 
ATOM      8  C   UNL     1       3.076  -1.654  -3.667  0.00  0.00    -0.060 C 
ATOM      9  H   UNL     1       4.983  -1.093  -4.301  0.00  0.00    -0.081 HD
BRANCH   6  10
ATOM     10  S   UNL     1       3.205  -0.632   0.013  0.00  0.00    +0.067 S 
ATOM     11  O   UNL     1       3.997   0.346   0.673  0.00  0.00    -0.152 OA
ATOM     12  O   UNL     1       3.038  -1.948   0.523  0.00  0.00    -0.152 OA
BRANCH  10  13
ATOM     13  C   UNL     1       1.591   0.054  -0.151  0.00  0.00    +0.144 A 
ATOM     14  C   UNL     1       0.404  -0.583  -0.295  0.00  0.00    +0.038 A 
ATOM     15  C   UNL     1      -0.752   0.168  -0.408  0.00  0.00    +0.030 A 
ATOM     16  C   UNL     1      -0.662   1.521  -0.373  0.00  0.00    +0.080 A 
ATOM     17  S   UNL     1       1.095   1.769  -0.174  0.00  0.00    -0.057 S 
ATOM     18 CL   UNL     1      -1.926   2.705  -0.496  0.00  0.00    -0.076 Cl
ENDBRANCH  10  13
ENDBRANCH   6  10
ENDBRANCH   2   3
BRANCH   2  19
ATOM     19  C   UNL     1       3.660  -1.694  -6.476  0.00  0.00    +0.203 C 
ATOM     20  O   UNL     1       4.015  -2.719  -5.932  0.00  0.00    -0.277 OA
ATOM     21  N   UNL     1       3.343  -1.700  -7.785  0.00  0.00    -0.287 N 
ATOM     22  H   UNL     1       2.939  -0.792  -8.258  0.00  0.00    +0.155 HD
BRANCH  21  23
ATOM     23  C   UNL     1       3.527  -2.861  -8.544  0.00  0.00    +0.033 A 
ATOM     24  C   UNL     1       4.583  -3.717  -8.260  0.00  0.00    +0.025 A 
ATOM     25  C   UNL     1       4.758  -4.866  -9.007  0.00  0.00    +0.030 A 
ATOM     26  C   UNL     1       3.892  -5.157 -10.045  0.00  0.00    +0.105 A 
ATOM     27  C   UNL     1       2.844  -4.303 -10.334  0.00  0.00    +0.030 A 
ATOM     28  C   UNL     1       2.659  -3.156  -9.587  0.00  0.00    +0.025 A 
BRANCH  26  29
ATOM     29  S   UNL     1       4.124  -6.619 -11.000  0.00  0.00    +0.056 S 
ATOM     30  O   UNL     1       4.849  -7.527 -10.183  0.00  0.00    -0.153 OA
ATOM     31  O   UNL     1       2.860  -6.942 -11.562  0.00  0.00    -0.153 OA
BRANCH  29  32
ATOM     32  N   UNL     1       5.117  -6.225 -12.265  0.00  0.00    -0.204 NA
ATOM     33  H   UNL     1       5.287  -7.115 -12.889  0.00  0.00    +0.144 HD
ATOM     34  H   UNL     1       6.079  -5.860 -11.877  0.00  0.00    +0.144 HD
ENDBRANCH  29  32
ENDBRANCH  26  29
ENDBRANCH  21  23
ENDBRANCH   2  19
TORSDOF 7
