REMARK  Name = ZINC66318762
REMARK  8 active torsions:
REMARK  status: ('A' for Active; 'I' for Inactive)
REMARK    1  A    between atoms: C_1  and  C_2
REMARK    2  A    between atoms: C_2  and  C_4
REMARK    3  A    between atoms: C_2  and  C_21
REMARK    4  A    between atoms: C_4  and  N_5
REMARK    5  A    between atoms: C_6  and  C_8
REMARK    6  A    between atoms: C_15  and  S_17
REMARK    7  A    between atoms: S_17  and  C_20
REMARK    8  A    between atoms: C_21  and  N_22
REMARK                            x       y       z     vdW  Elec       q    Type
REMARK                         _______ _______ _______ _____ _____    ______ ____
ROOT
ATOM      1  N   UNL     1       2.149  -0.128  -1.046  0.00  0.00    -0.310 N 
ATOM      2  C   UNL     1       3.003  -0.514  -2.014  0.00  0.00    +0.265 C 
ATOM      3  O   UNL     1       2.611  -1.219  -2.926  0.00  0.00    -0.268 OA
ATOM      4  H   UNL     1       2.461   0.434  -0.320  0.00  0.00    +0.149 HD
ENDROOT
BRANCH   2   5
ATOM      5  C   UNL     1       4.401  -0.085  -1.970  0.00  0.00    +0.153 A 
ATOM      6  C   UNL     1       5.399  -0.399  -2.902  0.00  0.00    +0.080 A 
ATOM      7  C   UNL     1       5.415  -1.154  -4.083  0.00  0.00    +0.028 A 
ATOM      8  C   UNL     1       6.580  -1.270  -4.782  0.00  0.00    +0.004 A 
ATOM      9  C   UNL     1       7.738  -0.634  -4.309  0.00  0.00    +0.018 A 
ATOM     10  C   UNL     1       7.704   0.089  -3.169  0.00  0.00    +0.094 A 
ATOM     11  N   UNL     1       6.545   0.214  -2.460  0.00  0.00    -0.284 N 
ATOM     12  C   UNL     1       6.232   0.867  -1.306  0.00  0.00    +0.256 A 
ATOM     13  N   UNL     1       4.972   0.693  -1.027  0.00  0.00    -0.206 NA
BRANCH  12  14
ATOM     14  S   UNL     1       7.361   1.812  -0.338  0.00  0.00    +0.028 S 
ATOM     15  O   UNL     1       6.832   1.772   0.980  0.00  0.00    -0.167 OA
ATOM     16  O   UNL     1       8.637   1.256  -0.624  0.00  0.00    -0.167 OA
ATOM     17  C   UNL     1       7.250   3.496  -1.005  0.00  0.00    +0.204 C 
ENDBRANCH  12  14
ENDBRANCH   2   5
BRANCH   1  18
ATOM     18  C   UNL     1       0.749  -0.557  -1.090  0.00  0.00    +0.106 C 
BRANCH  18  20
ATOM     19  C   UNL     1      -0.040   1.540   0.015  0.00  0.00    +0.007 C 
ATOM     20  C   UNL     1       0.002   0.014   0.117  0.00  0.00    -0.014 C 
BRANCH  20  21
ATOM     21  C   UNL     1      -1.427  -0.534   0.139  0.00  0.00    -0.074 C 
BRANCH  21  22
ATOM     22  N   UNL     1      -1.391  -1.984   0.371  0.00  0.00    +0.380 N 
ATOM     23  C   UNL     1      -0.938  -2.270   1.756  0.00  0.00    -0.079 C 
ATOM     24  C   UNL     1      -1.480  -3.698   2.019  0.00  0.00    -0.020 C 
ATOM     25  C   UNL     1      -2.851  -3.684   1.306  0.00  0.00    -0.020 C 
ATOM     26  C   UNL     1      -2.753  -2.551   0.266  0.00  0.00    -0.079 C 
ATOM     27  H   UNL     1      -0.777  -2.429  -0.296  0.00  0.00    -0.082 HD
ENDBRANCH  21  22
ENDBRANCH  20  21
ENDBRANCH  18  20
ENDBRANCH   1  18
TORSDOF 6
