REMARK  Name = ZINC45569095
REMARK  6 active torsions:
REMARK  status: ('A' for Active; 'I' for Inactive)
REMARK    1  A    between atoms: C_1  and  C_2
REMARK    2  A    between atoms: C_5  and  C_7
REMARK    3  A    between atoms: C_10  and  C_12
REMARK    4  A    between atoms: C_13  and  C_14
REMARK    5  A    between atoms: N_16  and  C_17
REMARK    6  A    between atoms: C_26  and  C_29
REMARK                            x       y       z     vdW  Elec       q    Type
REMARK                         _______ _______ _______ _____ _____    ______ ____
ROOT
ATOM      1  C   UNL     1       4.747   4.188   4.839  0.00  0.00    +0.241 C 
ATOM      2  O   UNL     1       5.397   4.599   3.894  0.00  0.00    -0.270 OA
ATOM      3  N   UNL     1       4.957   4.692   6.071  0.00  0.00    -0.282 N 
ATOM      4  H   UNL     1       4.396   4.414   6.811  0.00  0.00    +0.155 HD
ENDROOT
BRANCH   3   5
ATOM      5  C   UNL     1       5.987   5.617   6.283  0.00  0.00    +0.036 A 
ATOM      6  C   UNL     1       6.297   6.547   5.300  0.00  0.00    +0.027 A 
ATOM      7  C   UNL     1       7.313   7.463   5.505  0.00  0.00    +0.049 A 
ATOM      8  C   UNL     1       8.024   7.452   6.692  0.00  0.00    +0.143 A 
ATOM      9  C   UNL     1       7.715   6.519   7.681  0.00  0.00    +0.077 A 
ATOM     10  C   UNL     1       6.694   5.607   7.479  0.00  0.00    +0.050 A 
ATOM     11  N   UNL     1       8.446   6.521   8.878  0.00  0.00    -0.279 N 
ATOM     12  C   UNL     1       9.201   7.599   9.182  0.00  0.00    +0.258 C 
ATOM     13  O   UNL     1       9.865   7.610  10.197  0.00  0.00    -0.271 OA
ATOM     14  C   UNL     1       9.216   8.787   8.255  0.00  0.00    +0.256 C 
ATOM     15  O   UNL     1       9.025   8.348   6.907  0.00  0.00    -0.478 OA
ATOM     16  C   UNL     1       8.091   9.749   8.641  0.00  0.00    +0.062 C 
ATOM     17  H   UNL     1       8.409   5.761   9.479  0.00  0.00    +0.155 HD
ENDBRANCH   3   5
BRANCH   1  19
ATOM     18  C   UNL     1       3.561   2.674   3.403  0.00  0.00    +0.051 C 
ATOM     19  C   UNL     1       3.772   3.181   4.643  0.00  0.00    +0.071 C 
BRANCH  18  23
ATOM     20  C   UNL     1       1.305   0.174   2.230  0.00  0.00    +0.109 A 
ATOM     21  C   UNL     1       0.973   0.163   3.540  0.00  0.00    +0.045 A 
ATOM     22  C   UNL     1       1.782   1.113   4.182  0.00  0.00    +0.049 A 
ATOM     23  C   UNL     1       2.585   1.667   3.207  0.00  0.00    +0.128 A 
ATOM     24  O   UNL     1       2.278   1.075   2.034  0.00  0.00    -0.460 OA
BRANCH  20  28
ATOM     25  C   UNL     1      -0.017   1.544  -0.000  0.00  0.00    +0.008 C 
ATOM     26  C   UNL     1      -0.006   0.014  -0.005  0.00  0.00    -0.003 C 
ATOM     27  C   UNL     1       1.339  -0.682  -0.222  0.00  0.00    +0.015 C 
ATOM     28  C   UNL     1       0.686  -0.691   1.163  0.00  0.00    +0.058 C 
ENDBRANCH  20  28
ENDBRANCH  18  23
ENDBRANCH   1  19
TORSDOF 4
