REMARK  Name = ZINC36537840
REMARK  13 active torsions:
REMARK  status: ('A' for Active; 'I' for Inactive)
REMARK    1  A    between atoms: C_1  and  C_2
REMARK    2  A    between atoms: C_5  and  S_8
REMARK    3  A    between atoms: S_8  and  C_11
REMARK    4  A    between atoms: C_11  and  N_12
REMARK    5  A    between atoms: C_13  and  C_15
REMARK    6  A    between atoms: C_15  and  C_17
REMARK    7  A    between atoms: C_15  and  N_26
REMARK    8  A    between atoms: C_18  and  O_25
REMARK    9  A    between atoms: C_20  and  O_24
REMARK   10  A    between atoms: C_22  and  O_23
REMARK   11  A    between atoms: N_26  and  C_27
REMARK   12  A    between atoms: C_28  and  C_30
REMARK   13  A    between atoms: C_30  and  C_32
REMARK                            x       y       z     vdW  Elec       q    Type
REMARK                         _______ _______ _______ _____ _____    ______ ____
ROOT
ATOM      1  C   UNL     1       4.578  -6.472   4.314  0.00  0.00    +0.199 C 
ENDROOT
BRANCH   1   2
ATOM      2  C   UNL     1       5.000  -5.210   3.606  0.00  0.00    +0.065 A 
ATOM      3  C   UNL     1       4.165  -4.632   2.662  0.00  0.00    +0.129 A 
ATOM      4  C   UNL     1       4.553  -3.470   2.011  0.00  0.00    +0.091 A 
ATOM      5  C   UNL     1       5.777  -2.887   2.305  0.00  0.00    +0.124 A 
ATOM      6  C   UNL     1       6.611  -3.464   3.250  0.00  0.00    +0.091 A 
ATOM      7  C   UNL     1       6.221  -4.623   3.904  0.00  0.00    +0.129 A 
BRANCH   7   8
ATOM      8  O   UNL     1       7.037  -5.187   4.833  0.00  0.00    -0.506 OA
ATOM      9  H   UNL     1       7.659  -5.832   4.471  0.00  0.00    +0.292 HD
ENDBRANCH   7   8
BRANCH   5  10
ATOM     10  O   UNL     1       6.157  -1.749   1.667  0.00  0.00    -0.507 OA
ATOM     11  H   UNL     1       5.885  -0.937   2.115  0.00  0.00    +0.292 HD
ENDBRANCH   5  10
BRANCH   3  12
ATOM     12  O   UNL     1       2.966  -5.204   2.374  0.00  0.00    -0.506 OA
ATOM     13  H   UNL     1       2.250  -4.936   2.966  0.00  0.00    +0.292 HD
ENDBRANCH   3  12
ENDBRANCH   1   2
BRANCH   1  15
ATOM     14  N   UNL     1       6.757  -7.586   4.673  0.00  0.00    -0.294 N 
ATOM     15  C   UNL     1       5.574  -7.565   4.027  0.00  0.00    +0.240 C 
ATOM     16  O   UNL     1       5.312  -8.427   3.215  0.00  0.00    -0.273 OA
ATOM     17  H   UNL     1       6.966  -6.897   5.323  0.00  0.00    +0.150 HD
BRANCH  14  18
ATOM     18  C   UNL     1       7.726  -8.649   4.395  0.00  0.00    +0.278 C 
BRANCH  18  19
ATOM     19  S   UNL     1       8.910  -8.076   3.146  0.00  0.00    +0.013 S 
ATOM     20  O   UNL     1       8.222  -7.467   2.062  0.00  0.00    -0.168 OA
ATOM     21  O   UNL     1       9.894  -9.073   2.911  0.00  0.00    -0.168 OA
BRANCH  19  26
ATOM     22  C   UNL     1      11.901  -3.558   5.800  0.00  0.00    +0.044 C 
ATOM     23  C   UNL     1      11.154  -4.686   5.137  0.00  0.00    -0.050 A 
ATOM     24  C   UNL     1      11.622  -5.982   5.246  0.00  0.00    +0.005 A 
ATOM     25  C   UNL     1      10.936  -7.018   4.638  0.00  0.00    +0.027 A 
ATOM     26  C   UNL     1       9.783  -6.756   3.922  0.00  0.00    +0.090 A 
ATOM     27  C   UNL     1       9.315  -5.460   3.814  0.00  0.00    +0.027 A 
ATOM     28  C   UNL     1       9.998  -4.426   4.426  0.00  0.00    +0.005 A 
ENDBRANCH  19  26
ENDBRANCH  18  19
ENDBRANCH  14  18
ENDBRANCH   1  15
BRANCH   1  29
ATOM     29  N   UNL     1       3.254  -6.880   3.836  0.00  0.00    -0.285 N 
ATOM     30  C   UNL     1       3.109  -7.489   2.512  0.00  0.00    +0.133 C 
ATOM     31  C   UNL     1       2.170  -6.695   4.615  0.00  0.00    +0.242 C 
ATOM     32  O   UNL     1       1.084  -7.106   4.254  0.00  0.00    -0.270 OA
BRANCH  31  33
ATOM     33  C   UNL     1       2.301  -5.995   5.902  0.00  0.00    +0.004 C 
ATOM     34  C   UNL     1       1.828  -6.553   7.013  0.00  0.00    +0.017 C 
ATOM     35  C   UNL     1       2.970  -4.646   5.963  0.00  0.00    +0.048 C 
ENDBRANCH  31  33
ENDBRANCH   1  29
TORSDOF 10
