REMARK  Name = ZINC14269965
REMARK  6 active torsions:
REMARK  status: ('A' for Active; 'I' for Inactive)
REMARK    1  A    between atoms: C_3  and  C_6
REMARK    2  A    between atoms: C_6  and  C_8
REMARK    3  A    between atoms: C_6  and  N_21
REMARK    4  A    between atoms: C_8  and  C_9
REMARK    5  A    between atoms: N_11  and  C_12
REMARK    6  A    between atoms: C_12  and  C_13
REMARK                            x       y       z     vdW  Elec       q    Type
REMARK                         _______ _______ _______ _____ _____    ______ ____
ROOT
ATOM      1  C   UNL     1      -1.482   5.528  -1.377  0.00  0.00    +0.123 C 
ENDROOT
BRANCH   1   2
ATOM      2  C   UNL     1      -1.902   6.975  -1.390  0.00  0.00    +0.215 C 
ATOM      3  O   UNL     1      -1.863   7.627  -0.368  0.00  0.00    -0.276 OA
ATOM      4  N   UNL     1      -2.322   7.545  -2.537  0.00  0.00    -0.311 N 
ATOM      5  H   UNL     1      -2.353   7.024  -3.354  0.00  0.00    +0.149 HD
BRANCH   4   6
ATOM      6  C   UNL     1      -2.731   8.952  -2.549  0.00  0.00    +0.141 C 
BRANCH   6   7
ATOM      7  C   UNL     1      -3.152   9.341  -3.942  0.00  0.00    -0.012 A 
ATOM      8  C   UNL     1      -4.494   9.493  -4.241  0.00  0.00    +0.008 A 
ATOM      9  C   UNL     1      -4.881   9.850  -5.519  0.00  0.00    +0.020 A 
ATOM     10  C   UNL     1      -3.927  10.055  -6.500  0.00  0.00    +0.042 A 
ATOM     11  C   UNL     1      -2.585   9.903  -6.201  0.00  0.00    +0.040 A 
ATOM     12  C   UNL     1      -2.197   9.551  -4.921  0.00  0.00    +0.047 A 
ATOM     13 CL   UNL     1      -0.513   9.366  -4.544  0.00  0.00    -0.083 Cl
ATOM     14 CL   UNL     1      -4.414  10.503  -8.105  0.00  0.00    -0.083 Cl
ENDBRANCH   6   7
ENDBRANCH   4   6
ENDBRANCH   1   2
BRANCH   1  15
ATOM     15  C   UNL     1      -1.054   5.133   0.037  0.00  0.00    +0.120 C 
BRANCH  15  16
ATOM     16  N   UNL     1      -2.208   5.209   0.936  0.00  0.00    -0.292 N 
ATOM     17  C   UNL     1      -2.022   5.407   2.256  0.00  0.00    +0.298 C 
ATOM     18  O   UNL     1      -0.897   5.522   2.701  0.00  0.00    -0.253 OA
ATOM     19  N   UNL     1      -3.084   5.476   3.083  0.00  0.00    -0.313 N 
ATOM     20  H   UNL     1      -3.106   5.118   0.581  0.00  0.00    +0.151 HD
ATOM     21  H   UNL     1      -3.982   5.385   2.728  0.00  0.00    +0.146 HD
ATOM     22  H   UNL     1      -2.951   5.619   4.033  0.00  0.00    +0.146 HD
ENDBRANCH  15  16
BRANCH  15  25
ATOM     23  C   UNL     1       1.029   1.944   0.003  0.00  0.00    +0.008 A 
ATOM     24  C   UNL     1       0.770   3.301   0.012  0.00  0.00    +0.013 A 
ATOM     25  C   UNL     1      -0.518   3.725   0.025  0.00  0.00    +0.010 A 
ATOM     26  S   UNL     1      -1.415   2.181   0.019  0.00  0.00    -0.100 S 
ATOM     27  C   UNL     1      -0.013   1.076   0.008  0.00  0.00    +0.045 A 
ENDBRANCH  15  25
ENDBRANCH   1  15
TORSDOF 6
