REMARK  Name = ZINC04027963
REMARK  4 active torsions:
REMARK  status: ('A' for Active; 'I' for Inactive)
REMARK    1  A    between atoms: C_1  and  C_2
REMARK    2  A    between atoms: N_6  and  O_7
REMARK    3  A    between atoms: C_19  and  C_27
REMARK    4  A    between atoms: N_25  and  O_26
REMARK                            x       y       z     vdW  Elec       q    Type
REMARK                         _______ _______ _______ _____ _____    ______ ____
ROOT
ATOM      1  C   UNL     1      -0.019   1.526   0.010  0.00  0.00    +0.012 C 
ATOM      2  C   UNL     1       0.002  -0.004   0.002  0.00  0.00    -0.025 C 
ATOM      3  C   UNL     1      -1.435  -0.534   0.000  0.00  0.00    +0.013 C 
ATOM      4  C   UNL     1      -2.189   0.025   1.211  0.00  0.00    +0.055 C 
ATOM      5  C   UNL     1      -1.406  -0.320   2.459  0.00  0.00    +0.058 C 
ATOM      6  N   UNL     1      -1.972  -0.898   3.451  0.00  0.00    -0.097 NA
ATOM      7  C   UNL     1       0.062   0.037   2.502  0.00  0.00    +0.058 C 
ATOM      8  C   UNL     1       0.742  -0.511   1.241  0.00  0.00    +0.001 C 
ATOM      9  C   UNL     1       2.192  -0.020   1.216  0.00  0.00    +0.005 C 
ATOM     10  C   UNL     1       2.889  -0.526  -0.047  0.00  0.00    +0.004 C 
ATOM     11  C   UNL     1       2.151   0.010  -1.277  0.00  0.00    -0.003 C 
ATOM     12  C   UNL     1       0.712  -0.498  -1.262  0.00  0.00    -0.001 C 
ATOM     13  C   UNL     1       0.732  -2.031  -1.264  0.00  0.00    +0.005 C 
ATOM     14  C   UNL     1       1.378  -2.502  -2.567  0.00  0.00    +0.013 C 
ATOM     15  C   UNL     1       2.787  -1.974  -2.704  0.00  0.00    +0.012 C 
ATOM     16  C   UNL     1       2.864  -0.460  -2.546  0.00  0.00    +0.004 C 
ATOM     17  C   UNL     1       4.391  -0.282  -2.291  0.00  0.00    +0.010 C 
ATOM     18  C   UNL     1       4.747  -1.487  -1.392  0.00  0.00    +0.055 C 
ATOM     19  C   UNL     1       3.725  -2.534  -1.661  0.00  0.00    +0.064 C 
ATOM     20  N   UNL     1       3.658  -3.688  -1.115  0.00  0.00    -0.096 NA
ATOM     21  C   UNL     1       3.319  -2.342  -4.090  0.00  0.00    +0.018 C 
ENDROOT
BRANCH   6  22
ATOM     22  O   UNL     1      -3.348  -1.224   3.389  0.00  0.00    -0.409 OA
ATOM     23  H   UNL     1      -3.685  -1.658   4.185  0.00  0.00    +0.328 HD
ENDBRANCH   6  22
BRANCH  20  24
ATOM     24  O   UNL     1       4.619  -4.070  -0.147  0.00  0.00    -0.409 OA
ATOM     25  H   UNL     1       4.486  -4.959   0.210  0.00  0.00    +0.328 HD
ENDBRANCH  20  24
TORSDOF 2
