REMARK  Name = ZINC11868529
REMARK  12 active torsions:
REMARK  status: ('A' for Active; 'I' for Inactive)
REMARK    1  A    between atoms: C_1  and  C_2
REMARK    2  A    between atoms: C_2  and  C_3
REMARK    3  A    between atoms: C_2  and  C_4
REMARK    4  A    between atoms: C_4  and  C_5
REMARK    5  A    between atoms: C_5  and  N_6
REMARK    6  A    between atoms: C_7  and  C_9
REMARK    7  A    between atoms: C_10  and  O_30
REMARK    8  A    between atoms: C_20  and  C_21
REMARK    9  A    between atoms: C_20  and  N_67
REMARK   10  A    between atoms: C_21  and  C_29
REMARK   11  A    between atoms: C_22  and  C_23
REMARK   12  A    between atoms: O_30  and  C_31
REMARK                            x       y       z     vdW  Elec       q    Type
REMARK                         _______ _______ _______ _____ _____    ______ ____
ROOT
ATOM      1  C   UNL     1       0.179   0.188   2.715  0.00  0.00    +0.098 A 
ATOM      2  C   UNL     1      -0.417   0.173   4.051  0.00  0.00    +0.139 A 
ATOM      3  C   UNL     1      -1.792   0.252   4.143  0.00  0.00    +0.116 A 
ATOM      4  C   UNL     1      -2.543   0.363   2.972  0.00  0.00    +0.255 A 
ATOM      5  O   UNL     1      -3.760   0.416   3.054  0.00  0.00    -0.268 OA
ATOM      6  N   UNL     1      -1.968   0.414   1.748  0.00  0.00    -0.313 N 
ATOM      7  C   UNL     1      -0.643   0.296   1.601  0.00  0.00    +0.036 A 
ATOM      8  C   UNL     1       0.037   0.269   0.254  0.00  0.00    +0.036 C 
ATOM      9  C   UNL     1      -0.745   1.074  -0.782  0.00  0.00    -0.072 C 
ATOM     10  C   UNL     1      -2.619  -0.420  -0.485  0.00  0.00    -0.056 C 
ATOM     11  C   UNL     1      -2.870   0.617   0.611  0.00  0.00    +0.106 C 
ATOM     12  N   UNL     1      -1.672   0.148  -1.463  0.00  0.00    +0.384 N 
ATOM     13  H   UNL     1      -1.131  -0.615  -1.887  0.00  0.00    -0.081 HD
ENDROOT
BRANCH   1  15
ATOM     14  N   UNL     1       2.202  -1.091   2.220  0.00  0.00    -0.311 N 
ATOM     15  C   UNL     1       1.640   0.088   2.553  0.00  0.00    +0.249 C 
ATOM     16  O   UNL     1       2.338   1.070   2.719  0.00  0.00    -0.270 OA
ATOM     17  H   UNL     1       1.641  -1.855   2.017  0.00  0.00    +0.149 HD
BRANCH  14  18
ATOM     18  C   UNL     1       3.661  -1.217   2.167  0.00  0.00    +0.105 C 
BRANCH  18  19
ATOM     19  C   UNL     1       4.035  -2.646   1.768  0.00  0.00    +0.022 C 
BRANCH  19  21
ATOM     20  C   UNL     1       6.138  -2.585   3.115  0.00  0.00    +0.007 C 
ATOM     21  C   UNL     1       5.558  -2.779   1.712  0.00  0.00    -0.016 C 
ATOM     22  C   UNL     1       5.930  -4.169   1.194  0.00  0.00    +0.007 C 
ENDBRANCH  19  21
ENDBRANCH  18  19
ENDBRANCH  14  18
ENDBRANCH   1  15
BRANCH   2  23
ATOM     23  O   UNL     1       0.354   0.085   5.159  0.00  0.00    -0.494 OA
ATOM     24  C   UNL     1      -0.320   0.077   6.420  0.00  0.00    +0.277 C 
ENDBRANCH   2  23
BRANCH  12  25
ATOM     25  C   UNL     1      -2.411   0.862  -2.527  0.00  0.00    -0.048 C 
BRANCH  25  26
ATOM     26  C   UNL     1      -3.178  -0.143  -3.347  0.00  0.00    -0.089 C 
ATOM     27  C   UNL     1      -4.452  -0.386  -3.076  0.00  0.00    +0.005 C 
ATOM     28  C   UNL     1      -2.495  -0.873  -4.476  0.00  0.00    +0.037 C 
BRANCH  27  29
ATOM     29  C   UNL     1      -5.159  -1.484  -3.769  0.00  0.00    -0.025 A 
ATOM     30  C   UNL     1      -6.473  -1.306  -4.204  0.00  0.00    +0.008 A 
ATOM     31  C   UNL     1      -7.125  -2.332  -4.856  0.00  0.00    +0.001 A 
ATOM     32  C   UNL     1      -6.484  -3.540  -5.067  0.00  0.00    +0.000 A 
ATOM     33  C   UNL     1      -5.184  -3.724  -4.633  0.00  0.00    +0.001 A 
ATOM     34  C   UNL     1      -4.518  -2.704  -3.985  0.00  0.00    +0.008 A 
ENDBRANCH  27  29
ENDBRANCH  25  26
ENDBRANCH  12  25
TORSDOF 8
