REMARK  Name = ZINC28325164
REMARK  10 active torsions:
REMARK  status: ('A' for Active; 'I' for Inactive)
REMARK    1  A    between atoms: C_1  and  C_2
REMARK    2  A    between atoms: C_2  and  C_3
REMARK    3  A    between atoms: C_2  and  C_4
REMARK    4  A    between atoms: C_2  and  N_5
REMARK    5  A    between atoms: N_5  and  S_6
REMARK    6  A    between atoms: S_6  and  C_9
REMARK    7  A    between atoms: C_12  and  C_15
REMARK    8  A    between atoms: N_17  and  C_18
REMARK    9  A    between atoms: C_23  and  S_24
REMARK   10  A    between atoms: S_24  and  C_25
REMARK                            x       y       z     vdW  Elec       q    Type
REMARK                         _______ _______ _______ _____ _____    ______ ____
ROOT
ATOM      1  C   UNL     1      -0.622   1.670   1.714  0.00  0.00    +0.105 A 
ATOM      2  C   UNL     1      -0.153   2.970   1.779  0.00  0.00    +0.029 A 
ATOM      3  C   UNL     1      -0.385   3.735   2.904  0.00  0.00    +0.015 A 
ATOM      4  C   UNL     1      -1.084   3.190   3.982  0.00  0.00    +0.037 A 
ATOM      5  C   UNL     1      -1.550   1.876   3.912  0.00  0.00    +0.015 A 
ATOM      6  C   UNL     1      -1.316   1.124   2.779  0.00  0.00    +0.029 A 
ENDROOT
BRANCH   4   7
ATOM      7  C   UNL     1      -1.332   4.002   5.192  0.00  0.00    +0.248 C 
ATOM      8  O   UNL     1      -1.942   3.525   6.129  0.00  0.00    -0.270 OA
ATOM      9  N   UNL     1      -0.881   5.271   5.256  0.00  0.00    -0.281 N 
ATOM     10  H   UNL     1      -0.404   5.730   4.378  0.00  0.00    +0.155 HD
BRANCH   9  11
ATOM     11  C   UNL     1      -1.021   6.004   6.442  0.00  0.00    +0.047 A 
ATOM     12  C   UNL     1      -1.240   5.348   7.644  0.00  0.00    +0.024 A 
ATOM     13  C   UNL     1      -1.372   6.073   8.813  0.00  0.00    +0.002 A 
ATOM     14  C   UNL     1      -1.296   7.454   8.788  0.00  0.00    +0.001 A 
ATOM     15  C   UNL     1      -1.084   8.117   7.594  0.00  0.00    +0.017 A 
ATOM     16  C   UNL     1      -0.945   7.397   6.416  0.00  0.00    +0.034 A 
BRANCH  16  17
ATOM     17  S   UNL     1      -0.674   8.239   4.892  0.00  0.00    -0.054 S 
BRANCH  17  18
ATOM     18  C   UNL     1      -0.653   9.992   5.357  0.00  0.00    +0.404 C 
ATOM     19  F   UNL     1      -1.878  10.335   5.938  0.00  0.00    -0.197 F 
ATOM     20  F   UNL     1       0.378  10.219   6.275  0.00  0.00    -0.197 F 
ENDBRANCH  17  18
ENDBRANCH  16  17
ENDBRANCH   9  11
ENDBRANCH   4   7
BRANCH   1  21
ATOM     21  S   UNL     1      -0.328   0.703   0.271  0.00  0.00    +0.059 S 
ATOM     22  O   UNL     1      -0.018  -0.610   0.718  0.00  0.00    -0.153 OA
ATOM     23  O   UNL     1       0.555   1.456  -0.550  0.00  0.00    -0.153 OA
BRANCH  21  24
ATOM     24  N   UNL     1      -1.762   0.598  -0.550  0.00  0.00    -0.185 NA
ATOM     25  H   UNL     1      -2.368  -0.316  -0.459  0.00  0.00    +0.149 HD
BRANCH  24  27
ATOM     26  C   UNL     1      -1.368   2.250  -2.309  0.00  0.00    +0.029 C 
ATOM     27  C   UNL     1      -2.319   1.784  -1.206  0.00  0.00    +0.032 C 
ATOM     28  C   UNL     1      -3.679   1.437  -1.817  0.00  0.00    +0.029 C 
ATOM     29  C   UNL     1      -2.493   2.902  -0.176  0.00  0.00    +0.029 C 
ENDBRANCH  24  27
ENDBRANCH  21  24
ENDBRANCH   1  21
TORSDOF 7
