REMARK  Name = ZINC09885631
REMARK  8 active torsions:
REMARK  status: ('A' for Active; 'I' for Inactive)
REMARK    1  A    between atoms: C_1  and  C_2
REMARK    2  A    between atoms: C_2  and  C_3
REMARK    3  A    between atoms: C_2  and  C_4
REMARK    4  A    between atoms: C_4  and  N_71
REMARK    5  A    between atoms: C_8  and  C_11
REMARK    6  A    between atoms: C_11  and  N_12
REMARK    7  A    between atoms: N_18  and  S_21
REMARK    8  A    between atoms: S_21  and  C_24
REMARK                            x       y       z     vdW  Elec       q    Type
REMARK                         _______ _______ _______ _____ _____    ______ ____
ROOT
ATOM      1  N   UNL     1      -3.702  -1.216   0.407  0.00  0.00    -0.297 N 
ATOM      2  C   UNL     1      -3.044  -0.422   1.274  0.00  0.00    +0.302 C 
ATOM      3  O   UNL     1      -1.875  -0.149   1.081  0.00  0.00    -0.253 OA
ATOM      4  N   UNL     1      -3.681   0.070   2.355  0.00  0.00    -0.283 N 
ATOM      5  C   UNL     1      -3.008   1.019   3.253  0.00  0.00    +0.126 C 
ATOM      6  C   UNL     1      -3.879   2.282   3.366  0.00  0.00    +0.128 C 
ATOM      7  N   UNL     1      -5.257   1.874   3.671  0.00  0.00    -0.174 NA
ATOM      8  C   UNL     1      -5.929   0.921   2.776  0.00  0.00    +0.128 C 
ATOM      9  C   UNL     1      -5.060  -0.337   2.660  0.00  0.00    +0.126 C 
ATOM     10  H   UNL     1      -4.612  -1.492   0.597  0.00  0.00    +0.150 HD
ENDROOT
BRANCH   7  11
ATOM     11  S   UNL     1      -6.040   2.478   5.000  0.00  0.00    +0.061 S 
ATOM     12  O   UNL     1      -5.414   3.715   5.313  0.00  0.00    -0.153 OA
ATOM     13  O   UNL     1      -7.432   2.375   4.733  0.00  0.00    -0.153 OA
BRANCH  11  14
ATOM     14  C   UNL     1      -5.703   1.388   6.343  0.00  0.00    +0.106 A 
ATOM     15  C   UNL     1      -4.601   1.603   7.150  0.00  0.00    +0.029 A 
ATOM     16  C   UNL     1      -4.342   0.744   8.198  0.00  0.00    +0.006 A 
ATOM     17  C   UNL     1      -5.179  -0.336   8.449  0.00  0.00    -0.044 A 
ATOM     18  C   UNL     1      -6.279  -0.547   7.648  0.00  0.00    -0.042 A 
ATOM     19  C   UNL     1      -6.540   0.322   6.596  0.00  0.00    +0.032 A 
ATOM     20  C   UNL     1      -7.235  -1.690   7.868  0.00  0.00    +0.035 C 
ATOM     21  C   UNL     1      -6.595  -2.764   8.745  0.00  0.00    +0.005 C 
ATOM     22  C   UNL     1      -6.035  -2.089  10.003  0.00  0.00    +0.005 C 
ATOM     23  C   UNL     1      -4.829  -1.242   9.600  0.00  0.00    +0.035 C 
ENDBRANCH  11  14
ENDBRANCH   7  11
BRANCH   1  24
ATOM     24  C   UNL     1      -3.043  -1.662  -0.823  0.00  0.00    +0.135 C 
BRANCH  24  28
ATOM     25  C   UNL     1      -4.567  -5.083  -2.799  0.00  0.00    -0.050 C 
ATOM     26  C   UNL     1      -5.244  -4.591  -1.517  0.00  0.00    +0.141 C 
ATOM     27  O   UNL     1      -4.370  -3.684  -0.840  0.00  0.00    -0.379 OA
ATOM     28  C   UNL     1      -4.003  -2.546  -1.624  0.00  0.00    +0.119 C 
ATOM     29  C   UNL     1      -3.313  -3.017  -2.907  0.00  0.00    -0.045 C 
ATOM     30  N   UNL     1      -4.233  -3.913  -3.638  0.00  0.00    +0.383 N 
ATOM     31  H   UNL     1      -5.096  -3.400  -3.855  0.00  0.00    -0.082 HD
BRANCH  30  32
ATOM     32  C   UNL     1      -3.608  -4.358  -4.902  0.00  0.00    -0.076 C 
BRANCH  32  34
ATOM     33  C   UNL     1      -2.778  -3.590  -7.130  0.00  0.00    +0.005 C 
ATOM     34  C   UNL     1      -3.475  -3.156  -5.839  0.00  0.00    -0.034 C 
ATOM     35  C   UNL     1      -4.866  -2.610  -6.168  0.00  0.00    +0.005 C 
ENDBRANCH  32  34
ENDBRANCH  30  32
ENDBRANCH  24  28
ENDBRANCH   1  24
TORSDOF 6
