REMARK  Name = ZINC62776027
REMARK  3 active torsions:
REMARK  status: ('A' for Active; 'I' for Inactive)
REMARK    1  A    between atoms: C_2  and  C_13
REMARK    2  A    between atoms: C_13  and  C_15
REMARK    3  A    between atoms: C_13  and  N_21
REMARK                            x       y       z     vdW  Elec       q    Type
REMARK                         _______ _______ _______ _____ _____    ______ ____
ROOT
ATOM      1  C   UNL     1      -0.017   1.380   0.010  0.00  0.00    +0.052 A 
ATOM      2  C   UNL     1       1.176   2.082   0.002  0.00  0.00    -0.040 A 
ATOM      3  C   UNL     1       2.382   1.406  -0.014  0.00  0.00    +0.023 A 
ATOM      4  C   UNL     1       2.404   0.021  -0.022  0.00  0.00    +0.065 A 
ATOM      5  C   UNL     1       1.212  -0.683  -0.013  0.00  0.00    +0.163 A 
ATOM      6  C   UNL     1       0.002  -0.004   0.002  0.00  0.00    +0.162 A 
ATOM      7  O   UNL     1      -1.167  -0.709   0.010  0.00  0.00    -0.488 OA
ATOM      8  C   UNL     1      -1.468  -1.433  -1.185  0.00  0.00    +0.232 C 
ATOM      9  C   UNL     1      -0.780  -2.789  -1.182  0.00  0.00    +0.082 C 
ATOM     10  C   UNL     1       0.736  -2.669  -1.212  0.00  0.00    +0.232 C 
ATOM     11  O   UNL     1       1.220  -2.048  -0.020  0.00  0.00    -0.488 OA
ATOM     12 BR   UNL     1       4.006   2.374  -0.026  0.00  0.00    -0.050 Br
ENDROOT
BRANCH   2  13
ATOM     13  C   UNL     1       1.160   3.589   0.011  0.00  0.00    -0.009 C 
BRANCH  13  14
ATOM     14  C   UNL     1       1.264   4.101  -1.403  0.00  0.00    -0.020 A 
ATOM     15  C   UNL     1       2.388   4.556  -2.004  0.00  0.00    +0.107 A 
ATOM     16  N   UNL     1       2.064   4.919  -3.262  0.00  0.00    -0.285 N 
ATOM     17  H   UNL     1       2.671   5.282  -3.926  0.00  0.00    +0.188 HD
ATOM     18  N   UNL     1       0.695   4.680  -3.441  0.00  0.00    -0.182 NA
ATOM     19  C   UNL     1       0.218   4.184  -2.328  0.00  0.00    +0.136 A 
ENDBRANCH  13  14
BRANCH  13  20
ATOM     20  N   UNL     1      -0.095   4.062   0.611  0.00  0.00    +0.385 N 
ATOM     21  H   UNL     1      -0.876   3.721   0.071  0.00  0.00    -0.089 HD
ATOM     22  H   UNL     1      -0.165   3.720   1.557  0.00  0.00    -0.089 HD
ATOM     23  H   UNL     1      -0.106   5.071   0.616  0.00  0.00    -0.089 HD
ENDBRANCH  13  20
ENDBRANCH   2  13
TORSDOF 3
