REMARK  Name = ZINC39856362
REMARK  8 active torsions:
REMARK  status: ('A' for Active; 'I' for Inactive)
REMARK    1  A    between atoms: C_1  and  C_2
REMARK    2  A    between atoms: C_6  and  C_7
REMARK    3  A    between atoms: N_9  and  C_10
REMARK    4  A    between atoms: C_13  and  C_16
REMARK    5  A    between atoms: C_16  and  C_18
REMARK    6  A    between atoms: C_20  and  C_28
REMARK    7  A    between atoms: C_20  and  C_29
REMARK    8  A    between atoms: N_23  and  N_24
REMARK                            x       y       z     vdW  Elec       q    Type
REMARK                         _______ _______ _______ _____ _____    ______ ____
ROOT
ATOM      1  C   UNL     1      -0.011   1.502   0.010  0.00  0.00    +0.048 C 
ATOM      2  C   UNL     1      -0.002  -0.005   0.002  0.00  0.00    +0.009 A 
ATOM      3  C   UNL     1      -0.007  -0.839  -1.122  0.00  0.00    +0.042 A 
ATOM      4  C   UNL     1       0.003  -2.138  -0.672  0.00  0.00    +0.116 A 
ATOM      5  O   UNL     1       0.017  -2.112   0.658  0.00  0.00    -0.454 OA
ATOM      6  C   UNL     1       0.018  -0.831   1.091  0.00  0.00    +0.193 A 
ATOM      7  C   UNL     1      -0.003  -3.328  -1.599  0.00  0.00    +0.081 C 
ATOM      8  C   UNL     1      -0.530  -2.900  -2.971  0.00  0.00    -0.023 C 
ATOM      9  C   UNL     1       0.247  -1.688  -3.496  0.00  0.00    +0.064 C 
ATOM     10  C   UNL     1      -0.018  -0.513  -2.566  0.00  0.00    +0.071 C 
ATOM     11  N   UNL     1      -0.239   0.686  -3.007  0.00  0.00    -0.183 NA
ATOM     12  C   UNL     1      -0.377  -4.062  -3.955  0.00  0.00    +0.011 C 
ATOM     13  C   UNL     1      -2.011  -2.535  -2.851  0.00  0.00    +0.011 C 
ENDROOT
BRANCH  11  14
ATOM     14  N   UNL     1      -0.238   0.938  -4.385  0.00  0.00    -0.191 N 
ATOM     15  C   UNL     1      -0.468   2.184  -4.843  0.00  0.00    +0.317 C 
ATOM     16  O   UNL     1      -0.467   2.402  -6.040  0.00  0.00    -0.251 OA
ATOM     17  N   UNL     1      -0.699   3.189  -3.975  0.00  0.00    -0.312 N 
ATOM     18  H   UNL     1      -0.073   0.214  -5.010  0.00  0.00    +0.179 HD
ATOM     19  H   UNL     1      -0.699   3.015  -3.021  0.00  0.00    +0.147 HD
ATOM     20  H   UNL     1      -0.864   4.086  -4.305  0.00  0.00    +0.147 HD
ENDBRANCH  11  14
BRANCH   6  21
ATOM     21  C   UNL     1       0.035  -0.400   2.493  0.00  0.00    +0.284 C 
ATOM     22  O   UNL     1       0.031   0.786   2.765  0.00  0.00    -0.266 OA
ATOM     23  N   UNL     1       0.054  -1.318   3.480  0.00  0.00    -0.279 N 
ATOM     24  H   UNL     1      -0.010  -2.262   3.266  0.00  0.00    +0.155 HD
BRANCH  23  25
ATOM     25  C   UNL     1       0.166  -0.911   4.806  0.00  0.00    +0.034 A 
ATOM     26  C   UNL     1      -0.445   0.268   5.225  0.00  0.00    +0.024 A 
ATOM     27  C   UNL     1      -0.338   0.671   6.526  0.00  0.00    +0.013 A 
ATOM     28  C   UNL     1       0.389  -0.104   7.439  0.00  0.00    +0.017 A 
ATOM     29  C   UNL     1       1.002  -1.289   7.013  0.00  0.00    +0.013 A 
ATOM     30  C   UNL     1       0.885  -1.687   5.712  0.00  0.00    +0.024 A 
BRANCH  28  31
ATOM     31  C   UNL     1       0.508   0.326   8.838  0.00  0.00    +0.160 C 
ATOM     32  O   UNL     1      -0.023   1.353   9.204  0.00  0.00    -0.292 OA
ATOM     33  C   UNL     1       1.291  -0.510   9.818  0.00  0.00    +0.091 C 
ENDBRANCH  28  31
ENDBRANCH  23  25
ENDBRANCH   6  21
TORSDOF 4
