REMARK  Name = ZINC14697623
REMARK  11 active torsions:
REMARK  status: ('A' for Active; 'I' for Inactive)
REMARK    1  A    between atoms: C_1  and  C_2
REMARK    2  A    between atoms: C_2  and  C_3
REMARK    3  A    between atoms: C_4  and  C_36
REMARK    4  A    between atoms: C_6  and  C_8
REMARK    5  A    between atoms: N_10  and  C_11
REMARK    6  A    between atoms: N_10  and  C_19
REMARK    7  A    between atoms: C_11  and  C_12
REMARK    8  A    between atoms: C_12  and  C_13
REMARK    9  A    between atoms: C_20  and  N_35
REMARK   10  A    between atoms: N_21  and  C_28
REMARK   11  A    between atoms: C_28  and  C_29
REMARK                            x       y       z     vdW  Elec       q    Type
REMARK                         _______ _______ _______ _____ _____    ______ ____
ROOT
ATOM      1  C   UNL     1      -4.127  -1.029  -1.679  0.00  0.00    +0.258 C 
ATOM      2  O   UNL     1      -5.211  -1.583  -1.726  0.00  0.00    -0.269 OA
ATOM      3  N   UNL     1      -3.006  -1.756  -1.504  0.00  0.00    -0.259 N 
ENDROOT
BRANCH   3   4
ATOM      4  C   UNL     1      -3.074  -3.165  -1.485  0.00  0.00    +0.140 A 
ATOM      5  C   UNL     1      -3.849  -3.818  -0.548  0.00  0.00    +0.128 A 
ATOM      6  N   UNL     1      -3.898  -5.192  -0.559  0.00  0.00    -0.276 N 
ATOM      7  C   UNL     1      -3.193  -5.892  -1.466  0.00  0.00    +0.331 A 
ATOM      8  O   UNL     1      -3.247  -7.107  -1.456  0.00  0.00    -0.246 OA
ATOM      9  N   UNL     1      -2.429  -5.273  -2.383  0.00  0.00    -0.273 N 
ATOM     10  H   UNL     1      -1.914  -5.817  -3.046  0.00  0.00    +0.173 HD
ATOM     11  C   UNL     1      -2.349  -3.929  -2.419  0.00  0.00    +0.277 A 
ATOM     12  O   UNL     1      -1.653  -3.377  -3.255  0.00  0.00    -0.266 OA
BRANCH   5  13
ATOM     13  N   UNL     1      -4.566  -3.103   0.381  0.00  0.00    -0.343 N 
ATOM     14  H   UNL     1      -4.568  -2.134   0.351  0.00  0.00    +0.144 HD
ATOM     15  H   UNL     1      -5.069  -3.568   1.068  0.00  0.00    +0.144 HD
ENDBRANCH   5  13
BRANCH   6  16
ATOM     16  C   UNL     1      -4.720  -5.899   0.427  0.00  0.00    +0.163 C 
BRANCH  16  17
ATOM     17  C   UNL     1      -3.897  -6.183   1.657  0.00  0.00    -0.028 A 
ATOM     18  C   UNL     1      -3.185  -7.364   1.755  0.00  0.00    +0.005 A 
ATOM     19  C   UNL     1      -2.426  -7.622   2.881  0.00  0.00    +0.000 A 
ATOM     20  C   UNL     1      -2.387  -6.704   3.913  0.00  0.00    +0.000 A 
ATOM     21  C   UNL     1      -3.103  -5.525   3.818  0.00  0.00    +0.000 A 
ATOM     22  C   UNL     1      -3.858  -5.265   2.689  0.00  0.00    +0.005 A 
ENDBRANCH  16  17
ENDBRANCH   6  16
ENDBRANCH   3   4
BRANCH   1  26
ATOM     23  C   UNL     1      -3.396   3.013  -1.952  0.00  0.00    -0.007 A 
ATOM     24  C   UNL     1      -4.689   2.662  -2.175  0.00  0.00    -0.040 A 
ATOM     25  C   UNL     1      -5.045   1.337  -2.115  0.00  0.00    +0.024 A 
ATOM     26  C   UNL     1      -4.043   0.428  -1.813  0.00  0.00    +0.075 A 
ATOM     27  S   UNL     1      -2.622   1.493  -1.638  0.00  0.00    -0.088 S 
ATOM     28  C   UNL     1      -5.721   3.715  -2.492  0.00  0.00    +0.044 C 
BRANCH  23  30
ATOM     29  C   UNL     1      -2.857   5.001  -0.571  0.00  0.00    +0.009 C 
ATOM     30  C   UNL     1      -2.782   4.389  -1.971  0.00  0.00    +0.039 C 
ENDBRANCH  23  30
ENDBRANCH   1  26
BRANCH   3  31
ATOM     31  C   UNL     1      -1.716  -1.082  -1.332  0.00  0.00    +0.118 C 
BRANCH  31  32
ATOM     32  C   UNL     1      -1.538  -0.688   0.136  0.00  0.00    +0.050 C 
BRANCH  32  33
ATOM     33  C   UNL     1      -0.211   0.004   0.313  0.00  0.00    -0.072 C 
ATOM     34  C   UNL     1      -0.192   1.298   0.272  0.00  0.00    -0.028 C 
ATOM     35  C   UNL     1       1.051   2.125   0.421  0.00  0.00    +0.027 C 
ATOM     36  C   UNL     1       2.173   1.285   1.036  0.00  0.00    +0.004 C 
ATOM     37  C   UNL     1       2.273  -0.034   0.260  0.00  0.00    +0.005 C 
ATOM     38  C   UNL     1       1.005  -0.849   0.525  0.00  0.00    +0.030 C 
ENDBRANCH  32  33
ENDBRANCH  31  32
ENDBRANCH   3  31
TORSDOF 9
