REMARK  Name = ZINC41649371
REMARK  7 active torsions:
REMARK  status: ('A' for Active; 'I' for Inactive)
REMARK    1  A    between atoms: C_1  and  C_2
REMARK    2  A    between atoms: C_4  and  C_9
REMARK    3  A    between atoms: C_9  and  S_10
REMARK    4  A    between atoms: S_10  and  C_11
REMARK    5  A    between atoms: N_15  and  C_16
REMARK    6  A    between atoms: C_19  and  O_22
REMARK    7  A    between atoms: O_22  and  C_23
REMARK                            x       y       z     vdW  Elec       q    Type
REMARK                         _______ _______ _______ _____ _____    ______ ____
ROOT
ATOM      1  C   UNL     1      -1.864  -1.785  -6.145  0.00  0.00    +0.214 A 
ATOM      2  N   UNL     1      -3.153  -2.045  -6.196  0.00  0.00    -0.101 NA
ATOM      3  N   UNL     1      -3.396  -2.945  -7.079  0.00  0.00    -0.022 NA
ATOM      4  N   UNL     1      -2.304  -3.323  -7.648  0.00  0.00    -0.038 NA
ATOM      5  N   UNL     1      -1.262  -2.579  -7.066  0.00  0.00    -0.187 N 
ENDROOT
BRANCH   5   6
ATOM      6  C   UNL     1       0.106  -2.644  -7.371  0.00  0.00    +0.070 A 
ATOM      7  C   UNL     1       0.885  -1.496  -7.316  0.00  0.00    +0.031 A 
ATOM      8  C   UNL     1       2.231  -1.561  -7.616  0.00  0.00    +0.048 A 
ATOM      9  C   UNL     1       2.805  -2.773  -7.972  0.00  0.00    +0.120 A 
ATOM     10  C   UNL     1       2.027  -3.920  -8.028  0.00  0.00    +0.048 A 
ATOM     11  C   UNL     1       0.682  -3.857  -7.723  0.00  0.00    +0.031 A 
BRANCH   9  12
ATOM     12  O   UNL     1       4.131  -2.836  -8.267  0.00  0.00    -0.495 OA
ATOM     13  C   UNL     1       4.655  -4.116  -8.627  0.00  0.00    +0.277 C 
ENDBRANCH   9  12
ENDBRANCH   5   6
BRANCH   1  14
ATOM     14  S   UNL     1      -1.071  -0.622  -5.086  0.00  0.00    -0.078 S 
BRANCH  14  15
ATOM     15  C   UNL     1      -2.431   0.089  -4.118  0.00  0.00    +0.133 C 
BRANCH  15  19
ATOM     16  C   UNL     1      -0.013   1.086   0.008  0.00  0.00    +0.086 C 
ATOM     17  C   UNL     1      -0.742   1.585  -1.213  0.00  0.00    +0.107 A 
ATOM     18  N   UNL     1      -1.229   0.721  -2.063  0.00  0.00    -0.238 NA
ATOM     19  C   UNL     1      -1.883   1.114  -3.159  0.00  0.00    +0.059 A 
ATOM     20  C   UNL     1      -2.053   2.442  -3.409  0.00  0.00    +0.094 A 
ATOM     21  C   UNL     1      -1.527   3.374  -2.491  0.00  0.00    +0.252 A 
ATOM     22  N   UNL     1      -0.881   2.912  -1.400  0.00  0.00    -0.311 N 
ATOM     23  O   UNL     1      -1.658   4.573  -2.678  0.00  0.00    -0.268 OA
ATOM     24  H   UNL     1      -0.514   3.535  -0.753  0.00  0.00    +0.170 HD
ENDBRANCH  15  19
ENDBRANCH  14  15
ENDBRANCH   1  14
TORSDOF 5
