REMARK  Name = ZINC20466486
REMARK  9 active torsions:
REMARK  status: ('A' for Active; 'I' for Inactive)
REMARK    1  A    between atoms: C_1  and  C_2
REMARK    2  A    between atoms: C_4  and  N_29
REMARK    3  A    between atoms: C_8  and  C_28
REMARK    4  A    between atoms: C_11  and  O_27
REMARK    5  A    between atoms: C_13  and  C_17
REMARK    6  A    between atoms: C_17  and  C_19
REMARK    7  A    between atoms: C_17  and  C_20
REMARK    8  A    between atoms: C_30  and  C_32
REMARK    9  A    between atoms: C_35  and  C_38
REMARK                            x       y       z     vdW  Elec       q    Type
REMARK                         _______ _______ _______ _____ _____    ______ ____
ROOT
ATOM      1  C   UNL     1      -2.500   1.946  -0.385  0.00  0.00    +0.010 C 
ATOM      2  C   UNL     1      -2.552   0.451  -0.705  0.00  0.00    +0.012 C 
ATOM      3  C   UNL     1      -3.789  -0.167  -0.052  0.00  0.00    +0.076 C 
ATOM      4  C   UNL     1      -3.842  -1.663  -0.372  0.00  0.00    +0.023 C 
ATOM      5  C   UNL     1      -2.584  -2.344   0.171  0.00  0.00    +0.009 C 
ATOM      6  C   UNL     1      -1.346  -1.726  -0.482  0.00  0.00    -0.027 C 
ATOM      7  C   UNL     1      -1.294  -0.231  -0.162  0.00  0.00    +0.028 C 
ATOM      8  C   UNL     1      -0.057   0.388  -0.815  0.00  0.00    +0.122 C 
ATOM      9  C   UNL     1       1.201  -0.294  -0.272  0.00  0.00    +0.029 C 
ATOM     10  C   UNL     1       1.149  -1.789  -0.592  0.00  0.00    +0.007 C 
ATOM     11  C   UNL     1      -0.089  -2.408   0.061  0.00  0.00    +0.007 C 
ATOM     12  C   UNL     1      -1.418  -1.921  -1.998  0.00  0.00    +0.011 C 
ENDROOT
BRANCH   3  13
ATOM     13  N   UNL     1      -4.994   0.486  -0.572  0.00  0.00    -0.308 N 
ATOM     14  C   UNL     1      -6.123   0.499   0.163  0.00  0.00    +0.244 C 
ATOM     15  O   UNL     1      -6.143  -0.030   1.257  0.00  0.00    -0.270 OA
ATOM     16  H   UNL     1      -4.976   0.965  -1.562  0.00  0.00    +0.149 HD
BRANCH  14  17
ATOM     17  C   UNL     1      -7.339   1.159  -0.361  0.00  0.00    +0.037 A 
ATOM     18  C   UNL     1      -7.314   1.772  -1.616  0.00  0.00    +0.014 A 
ATOM     19  C   UNL     1      -8.448   2.381  -2.107  0.00  0.00    +0.019 A 
ATOM     20  C   UNL     1      -9.618   2.395  -1.345  0.00  0.00    +0.052 A 
ATOM     21  C   UNL     1      -9.641   1.786  -0.088  0.00  0.00    +0.019 A 
ATOM     22  C   UNL     1      -8.509   1.173   0.400  0.00  0.00    +0.014 A 
BRANCH  20  23
ATOM     23  C   UNL     1     -10.795   3.034  -1.853  0.00  0.00    +0.099 C 
ATOM     24  N   UNL     1     -11.729   3.540  -2.256  0.00  0.00    -0.191 NA
ENDBRANCH  20  23
ENDBRANCH  14  17
ENDBRANCH   3  13
BRANCH   9  25
ATOM     25  C   UNL     1       2.439   0.324  -0.925  0.00  0.00    +0.078 C 
ATOM     26  C   UNL     1       2.414   0.048  -2.430  0.00  0.00    +0.017 C 
BRANCH  25  27
ATOM     27  C   UNL     1       3.680  -0.282  -0.323  0.00  0.00    +0.219 C 
ATOM     28  O   UNL     1       4.136  -1.309  -0.780  0.00  0.00    -0.275 OA
ATOM     29  N   UNL     1       4.284   0.317   0.722  0.00  0.00    -0.301 N 
ATOM     30  C   UNL     1       3.790   1.507   1.431  0.00  0.00    +0.108 C 
ATOM     31  C   UNL     1       4.816   1.843   2.533  0.00  0.00    +0.020 C 
ATOM     32  C   UNL     1       6.114   1.169   2.014  0.00  0.00    +0.020 C 
ATOM     33  C   UNL     1       5.553  -0.109   1.341  0.00  0.00    +0.108 C 
ENDBRANCH  25  27
ENDBRANCH   9  25
BRANCH   8  34
ATOM     34  O   UNL     1      -0.008   1.784  -0.516  0.00  0.00    -0.391 OA
ATOM     35  H   UNL     1       0.817   2.401  -0.903  0.00  0.00    +0.210 HD
ENDBRANCH   8  34
TORSDOF 6
