REMARK  Name = ZINC44024150
REMARK  7 active torsions:
REMARK  status: ('A' for Active; 'I' for Inactive)
REMARK    1  A    between atoms: C_1  and  C_2
REMARK    2  A    between atoms: C_8  and  N_10
REMARK    3  A    between atoms: N_10  and  C_11
REMARK    4  A    between atoms: C_11  and  N_13
REMARK    5  A    between atoms: N_13  and  N_14
REMARK    6  A    between atoms: C_15  and  C_17
REMARK    7  A    between atoms: C_20  and  C_22
REMARK                            x       y       z     vdW  Elec       q    Type
REMARK                         _______ _______ _______ _____ _____    ______ ____
ROOT
ATOM      1  N   UNL     1       4.668   0.942   1.166  0.00  0.00    -0.230 N 
ATOM      2  C   UNL     1       5.933   1.409   1.156  0.00  0.00    +0.279 C 
ATOM      3  O   UNL     1       6.545   1.528   2.201  0.00  0.00    -0.267 OA
ATOM      4  H   UNL     1       4.180   0.848   0.333  0.00  0.00    +0.173 HD
ENDROOT
BRANCH   2   5
ATOM      5  C   UNL     1       6.573   1.775  -0.119  0.00  0.00    +0.135 A 
ATOM      6  C   UNL     1       7.859   2.245  -0.139  0.00  0.00    +0.080 A 
ATOM      7  S   UNL     1       8.124   2.513  -1.780  0.00  0.00    -0.072 S 
ATOM      8  C   UNL     1       6.527   1.994  -2.383  0.00  0.00    +0.144 A 
ATOM      9  N   UNL     1       5.914   1.649  -1.262  0.00  0.00    -0.231 NA
BRANCH   8  10
ATOM     10  C   UNL     1       6.024   1.956  -3.766  0.00  0.00    +0.160 A 
ATOM     11  C   UNL     1       6.720   2.319  -4.880  0.00  0.00    +0.052 A 
ATOM     12  C   UNL     1       5.859   2.123  -5.976  0.00  0.00    +0.042 A 
ATOM     13  C   UNL     1       4.693   1.655  -5.486  0.00  0.00    +0.196 A 
ATOM     14  O   UNL     1       4.798   1.550  -4.151  0.00  0.00    -0.461 OA
ENDBRANCH   8  10
ENDBRANCH   2   5
BRANCH   1  15
ATOM     15  N   UNL     1       4.059   0.594   2.379  0.00  0.00    -0.246 N 
ATOM     16  H   UNL     1       4.548   0.689   3.211  0.00  0.00    +0.172 HD
BRANCH  15  17
ATOM     17  C   UNL     1       2.795   0.128   2.388  0.00  0.00    +0.147 C 
ATOM     18  S   UNL     1       2.051  -0.298   3.870  0.00  0.00    -0.017 S 
BRANCH  17  19
ATOM     19  N   UNL     1       2.116  -0.004   1.231  0.00  0.00    -0.322 N 
ATOM     20  H   UNL     1       2.538   0.237   0.392  0.00  0.00    +0.148 HD
BRANCH  19  27
ATOM     21  C   UNL     1      -0.019   1.526   0.010  0.00  0.00    +0.009 C 
ATOM     22  C   UNL     1       0.002  -0.004   0.002  0.00  0.00    +0.006 C 
ATOM     23  C   UNL     1       0.718  -0.497  -1.257  0.00  0.00    +0.005 C 
ATOM     24  C   UNL     1       0.739  -2.027  -1.265  0.00  0.00    +0.000 C 
ATOM     25  C   UNL     1       1.479  -2.534  -0.026  0.00  0.00    +0.002 C 
ATOM     26  C   UNL     1       0.763  -2.041   1.233  0.00  0.00    +0.022 C 
ATOM     27  C   UNL     1       0.742  -0.511   1.242  0.00  0.00    +0.075 C 
ENDBRANCH  19  27
ENDBRANCH  17  19
ENDBRANCH  15  17
ENDBRANCH   1  15
TORSDOF 6
