REMARK  Name = ZINC63783932
REMARK  11 active torsions:
REMARK  status: ('A' for Active; 'I' for Inactive)
REMARK    1  A    between atoms: C_1  and  C_2
REMARK    2  A    between atoms: N_5  and  C_8
REMARK    3  A    between atoms: C_8  and  C_9
REMARK    4  A    between atoms: C_8  and  C_23
REMARK    5  A    between atoms: C_9  and  N_10
REMARK    6  A    between atoms: C_11  and  C_13
REMARK    7  A    between atoms: C_13  and  N_14
REMARK    8  A    between atoms: N_14  and  S_15
REMARK    9  A    between atoms: S_15  and  C_18
REMARK   10  A    between atoms: C_23  and  C_24
REMARK   11  A    between atoms: C_23  and  C_25
REMARK                            x       y       z     vdW  Elec       q    Type
REMARK                         _______ _______ _______ _____ _____    ______ ____
ROOT
ATOM      1  N   UNL     1       1.687  -3.626  -2.382  0.00  0.00    -0.316 N 
ATOM      2  C   UNL     1       2.214  -3.723  -3.618  0.00  0.00    +0.229 C 
ATOM      3  O   UNL     1       3.261  -4.311  -3.787  0.00  0.00    -0.274 OA
ATOM      4  H   UNL     1       0.850  -3.156  -2.247  0.00  0.00    +0.149 HD
ENDROOT
BRANCH   1   5
ATOM      5  C   UNL     1       2.380  -4.230  -1.241  0.00  0.00    +0.089 C 
BRANCH   5   6
ATOM      6  C   UNL     1       1.688  -3.809   0.057  0.00  0.00    -0.049 C 
BRANCH   6  11
ATOM      7  C   UNL     1       3.334   1.651   0.064  0.00  0.00    +0.007 C 
ATOM      8  C   UNL     1       3.119   0.187  -0.323  0.00  0.00    -0.018 C 
ATOM      9  C   UNL     1       3.701  -0.721   0.764  0.00  0.00    -0.016 C 
ATOM     10  C   UNL     1       3.413  -2.182   0.410  0.00  0.00    -0.078 C 
ATOM     11  N   UNL     1       1.962  -2.390   0.321  0.00  0.00    +0.383 N 
ATOM     12  C   UNL     1       1.408  -1.576  -0.768  0.00  0.00    -0.078 C 
ATOM     13  C   UNL     1       1.619  -0.092  -0.459  0.00  0.00    -0.016 C 
ATOM     14  H   UNL     1       1.531  -2.122   1.192  0.00  0.00    -0.081 HD
ENDBRANCH   6  11
BRANCH   6  15
ATOM     15  C   UNL     1       2.220  -4.655   1.216  0.00  0.00    -0.029 C 
ATOM     16  C   UNL     1       1.521  -4.240   2.513  0.00  0.00    +0.005 C 
ATOM     17  C   UNL     1       1.943  -6.133   0.938  0.00  0.00    +0.005 C 
ENDBRANCH   6  15
ENDBRANCH   5   6
ENDBRANCH   1   5
BRANCH   2  18
ATOM     18  C   UNL     1       1.501  -3.102  -4.792  0.00  0.00    +0.201 C 
BRANCH  18  19
ATOM     19  N   UNL     1       2.270  -3.344  -6.015  0.00  0.00    -0.181 NA
ATOM     20  H   UNL     1       3.192  -3.642  -5.957  0.00  0.00    +0.149 HD
BRANCH  19  21
ATOM     21  S   UNL     1       1.567  -3.111  -7.495  0.00  0.00    +0.065 S 
ATOM     22  O   UNL     1       2.562  -3.399  -8.468  0.00  0.00    -0.153 OA
ATOM     23  O   UNL     1       0.317  -3.785  -7.462  0.00  0.00    -0.153 OA
BRANCH  21  24
ATOM     24  C   UNL     1       1.208  -1.392  -7.636  0.00  0.00    +0.142 A 
ATOM     25  C   UNL     1       1.981  -0.396  -8.135  0.00  0.00    +0.036 A 
ATOM     26  C   UNL     1       1.487   0.895  -8.146  0.00  0.00    +0.010 A 
ATOM     27  C   UNL     1       0.243   1.127  -7.659  0.00  0.00    +0.047 A 
ATOM     28  S   UNL     1      -0.272  -0.510  -7.167  0.00  0.00    -0.077 S 
ENDBRANCH  21  24
ENDBRANCH  19  21
ENDBRANCH  18  19
ENDBRANCH   2  18
TORSDOF 8
