REMARK  Name = ZINC14879334
REMARK  9 active torsions:
REMARK  status: ('A' for Active; 'I' for Inactive)
REMARK    1  A    between atoms: C_1  and  C_2
REMARK    2  A    between atoms: C_2  and  C_4
REMARK    3  A    between atoms: C_2  and  C_30
REMARK    4  A    between atoms: C_4  and  C_5
REMARK    5  A    between atoms: C_5  and  N_74
REMARK    6  A    between atoms: C_12  and  C_14
REMARK    7  A    between atoms: N_16  and  C_17
REMARK    8  A    between atoms: C_17  and  C_18
REMARK    9  A    between atoms: C_18  and  C_24
REMARK                            x       y       z     vdW  Elec       q    Type
REMARK                         _______ _______ _______ _____ _____    ______ ____
ROOT
ATOM      1  C   UNL     1      -0.240   1.233   0.192  0.00  0.00    -0.078 C 
ATOM      2  C   UNL     1       1.251   1.534   0.376  0.00  0.00    -0.011 C 
ATOM      3  C   UNL     1       2.032   0.840  -0.745  0.00  0.00    -0.021 C 
ATOM      4  C   UNL     1       1.719  -0.650  -0.917  0.00  0.00    -0.011 C 
ATOM      5  C   UNL     1       0.200  -0.822  -1.024  0.00  0.00    -0.078 C 
ATOM      6  C   UNL     1       3.463   1.302  -1.010  0.00  0.00    +0.020 C 
ATOM      7  C   UNL     1       2.349   1.650  -2.000  0.00  0.00    +0.082 C 
ATOM      8  N   UNL     1      -0.432  -0.234   0.178  0.00  0.00    +0.380 N 
ATOM      9  H   UNL     1       0.008  -0.634   1.014  0.00  0.00    -0.082 HD
ENDROOT
BRANCH   7  10
ATOM     10  C   UNL     1       1.877   3.081  -2.043  0.00  0.00    +0.217 C 
ATOM     11  O   UNL     1       0.999   3.407  -2.813  0.00  0.00    -0.275 OA
ATOM     12  N   UNL     1       2.431   3.998  -1.225  0.00  0.00    -0.314 N 
ATOM     13  H   UNL     1       3.134   3.737  -0.609  0.00  0.00    +0.149 HD
BRANCH  12  14
ATOM     14  C   UNL     1       1.973   5.388  -1.266  0.00  0.00    +0.115 C 
BRANCH  14  15
ATOM     15  C   UNL     1       2.847   6.241  -0.345  0.00  0.00    +0.015 C 
ATOM     16  C   UNL     1       2.380   7.699  -0.400  0.00  0.00    +0.041 C 
ATOM     17  C   UNL     1       2.565   8.233  -1.823  0.00  0.00    +0.160 C 
ATOM     18  O   UNL     1       3.937   8.105  -2.204  0.00  0.00    -0.380 OA
ATOM     19  C   UNL     1       4.416   6.759  -2.216  0.00  0.00    +0.160 C 
ATOM     20  C   UNL     1       4.305   6.166  -0.809  0.00  0.00    +0.041 C 
BRANCH  15  21
ATOM     21  C   UNL     1       2.741   5.729   1.068  0.00  0.00    -0.040 A 
ATOM     22  C   UNL     1       3.879   5.345   1.752  0.00  0.00    +0.004 A 
ATOM     23  C   UNL     1       3.782   4.880   3.050  0.00  0.00    +0.000 A 
ATOM     24  C   UNL     1       2.545   4.788   3.660  0.00  0.00    +0.000 A 
ATOM     25  C   UNL     1       1.406   5.168   2.975  0.00  0.00    +0.000 A 
ATOM     26  C   UNL     1       1.504   5.638   1.679  0.00  0.00    +0.004 A 
ENDBRANCH  15  21
ENDBRANCH  14  15
ENDBRANCH  12  14
ENDBRANCH   7  10
BRANCH   8  27
ATOM     27  C   UNL     1      -1.874  -0.553   0.196  0.00  0.00    -0.078 C 
BRANCH  27  28
ATOM     28  C   UNL     1      -2.554  -0.053  -1.080  0.00  0.00    -0.011 C 
BRANCH  28  30
ATOM     29  C   UNL     1      -4.330  -1.806  -0.946  0.00  0.00    +0.012 C 
ATOM     30  C   UNL     1      -4.061  -0.300  -0.985  0.00  0.00    +0.014 C 
BRANCH  30  31
ATOM     31  C   UNL     1      -4.746   0.302  -2.185  0.00  0.00    -0.045 A 
ATOM     32  C   UNL     1      -4.413  -0.125  -3.457  0.00  0.00    +0.004 A 
ATOM     33  C   UNL     1      -5.044   0.424  -4.557  0.00  0.00    +0.000 A 
ATOM     34  C   UNL     1      -6.002   1.406  -4.386  0.00  0.00    +0.000 A 
ATOM     35  C   UNL     1      -6.331   1.836  -3.115  0.00  0.00    +0.000 A 
ATOM     36  C   UNL     1      -5.703   1.284  -2.014  0.00  0.00    +0.004 A 
ENDBRANCH  30  31
ENDBRANCH  28  30
ENDBRANCH  27  28
ENDBRANCH   8  27
TORSDOF 8
