REMARK  Name = ZINC13126093
REMARK  5 active torsions:
REMARK  status: ('A' for Active; 'I' for Inactive)
REMARK    1  A    between atoms: C_6  and  C_7
REMARK    2  A    between atoms: C_8  and  C_9
REMARK    3  A    between atoms: C_8  and  N_17
REMARK    4  A    between atoms: C_18  and  C_20
REMARK    5  A    between atoms: C_23  and  N_26
REMARK                            x       y       z     vdW  Elec       q    Type
REMARK                         _______ _______ _______ _____ _____    ______ ____
ROOT
ATOM      1  C   UNL     1      -1.180  -0.793  -0.187  0.00  0.00    +0.036 C 
ATOM      2  C   UNL     1      -1.224  -2.144  -0.126  0.00  0.00    +0.097 C 
ENDROOT
BRANCH   2   3
ATOM      3  C   UNL     1      -2.519  -2.837  -0.091  0.00  0.00    +0.261 C 
ATOM      4  O   UNL     1      -3.029  -3.225  -1.125  0.00  0.00    -0.269 OA
ATOM      5  N   UNL     1      -3.143  -3.041   1.086  0.00  0.00    -0.292 N 
ATOM      6  C   UNL     1      -2.604  -2.482   2.336  0.00  0.00    +0.136 C 
ATOM      7  C   UNL     1      -3.733  -1.739   3.059  0.00  0.00    +0.179 C 
ATOM      8  O   UNL     1      -4.862  -2.606   3.187  0.00  0.00    -0.377 OA
ATOM      9  C   UNL     1      -5.425  -3.021   1.940  0.00  0.00    +0.179 C 
ATOM     10  C   UNL     1      -4.386  -3.825   1.159  0.00  0.00    +0.136 C 
ENDBRANCH   2   3
BRANCH   1  16
ATOM     11  C   UNL     1       1.117  -0.704  -1.138  0.00  0.00    +0.009 A 
ATOM     12  C   UNL     1       2.320  -0.054  -1.312  0.00  0.00    +0.020 A 
ATOM     13  C   UNL     1       2.531   1.187  -0.734  0.00  0.00    +0.041 A 
ATOM     14  C   UNL     1       1.536   1.785   0.022  0.00  0.00    +0.020 A 
ATOM     15  C   UNL     1       0.327   1.147   0.204  0.00  0.00    +0.009 A 
ATOM     16  C   UNL     1       0.107  -0.106  -0.377  0.00  0.00    -0.023 A 
ATOM     17 CL   UNL     1       4.050   1.997  -0.957  0.00  0.00    -0.084 Cl
ENDBRANCH   1  16
BRANCH   2  18
ATOM     18  N   UNL     1      -0.036  -2.881  -0.095  0.00  0.00    -0.277 N 
ATOM     19  C   UNL     1      -0.079  -4.228  -0.074  0.00  0.00    +0.248 C 
ATOM     20  O   UNL     1      -1.147  -4.803  -0.152  0.00  0.00    -0.270 OA
ATOM     21  H   UNL     1       0.819  -2.423  -0.089  0.00  0.00    +0.155 HD
BRANCH  19  22
ATOM     22  C   UNL     1       1.173  -5.005   0.045  0.00  0.00    +0.037 A 
ATOM     23  C   UNL     1       2.400  -4.348   0.142  0.00  0.00    +0.015 A 
ATOM     24  C   UNL     1       3.564  -5.079   0.253  0.00  0.00    +0.033 A 
ATOM     25  C   UNL     1       3.517  -6.462   0.268  0.00  0.00    +0.126 A 
ATOM     26  C   UNL     1       2.304  -7.120   0.172  0.00  0.00    +0.033 A 
ATOM     27  C   UNL     1       1.131  -6.400   0.068  0.00  0.00    +0.015 A 
BRANCH  25  28
ATOM     28  N   UNL     1       4.770  -7.241   0.387  0.00  0.00    +0.056 N 
ATOM     29  O   UNL     1       5.832  -6.669   0.470  0.00  0.00    -0.126 OA
ATOM     30  O   UNL     1       4.732  -8.449   0.400  0.00  0.00    -0.126 OA
ENDBRANCH  25  28
ENDBRANCH  19  22
ENDBRANCH   2  18
TORSDOF 5
