REMARK  Name = ZINC64007076
REMARK  6 active torsions:
REMARK  status: ('A' for Active; 'I' for Inactive)
REMARK    1  A    between atoms: C_1  and  C_2
REMARK    2  A    between atoms: C_2  and  C_3
REMARK    3  A    between atoms: C_2  and  N_4
REMARK    4  A    between atoms: C_6  and  C_9
REMARK    5  A    between atoms: N_23  and  C_24
REMARK    6  A    between atoms: C_24  and  C_25
REMARK                            x       y       z     vdW  Elec       q    Type
REMARK                         _______ _______ _______ _____ _____    ______ ____
ROOT
ATOM      1  C   UNL     1      -4.505  -1.530   1.576  0.00  0.00    +0.117 C 
ATOM      2  C   UNL     1      -4.630  -3.052   1.683  0.00  0.00    +0.128 C 
ATOM      3  C   UNL     1      -5.001  -3.548   0.290  0.00  0.00    -0.035 C 
ATOM      4  C   UNL     1      -4.105  -4.470  -0.031  0.00  0.00    -0.001 A 
ATOM      5  C   UNL     1      -3.986  -5.359  -1.198  0.00  0.00    +0.010 A 
ATOM      6  C   UNL     1      -2.911  -6.191  -1.211  0.00  0.00    +0.001 A 
ATOM      7  C   UNL     1      -1.954  -6.227  -0.193  0.00  0.00    +0.002 A 
ATOM      8  C   UNL     1      -1.987  -5.450   0.919  0.00  0.00    +0.026 A 
ATOM      9  C   UNL     1      -3.074  -4.537   1.050  0.00  0.00    +0.043 A 
ATOM     10  N   UNL     1      -3.363  -3.697   2.024  0.00  0.00    -0.376 N 
ATOM     11  C   UNL     1      -6.139  -2.936  -0.491  0.00  0.00    +0.049 C 
ATOM     12  C   UNL     1      -5.947  -1.411  -0.405  0.00  0.00    +0.090 C 
ATOM     13  N   UNL     1      -5.748  -1.004   0.990  0.00  0.00    -0.288 NA
ATOM     14  H   UNL     1      -2.836  -3.528   2.821  0.00  0.00    +0.160 HD
ENDROOT
BRANCH   1  17
ATOM     15  N   UNL     1      -1.470  -0.312  -0.037  0.00  0.00    -0.269 N 
ATOM     16  C   UNL     1      -2.301  -0.373   1.025  0.00  0.00    +0.113 A 
ATOM     17  C   UNL     1      -3.337  -1.177   0.691  0.00  0.00    +0.009 A 
ATOM     18  C   UNL     1      -3.133  -1.622  -0.619  0.00  0.00    +0.139 A 
ATOM     19  N   UNL     1      -2.017  -1.100  -1.058  0.00  0.00    -0.179 NA
BRANCH  15  21
ATOM     20  C   UNL     1      -0.524   1.893  -0.511  0.00  0.00    +0.032 C 
ATOM     21  C   UNL     1      -0.220   0.448  -0.110  0.00  0.00    +0.101 C 
ATOM     22  C   UNL     1       0.468   0.432   1.256  0.00  0.00    +0.032 C 
ENDBRANCH  15  21
ENDBRANCH   1  17
BRANCH  13  23
ATOM     23  C   UNL     1      -5.819   0.457   1.128  0.00  0.00    +0.127 C 
BRANCH  23  24
ATOM     24  C   UNL     1      -7.196   0.932   0.746  0.00  0.00    +0.049 A 
ATOM     25  C   UNL     1      -8.133   1.125   1.692  0.00  0.00    +0.204 A 
ATOM     26  O   UNL     1      -9.371   1.545   1.412  0.00  0.00    -0.462 OA
ATOM     27  C   UNL     1      -9.778   1.809   0.153  0.00  0.00    +0.138 A 
ATOM     28  C   UNL     1     -11.072   2.244  -0.104  0.00  0.00    +0.047 A 
ATOM     29  C   UNL     1     -11.464   2.508  -1.400  0.00  0.00    +0.004 A 
ATOM     30  C   UNL     1     -10.578   2.343  -2.455  0.00  0.00    +0.001 A 
ATOM     31  C   UNL     1      -9.291   1.912  -2.221  0.00  0.00    +0.015 A 
ATOM     32  C   UNL     1      -8.883   1.643  -0.916  0.00  0.00    +0.064 A 
ATOM     33  C   UNL     1      -7.512   1.185  -0.616  0.00  0.00    +0.197 A 
ATOM     34  O   UNL     1      -6.688   1.025  -1.500  0.00  0.00    -0.287 OA
ENDBRANCH  23  24
ENDBRANCH  13  23
TORSDOF 4
