REMARK  Name = ZINC04143964
REMARK  2 active torsions:
REMARK  status: ('A' for Active; 'I' for Inactive)
REMARK    1  A    between atoms: C_4  and  N_7
REMARK    2  A    between atoms: C_26  and  C_29
REMARK                            x       y       z     vdW  Elec       q    Type
REMARK                         _______ _______ _______ _____ _____    ______ ____
ROOT
ATOM      1  N   UNL     1       1.323  -0.273  -0.012  0.00  0.00    -0.265 N 
ATOM      2  C   UNL     1       2.139   0.716   0.487  0.00  0.00    +0.095 A 
ATOM      3  C   UNL     1       1.644   1.968   0.463  0.00  0.00    +0.034 A 
ATOM      4  S   UNL     1       0.033   1.751  -0.259  0.00  0.00    -0.029 S 
ATOM      5  C   UNL     1       0.100   0.033  -0.489  0.00  0.00    +0.296 A 
ATOM      6  O   UNL     1      -0.744  -0.708  -0.962  0.00  0.00    -0.259 OA
ATOM      7  C   UNL     1       2.255   3.253   0.913  0.00  0.00    +0.077 C 
ATOM      8  C   UNL     1       2.046   4.293  -0.167  0.00  0.00    +0.004 A 
ATOM      9  C   UNL     1       0.803   4.894  -0.271  0.00  0.00    +0.008 A 
ATOM     10  C   UNL     1       0.567   5.842  -1.247  0.00  0.00    +0.001 A 
ATOM     11  C   UNL     1       1.575   6.192  -2.127  0.00  0.00    +0.004 A 
ATOM     12  C   UNL     1       2.816   5.598  -2.026  0.00  0.00    +0.046 A 
ATOM     13  C   UNL     1       3.059   4.646  -1.038  0.00  0.00    +0.135 A 
ATOM     14  O   UNL     1       4.306   4.107  -0.965  0.00  0.00    -0.425 OA
ATOM     15  C   UNL     1       4.478   3.066  -0.124  0.00  0.00    +0.318 C 
ATOM     16  O   UNL     1       5.182   2.127  -0.412  0.00  0.00    -0.250 OA
ATOM     17  C   UNL     1       3.746   3.132   1.195  0.00  0.00    +0.135 C 
ATOM     18  C   UNL     1       4.085   1.937   2.071  0.00  0.00    +0.180 C 
ATOM     19  S   UNL     1       3.766   0.405   1.144  0.00  0.00    -0.091 S 
ENDROOT
BRANCH   1  23
ATOM     20  C   UNL     1       2.636  -4.229  -0.050  0.00  0.00    +0.000 A 
ATOM     21  C   UNL     1       1.949  -3.741   1.046  0.00  0.00    +0.002 A 
ATOM     22  C   UNL     1       1.512  -2.430   1.061  0.00  0.00    +0.026 A 
ATOM     23  C   UNL     1       1.765  -1.603  -0.025  0.00  0.00    +0.051 A 
ATOM     24  C   UNL     1       2.451  -2.098  -1.126  0.00  0.00    +0.026 A 
ATOM     25  C   UNL     1       2.889  -3.408  -1.133  0.00  0.00    +0.002 A 
ENDBRANCH   1  23
BRANCH  18  26
ATOM     26  C   UNL     1       5.540   1.995   2.462  0.00  0.00    +0.370 C 
ATOM     27  O   UNL     1       6.343   2.513   1.724  0.00  0.00    -0.245 OA
ATOM     28  O   UNL     1       5.942   1.470   3.630  0.00  0.00    -0.245 OA
ENDBRANCH  18  26
TORSDOF 2
