REMARK  Name = ZINC08623938
REMARK  10 active torsions:
REMARK  status: ('A' for Active; 'I' for Inactive)
REMARK    1  A    between atoms: C_1  and  C_2
REMARK    2  A    between atoms: C_5  and  C_31
REMARK    3  A    between atoms: C_6  and  N_8
REMARK    4  A    between atoms: C_9  and  C_11
REMARK    5  A    between atoms: C_11  and  S_12
REMARK    6  A    between atoms: S_12  and  C_13
REMARK    7  A    between atoms: C_14  and  C_29
REMARK    8  A    between atoms: C_15  and  C_24
REMARK    9  A    between atoms: C_17  and  C_21
REMARK   10  A    between atoms: C_18  and  C_20
REMARK                            x       y       z     vdW  Elec       q    Type
REMARK                         _______ _______ _______ _____ _____    ______ ____
ROOT
ATOM      1  C   UNL     1       0.201   0.901   2.737  0.00  0.00    +0.080 C 
ATOM      2  C   UNL     1      -0.080   1.095   4.053  0.00  0.00    +0.072 C 
ATOM      3  C   UNL     1       0.783   0.500   5.130  0.00  0.00    +0.134 C 
ATOM      4  C   UNL     1       1.663  -0.582   4.572  0.00  0.00    +0.046 C 
ATOM      5  C   UNL     1       1.875  -0.710   3.253  0.00  0.00    +0.015 C 
ATOM      6  N   UNL     1       1.282   0.137   2.358  0.00  0.00    -0.312 N 
ATOM      7  C   UNL     1       2.777  -1.807   2.749  0.00  0.00    +0.061 C 
ATOM      8  H   UNL     1       1.672   0.206   1.332  0.00  0.00    +0.152 HD
ENDROOT
BRANCH   4   9
ATOM      9  C   UNL     1       2.287  -1.490   5.462  0.00  0.00    +0.240 C 
ATOM     10  O   UNL     1       3.297  -1.162   6.058  0.00  0.00    -0.271 OA
ATOM     11  N   UNL     1       1.762  -2.717   5.649  0.00  0.00    -0.326 N 
ATOM     12  H   UNL     1       2.246  -3.423   6.340  0.00  0.00    +0.145 HD
ATOM     13  H   UNL     1       0.849  -3.013   5.111  0.00  0.00    +0.145 HD
ENDBRANCH   4   9
BRANCH   3  14
ATOM     14  C   UNL     1      -0.098  -0.084   6.204  0.00  0.00    +0.118 A 
ATOM     15  C   UNL     1      -0.178   0.346   7.476  0.00  0.00    +0.045 A 
ATOM     16  C   UNL     1      -1.119  -0.481   8.130  0.00  0.00    +0.041 A 
ATOM     17  C   UNL     1      -1.558  -1.368   7.219  0.00  0.00    +0.195 A 
ATOM     18  O   UNL     1      -0.940  -1.119   6.053  0.00  0.00    -0.467 OA
ENDBRANCH   3  14
BRANCH   2  19
ATOM     19  C   UNL     1      -1.219   1.881   4.420  0.00  0.00    +0.098 C 
ATOM     20  N   UNL     1      -2.122   2.505   4.712  0.00  0.00    -0.191 NA
ENDBRANCH   2  19
BRANCH   1  21
ATOM     21  S   UNL     1      -0.831   1.626   1.507  0.00  0.00    -0.100 S 
BRANCH  21  22
ATOM     22  C   UNL     1       0.005   1.043   0.011  0.00  0.00    +0.171 C 
BRANCH  22  24
ATOM     23  N   UNL     1      -0.278   1.245  -2.438  0.00  0.00    -0.285 N 
ATOM     24  C   UNL     1      -0.724   1.556  -1.204  0.00  0.00    +0.227 C 
ATOM     25  O   UNL     1      -1.711   2.248  -1.072  0.00  0.00    -0.275 OA
ATOM     26  H   UNL     1       0.667   0.695  -2.559  0.00  0.00    +0.155 HD
BRANCH  23  32
ATOM     27  C   UNL     1      -4.598   2.435  -4.461  0.00  0.00    +0.044 C 
ATOM     28  C   UNL     1      -3.113   2.206  -4.573  0.00  0.00    -0.049 A 
ATOM     29  C   UNL     1      -2.479   2.370  -5.792  0.00  0.00    +0.004 A 
ATOM     30  C   UNL     1      -1.117   2.161  -5.899  0.00  0.00    +0.005 A 
ATOM     31  C   UNL     1      -0.383   1.794  -4.788  0.00  0.00    -0.029 A 
ATOM     32  C   UNL     1      -1.017   1.623  -3.564  0.00  0.00    +0.037 A 
ATOM     33  C   UNL     1      -2.386   1.833  -3.460  0.00  0.00    +0.027 A 
ATOM     34  C   UNL     1       1.103   1.572  -4.904  0.00  0.00    +0.045 C 
ENDBRANCH  23  32
ENDBRANCH  22  24
ENDBRANCH  21  22
ENDBRANCH   1  21
TORSDOF 7
