REMARK  Name = ZINC40333967
REMARK  6 active torsions:
REMARK  status: ('A' for Active; 'I' for Inactive)
REMARK    1  A    between atoms: C_1  and  N_2
REMARK    2  A    between atoms: N_2  and  C_3
REMARK    3  A    between atoms: N_2  and  S_10
REMARK    4  A    between atoms: C_3  and  C_4
REMARK    5  A    between atoms: S_10  and  C_13
REMARK    6  A    between atoms: C_16  and  N_20
REMARK                            x       y       z     vdW  Elec       q    Type
REMARK                         _______ _______ _______ _____ _____    ______ ____
ROOT
ATOM      1  S   UNL     1      -0.000  -0.824  -1.437  0.00  0.00    +0.066 S 
ATOM      2  O   UNL     1      -0.531  -2.115  -1.167  0.00  0.00    -0.153 OA
ATOM      3  O   UNL     1      -0.572   0.049  -2.401  0.00  0.00    -0.153 OA
ENDROOT
BRANCH   1   4
ATOM      4  C   UNL     1       1.682  -1.059  -1.905  0.00  0.00    +0.176 A 
ATOM      5  C   UNL     1       2.324  -0.107  -2.678  0.00  0.00    +0.154 A 
ATOM      6  C   UNL     1       3.644  -0.289  -3.048  0.00  0.00    +0.063 A 
ATOM      7  C   UNL     1       4.326  -1.429  -2.642  0.00  0.00    +0.030 A 
ATOM      8  C   UNL     1       3.681  -2.383  -1.866  0.00  0.00    +0.063 A 
ATOM      9  C   UNL     1       2.362  -2.194  -1.495  0.00  0.00    +0.154 A 
ATOM     10  F   UNL     1       1.735  -3.119  -0.735  0.00  0.00    -0.203 F 
ATOM     11  F   UNL     1       1.660   1.002  -3.073  0.00  0.00    -0.203 F 
BRANCH   7  12
ATOM     12  N   UNL     1       5.660  -1.616  -3.014  0.00  0.00    -0.358 N 
ATOM     13  H   UNL     1       6.110  -0.950  -3.556  0.00  0.00    +0.142 HD
ATOM     14  H   UNL     1       6.135  -2.412  -2.731  0.00  0.00    +0.142 HD
ENDBRANCH   7  12
ENDBRANCH   1   4
BRANCH   1  16
ATOM     15  C   UNL     1      -0.018   1.461   0.010  0.00  0.00    +0.132 C 
ATOM     16  N   UNL     1       0.002  -0.004   0.002  0.00  0.00    -0.172 NA
BRANCH  16  17
ATOM     17  C   UNL     1       0.024  -0.743   1.267  0.00  0.00    +0.183 C 
BRANCH  17  18
ATOM     18  C   UNL     1      -1.384  -0.909   1.776  0.00  0.00    +0.122 A 
ATOM     19  C   UNL     1      -2.205  -1.938   1.499  0.00  0.00    +0.047 A 
ATOM     20  C   UNL     1      -3.419  -1.689   2.179  0.00  0.00    +0.057 A 
ATOM     21  C   UNL     1      -3.268  -0.522   2.833  0.00  0.00    +0.170 A 
ATOM     22  O   UNL     1      -2.031  -0.057   2.589  0.00  0.00    -0.452 OA
ATOM     23 BR   UNL     1      -4.571   0.317   3.915  0.00  0.00    -0.008 Br
ENDBRANCH  17  18
ENDBRANCH  16  17
ENDBRANCH   1  16
TORSDOF 5
