REMARK  Name = ZINC37563111
REMARK  7 active torsions:
REMARK  status: ('A' for Active; 'I' for Inactive)
REMARK    1  A    between atoms: C_1  and  O_2
REMARK    2  A    between atoms: O_2  and  C_3
REMARK    3  A    between atoms: C_3  and  C_4
REMARK    4  A    between atoms: C_9  and  N_12
REMARK    5  A    between atoms: N_12  and  C_13
REMARK    6  A    between atoms: C_13  and  C_14
REMARK    7  A    between atoms: C_16  and  N_19
REMARK                            x       y       z     vdW  Elec       q    Type
REMARK                         _______ _______ _______ _____ _____    ______ ____
ROOT
ATOM      1  N   UNL     1      -5.173  -4.962   2.194  0.00  0.00    +0.384 N 
ATOM      2  H   UNL     1      -4.723  -4.750   3.072  0.00  0.00    -0.085 HD
ATOM      3  H   UNL     1      -6.099  -4.562   2.186  0.00  0.00    -0.085 HD
ENDROOT
BRANCH   1   9
ATOM      4  C   UNL     1      -1.156  -2.103   0.002  0.00  0.00    +0.241 C 
ATOM      5  O   UNL     1      -0.054  -2.610  -0.011  0.00  0.00    -0.273 OA
ATOM      6  N   UNL     1      -2.256  -2.882   0.008  0.00  0.00    -0.300 N 
ATOM      7  C   UNL     1      -3.597  -2.283   0.018  0.00  0.00    +0.106 C 
ATOM      8  C   UNL     1      -4.391  -2.870   1.190  0.00  0.00    +0.003 C 
ATOM      9  C   UNL     1      -4.385  -4.397   1.091  0.00  0.00    -0.068 C 
ATOM     10  C   UNL     1      -2.946  -4.910   1.177  0.00  0.00    +0.003 C 
ATOM     11  C   UNL     1      -2.136  -4.347  -0.001  0.00  0.00    +0.106 C 
BRANCH   4  12
ATOM     12  C   UNL     1      -1.295  -0.603   0.011  0.00  0.00    +0.255 C 
BRANCH  12  14
ATOM     13  C   UNL     1      -0.017   1.425   0.010  0.00  0.00    +0.194 C 
ATOM     14  O   UNL     1       0.002  -0.004   0.002  0.00  0.00    -0.374 OA
ENDBRANCH  12  14
ENDBRANCH   4  12
ENDBRANCH   1   9
BRANCH   1  15
ATOM     15  C   UNL     1      -5.268  -6.419   2.032  0.00  0.00    -0.046 C 
BRANCH  15  16
ATOM     16  C   UNL     1      -6.076  -6.999   3.164  0.00  0.00    -0.055 A 
ATOM     17  C   UNL     1      -5.458  -7.400   4.334  0.00  0.00    +0.042 A 
ATOM     18  C   UNL     1      -6.214  -7.917   5.333  0.00  0.00    +0.164 A 
ATOM     19  S   UNL     1      -7.853  -7.848   4.630  0.00  0.00    -0.073 S 
ATOM     20  C   UNL     1      -7.421  -7.130   3.053  0.00  0.00    +0.049 A 
BRANCH  18  21
ATOM     21  N   UNL     1      -5.790  -8.411   6.663  0.00  0.00    +0.063 N 
ATOM     22  O   UNL     1      -4.623  -8.382   6.975  0.00  0.00    -0.126 OA
ATOM     23  O   UNL     1      -6.612  -8.843   7.437  0.00  0.00    -0.126 OA
ENDBRANCH  18  21
ENDBRANCH  15  16
ENDBRANCH   1  15
TORSDOF 6
