REMARK  Name = ZINC27533251
REMARK  9 active torsions:
REMARK  status: ('A' for Active; 'I' for Inactive)
REMARK    1  A    between atoms: C_1  and  C_2
REMARK    2  A    between atoms: C_2  and  O_3
REMARK    3  A    between atoms: O_3  and  C_4
REMARK    4  A    between atoms: C_4  and  C_6
REMARK    5  A    between atoms: C_7  and  N_33
REMARK    6  A    between atoms: C_11  and  C_13
REMARK    7  A    between atoms: C_16  and  O_19
REMARK    8  A    between atoms: O_19  and  C_20
REMARK    9  A    between atoms: C_24  and  C_27
REMARK                            x       y       z     vdW  Elec       q    Type
REMARK                         _______ _______ _______ _____ _____    ______ ____
ROOT
ATOM      1  C   UNL     1       3.614   1.999  -0.511  0.00  0.00    +0.105 C 
ATOM      2  C   UNL     1       3.554   3.343  -0.324  0.00  0.00    +0.195 C 
ATOM      3  O   UNL     1       2.448   3.933   0.153  0.00  0.00    -0.446 OA
ATOM      4  C   UNL     1       1.259   3.309   0.054  0.00  0.00    +0.115 C 
ATOM      5  C   UNL     1       1.177   1.977  -0.111  0.00  0.00    +0.045 C 
ATOM      6  C   UNL     1       2.427   1.134  -0.189  0.00  0.00    +0.097 C 
ATOM      7  C   UNL     1      -0.068   1.327  -0.220  0.00  0.00    +0.164 C 
ATOM      8  O   UNL     1      -0.101   0.119  -0.348  0.00  0.00    -0.292 OA
ATOM      9  C   UNL     1      -1.357   2.102  -0.186  0.00  0.00    +0.088 C 
ATOM     10  C   UNL     1      -1.100   3.518  -0.703  0.00  0.00    +0.034 C 
ATOM     11  C   UNL     1       0.008   4.153   0.140  0.00  0.00    +0.083 C 
ENDROOT
BRANCH   6  12
ATOM     12  C   UNL     1       2.652   0.450   1.136  0.00  0.00    -0.035 A 
ATOM     13  C   UNL     1       2.831   1.205   2.280  0.00  0.00    +0.008 A 
ATOM     14  C   UNL     1       3.031   0.581   3.496  0.00  0.00    +0.046 A 
ATOM     15  C   UNL     1       3.064  -0.804   3.567  0.00  0.00    +0.120 A 
ATOM     16  C   UNL     1       2.890  -1.559   2.416  0.00  0.00    +0.046 A 
ATOM     17  C   UNL     1       2.684  -0.930   1.203  0.00  0.00    +0.008 A 
BRANCH  15  18
ATOM     18  O   UNL     1       3.268  -1.420   4.761  0.00  0.00    -0.495 OA
ATOM     19  C   UNL     1       3.440  -0.580   5.904  0.00  0.00    +0.277 C 
ENDBRANCH  15  18
ENDBRANCH   6  12
BRANCH  10  20
ATOM     20  C   UNL     1      -2.358   4.338  -0.585  0.00  0.00    -0.043 A 
ATOM     21  C   UNL     1      -2.951   4.520   0.651  0.00  0.00    +0.004 A 
ATOM     22  C   UNL     1      -4.104   5.276   0.760  0.00  0.00    +0.000 A 
ATOM     23  C   UNL     1      -4.668   5.842  -0.368  0.00  0.00    +0.000 A 
ATOM     24  C   UNL     1      -4.078   5.656  -1.604  0.00  0.00    +0.000 A 
ATOM     25  C   UNL     1      -2.923   4.904  -1.712  0.00  0.00    +0.004 A 
ENDBRANCH  10  20
BRANCH   2  26
ATOM     26  N   UNL     1       4.645   4.112  -0.630  0.00  0.00    -0.329 N 
ATOM     27  H   UNL     1       4.609   5.201  -0.484  0.00  0.00    +0.145 HD
ATOM     28  H   UNL     1       5.558   3.639  -1.023  0.00  0.00    +0.145 HD
ENDBRANCH   2  26
BRANCH   1  29
ATOM     29  C   UNL     1       4.790   1.414  -1.006  0.00  0.00    +0.341 C 
ATOM     30  O   UNL     1       4.863   1.093  -2.179  0.00  0.00    -0.245 OA
BRANCH  29  31
ATOM     31  O   UNL     1       5.840   1.208  -0.183  0.00  0.00    -0.462 OA
BRANCH  31  33
ATOM     32  C   UNL     1       8.081   0.457   0.322  0.00  0.00    +0.048 C 
ATOM     33  C   UNL     1       7.005   0.609  -0.755  0.00  0.00    +0.229 C 
ENDBRANCH  31  33
ENDBRANCH  29  31
ENDBRANCH   1  29
TORSDOF 7
