REMARK  Name = ZINC13428309
REMARK  3 active torsions:
REMARK  status: ('A' for Active; 'I' for Inactive)
REMARK    1  A    between atoms: C_10  and  N_11
REMARK    2  A    between atoms: C_13  and  C_18
REMARK    3  A    between atoms: C_30  and  C_32
REMARK                            x       y       z     vdW  Elec       q    Type
REMARK                         _______ _______ _______ _____ _____    ______ ____
ROOT
ATOM      1  N   UNL     1      -1.644   1.412   0.882  0.00  0.00    -0.270 N 
ATOM      2  C   UNL     1      -1.451   2.857   0.712  0.00  0.00    +0.127 C 
ATOM      3  C   UNL     1       0.072   3.086   0.824  0.00  0.00    +0.102 C 
ATOM      4  C   UNL     1       0.631   1.707   0.402  0.00  0.00    +0.110 C 
ATOM      5  C   UNL     1      -0.491   0.742   0.714  0.00  0.00    +0.221 C 
ATOM      6  O   UNL     1      -0.369  -0.463   0.794  0.00  0.00    -0.275 OA
ENDROOT
BRANCH   3   7
ATOM      7  C   UNL     1       0.466   3.418   2.240  0.00  0.00    +0.222 C 
ATOM      8  O   UNL     1      -0.387   3.682   3.060  0.00  0.00    -0.275 OA
ATOM      9  N   UNL     1       1.766   3.420   2.595  0.00  0.00    -0.284 N 
ATOM     10  C   UNL     1       2.907   3.249   1.691  0.00  0.00    +0.080 C 
ATOM     11  C   UNL     1       2.644   3.780   0.301  0.00  0.00    +0.023 C 
ATOM     12  C   UNL     1       2.467   5.286   0.293  0.00  0.00    +0.002 C 
ATOM     13  C   UNL     1       3.749   5.919   0.844  0.00  0.00    +0.000 C 
ATOM     14  C   UNL     1       3.931   5.475   2.293  0.00  0.00    +0.005 C 
ATOM     15  C   UNL     1       4.090   3.955   2.377  0.00  0.00    +0.012 C 
ATOM     16  C   UNL     1       3.833   3.563   3.865  0.00  0.00    +0.039 C 
ATOM     17  C   UNL     1       2.292   3.602   3.960  0.00  0.00    +0.190 C 
BRANCH  17  18
ATOM     18  C   UNL     1       1.842   4.931   4.510  0.00  0.00    +0.376 C 
ATOM     19  O   UNL     1       1.266   5.716   3.796  0.00  0.00    -0.244 OA
ATOM     20  O   UNL     1       2.082   5.242   5.794  0.00  0.00    -0.244 OA
ENDBRANCH  17  18
ENDBRANCH   3   7
BRANCH   1  30
ATOM     21  C   UNL     1      -5.459  -0.445  -1.853  0.00  0.00    +0.001 A 
ATOM     22  C   UNL     1      -4.242   0.152  -2.175  0.00  0.00    +0.001 A 
ATOM     23  C   UNL     1      -3.386   0.568  -1.202  0.00  0.00    +0.010 A 
ATOM     24  C   UNL     1      -3.733   0.398   0.148  0.00  0.00    +0.004 A 
ATOM     25  C   UNL     1      -4.967  -0.213   0.477  0.00  0.00    -0.016 A 
ATOM     26  C   UNL     1      -5.826  -0.630  -0.555  0.00  0.00    +0.008 A 
ATOM     27  C   UNL     1      -5.314  -0.389   1.827  0.00  0.00    +0.008 A 
ATOM     28  C   UNL     1      -4.462   0.023   2.807  0.00  0.00    +0.002 A 
ATOM     29  C   UNL     1      -3.245   0.621   2.496  0.00  0.00    +0.024 A 
ATOM     30  C   UNL     1      -2.868   0.811   1.183  0.00  0.00    +0.044 A 
ENDBRANCH   1  30
TORSDOF 3
