REMARK  Name = ZINC39710734
REMARK  15 active torsions:
REMARK  status: ('A' for Active; 'I' for Inactive)
REMARK    1  A    between atoms: C_1  and  C_2
REMARK    2  A    between atoms: C_2  and  O_3
REMARK    3  A    between atoms: O_3  and  C_4
REMARK    4  A    between atoms: C_7  and  C_10
REMARK    5  A    between atoms: C_10  and  N_11
REMARK    6  A    between atoms: N_11  and  C_12
REMARK    7  A    between atoms: N_11  and  C_18
REMARK    8  A    between atoms: C_12  and  C_13
REMARK    9  A    between atoms: C_18  and  C_20
REMARK   10  A    between atoms: C_18  and  C_33
REMARK   11  A    between atoms: C_26  and  C_32
REMARK   12  A    between atoms: N_38  and  C_39
REMARK   13  A    between atoms: C_39  and  C_40
REMARK   14  A    between atoms: C_39  and  C_41
REMARK   15  A    between atoms: C_39  and  C_42
REMARK                            x       y       z     vdW  Elec       q    Type
REMARK                         _______ _______ _______ _____ _____    ______ ____
ROOT
ATOM      1  C   UNL     1      -2.760  -8.021   0.366  0.00  0.00    -0.008 C 
ENDROOT
BRANCH   1   2
ATOM      2  C   UNL     1      -3.222  -8.889   1.538  0.00  0.00    +0.088 C 
ATOM      3  C   UNL     1      -3.374 -10.310   1.032  0.00  0.00    -0.006 C 
ATOM      4  C   UNL     1      -4.600 -10.893   1.165  0.00  0.00    -0.007 A 
ATOM      5  C   UNL     1      -4.834 -12.262   0.704  0.00  0.00    +0.010 A 
ATOM      6  C   UNL     1      -6.071 -12.801   0.857  0.00  0.00    +0.004 A 
ATOM      7  C   UNL     1      -7.112 -12.079   1.441  0.00  0.00    -0.049 A 
ATOM      8  C   UNL     1      -6.959 -10.805   1.889  0.00  0.00    +0.027 A 
ATOM      9  C   UNL     1      -5.716 -10.154   1.779  0.00  0.00    +0.041 A 
ATOM     10  N   UNL     1      -5.578  -8.905   2.223  0.00  0.00    -0.285 N 
ATOM     11  C   UNL     1      -4.441  -8.235   2.148  0.00  0.00    +0.223 C 
ATOM     12  O   UNL     1      -4.375  -7.096   2.570  0.00  0.00    -0.275 OA
ATOM     13  C   UNL     1      -8.460 -12.737   1.580  0.00  0.00    +0.044 C 
ATOM     14  H   UNL     1      -6.347  -8.467   2.619  0.00  0.00    +0.155 HD
ENDBRANCH   1   2
BRANCH   1  15
ATOM     15  C   UNL     1      -3.887  -7.913  -0.664  0.00  0.00    +0.205 C 
ATOM     16  N   UNL     1      -5.102  -7.372  -0.040  0.00  0.00    -0.152 NA
ATOM     17  N   UNL     1      -6.003  -8.208  -0.130  0.00  0.00    -0.070 NA
ATOM     18  N   UNL     1      -5.598  -9.374  -0.778  0.00  0.00    -0.179 N 
ATOM     19  N   UNL     1      -4.279  -9.255  -1.142  0.00  0.00    -0.183 NA
ATOM     20  H   UNL     1      -6.159 -10.147  -0.947  0.00  0.00    +0.191 HD
BRANCH  19  21
ATOM     21  C   UNL     1      -4.121  -9.362  -2.598  0.00  0.00    +0.035 C 
ATOM     22  C   UNL     1      -2.657  -9.117  -2.971  0.00  0.00    +0.029 C 
ATOM     23  C   UNL     1      -4.535 -10.762  -3.055  0.00  0.00    +0.029 C 
ATOM     24  C   UNL     1      -5.004  -8.319  -3.286  0.00  0.00    +0.029 C 
ENDBRANCH  19  21
ENDBRANCH   1  15
BRANCH   1  25
ATOM     25  N   UNL     1      -2.415  -6.680   0.856  0.00  0.00    +0.392 N 
ATOM     26  H   UNL     1      -3.229  -6.254   1.273  0.00  0.00    -0.080 HD
BRANCH  25  27
ATOM     27  C   UNL     1      -1.950  -5.853  -0.266  0.00  0.00    -0.042 C 
BRANCH  27  31
ATOM     28  C   UNL     1      -1.488  -1.810   1.040  0.00  0.00    +0.121 A 
ATOM     29  C   UNL     1      -0.391  -2.659   1.005  0.00  0.00    +0.046 A 
ATOM     30  C   UNL     1      -0.543  -3.965   0.583  0.00  0.00    +0.005 A 
ATOM     31  C   UNL     1      -1.787  -4.427   0.195  0.00  0.00    -0.064 A 
ATOM     32  C   UNL     1      -2.882  -3.583   0.229  0.00  0.00    +0.005 A 
ATOM     33  C   UNL     1      -2.736  -2.278   0.657  0.00  0.00    +0.046 A 
BRANCH  28  34
ATOM     34  O   UNL     1      -1.341  -0.524   1.456  0.00  0.00    -0.492 OA
BRANCH  34  36
ATOM     35  C   UNL     1      -0.031   1.415   2.059  0.00  0.00    +0.048 C 
ATOM     36  C   UNL     1      -0.010  -0.078   1.725  0.00  0.00    +0.225 C 
ENDBRANCH  34  36
ENDBRANCH  28  34
ENDBRANCH  27  31
ENDBRANCH  25  27
BRANCH  25  37
ATOM     37  C   UNL     1      -1.348  -6.785   1.861  0.00  0.00    -0.002 C 
BRANCH  37  38
ATOM     38  C   UNL     1      -0.210  -7.600   1.302  0.00  0.00    +0.089 A 
ATOM     39  C   UNL     1       0.896  -7.108   0.716  0.00  0.00    +0.042 A 
ATOM     40  C   UNL     1       1.690  -8.216   0.344  0.00  0.00    +0.041 A 
ATOM     41  C   UNL     1       1.022  -9.320   0.724  0.00  0.00    +0.195 A 
ATOM     42  O   UNL     1      -0.126  -8.940   1.309  0.00  0.00    -0.470 OA
ENDBRANCH  37  38
ENDBRANCH  25  37
ENDBRANCH   1  25
TORSDOF 10
