REMARK  Name = ZINC37022231
REMARK  6 active torsions:
REMARK  status: ('A' for Active; 'I' for Inactive)
REMARK    1  A    between atoms: C_3  and  O_9
REMARK    2  A    between atoms: O_9  and  C_10
REMARK    3  A    between atoms: C_10  and  C_11
REMARK    4  A    between atoms: C_11  and  S_12
REMARK    5  A    between atoms: S_12  and  C_13
REMARK    6  A    between atoms: C_19  and  N_21
REMARK                            x       y       z     vdW  Elec       q    Type
REMARK                         _______ _______ _______ _____ _____    ______ ____
ROOT
ATOM      1  S   UNL     1       4.742   5.946  -0.013  0.00  0.00    -0.084 S 
ENDROOT
BRANCH   1   2
ATOM      2  C   UNL     1       6.420   6.483  -0.027  0.00  0.00    +0.171 A 
ATOM      3  N   UNL     1       6.693   7.818  -0.017  0.00  0.00    -0.302 N 
ATOM      4  H   UNL     1       5.967   8.461  -0.003  0.00  0.00    +0.171 HD
ATOM      5  C   UNL     1       7.972   8.247  -0.028  0.00  0.00    +0.254 A 
ATOM      6  O   UNL     1       8.226   9.442  -0.019  0.00  0.00    -0.268 OA
ATOM      7  C   UNL     1       9.002   7.302  -0.048  0.00  0.00    +0.113 A 
ATOM      8  C   UNL     1       8.671   5.954  -0.057  0.00  0.00    +0.124 A 
ATOM      9  N   UNL     1       7.384   5.587  -0.041  0.00  0.00    -0.209 NA
BRANCH   8  10
ATOM     10  N   UNL     1       9.665   4.996  -0.077  0.00  0.00    -0.343 N 
ATOM     11  H   UNL     1      10.597   5.265  -0.085  0.00  0.00    +0.144 HD
ATOM     12  H   UNL     1       9.431   4.055  -0.084  0.00  0.00    +0.144 HD
ENDBRANCH   8  10
ENDBRANCH   1   2
BRANCH   1  13
ATOM     13  C   UNL     1       4.861   4.136  -0.024  0.00  0.00    +0.118 C 
BRANCH  13  14
ATOM     14  C   UNL     1       3.455   3.532  -0.013  0.00  0.00    +0.240 C 
BRANCH  14  15
ATOM     15  O   UNL     1       3.548   2.106  -0.021  0.00  0.00    -0.490 OA
BRANCH  15  18
ATOM     16  C   UNL     1      -0.017   1.379   0.010  0.00  0.00    +0.023 A 
ATOM     17  C   UNL     1       1.170   2.087   0.002  0.00  0.00    +0.048 A 
ATOM     18  C   UNL     1       2.380   1.411  -0.013  0.00  0.00    +0.135 A 
ATOM     19  C   UNL     1       2.397   0.023  -0.021  0.00  0.00    +0.061 A 
ATOM     20  C   UNL     1       1.209  -0.681  -0.013  0.00  0.00    +0.039 A 
ATOM     21  C   UNL     1       0.002  -0.004   0.002  0.00  0.00    +0.042 A 
ATOM     22 CL   UNL     1      -1.490  -0.891   0.011  0.00  0.00    -0.084 Cl
ATOM     23 BR   UNL     1       4.046  -0.903  -0.042  0.00  0.00    -0.046 Br
ENDBRANCH  15  18
ENDBRANCH  14  15
ENDBRANCH  13  14
ENDBRANCH   1  13
TORSDOF 6
