REMARK  Name = ZINC35375001
REMARK  7 active torsions:
REMARK  status: ('A' for Active; 'I' for Inactive)
REMARK    1  A    between atoms: C_1  and  C_2
REMARK    2  A    between atoms: C_2  and  C_3
REMARK    3  A    between atoms: C_3  and  C_5
REMARK    4  A    between atoms: C_3  and  N_6
REMARK    5  A    between atoms: C_27  and  C_29
REMARK    6  A    between atoms: C_29  and  C_30
REMARK    7  A    between atoms: C_29  and  C_31
REMARK                            x       y       z     vdW  Elec       q    Type
REMARK                         _______ _______ _______ _____ _____    ______ ____
ROOT
ATOM      1  N   UNL     1      -0.784  -1.511  -3.782  0.00  0.00    -0.239 N 
ATOM      2  C   UNL     1      -2.126  -1.340  -3.566  0.00  0.00    +0.227 C 
ATOM      3  O   UNL     1      -2.741  -1.595  -2.553  0.00  0.00    -0.275 OA
ATOM      4  C   UNL     1      -2.679  -0.774  -4.839  0.00  0.00    +0.107 C 
ATOM      5  C   UNL     1      -1.415   0.078  -5.217  0.00  0.00    +0.122 C 
ATOM      6  C   UNL     1      -0.320  -0.777  -4.846  0.00  0.00    +0.228 C 
ATOM      7  O   UNL     1       0.775  -0.838  -5.363  0.00  0.00    -0.275 OA
ATOM      8  C   UNL     1      -1.857   1.080  -6.178  0.00  0.00    +0.136 C 
ATOM      9  C   UNL     1      -1.477   0.791  -7.609  0.00  0.00    +0.004 A 
ATOM     10  C   UNL     1      -1.672  -0.295  -8.432  0.00  0.00    +0.023 A 
ATOM     11  C   UNL     1      -1.196  -0.271  -9.732  0.00  0.00    +0.018 A 
ATOM     12  C   UNL     1      -0.527   0.846 -10.199  0.00  0.00    +0.017 A 
ATOM     13  C   UNL     1      -0.331   1.936  -9.377  0.00  0.00    +0.025 A 
ATOM     14  C   UNL     1      -0.806   1.919  -8.067  0.00  0.00    +0.039 A 
ATOM     15  N   UNL     1      -0.734   2.881  -7.058  0.00  0.00    -0.283 N 
ATOM     16  C   UNL     1      -1.324   2.471  -5.922  0.00  0.00    +0.243 C 
ATOM     17  O   UNL     1      -1.412   3.098  -4.887  0.00  0.00    -0.273 OA
ATOM     18 BR   UNL     1      -1.461  -1.761 -10.866  0.00  0.00    -0.050 Br
ATOM     19  N   UNL     1      -3.352   1.114  -6.072  0.00  0.00    -0.295 NA
ATOM     20  C   UNL     1      -3.707   0.356  -4.796  0.00  0.00    +0.070 C 
ATOM     21  H   UNL     1      -0.308   3.746  -7.165  0.00  0.00    +0.155 HD
ATOM     22  H   UNL     1      -3.690   2.064  -6.033  0.00  0.00    +0.124 HD
ENDROOT
BRANCH  20  23
ATOM     23  C   UNL     1      -3.513   1.226  -3.552  0.00  0.00    +0.001 C 
ATOM     24  C   UNL     1      -4.415   2.458  -3.646  0.00  0.00    +0.009 C 
ATOM     25  C   UNL     1      -3.877   0.420  -2.304  0.00  0.00    +0.009 C 
ENDBRANCH  20  23
BRANCH   1  26
ATOM     26  C   UNL     1       0.065  -2.378  -2.962  0.00  0.00    +0.081 C 
ATOM     27  C   UNL     1      -0.449  -3.817  -3.039  0.00  0.00    +0.028 C 
BRANCH  26  29
ATOM     28  C   UNL     1       0.659  -0.509  -1.413  0.00  0.00    +0.006 C 
ATOM     29  C   UNL     1       0.029  -1.901  -1.509  0.00  0.00    +0.019 C 
ENDBRANCH  26  29
ENDBRANCH   1  26
TORSDOF 3
