REMARK  Name = ZINC34968243
REMARK  10 active torsions:
REMARK  status: ('A' for Active; 'I' for Inactive)
REMARK    1  A    between atoms: C_1  and  C_2
REMARK    2  A    between atoms: C_2  and  O_3
REMARK    3  A    between atoms: O_3  and  C_4
REMARK    4  A    between atoms: C_4  and  C_6
REMARK    5  A    between atoms: C_7  and  C_30
REMARK    6  A    between atoms: C_8  and  C_29
REMARK    7  A    between atoms: C_10  and  N_11
REMARK    8  A    between atoms: C_12  and  C_14
REMARK    9  A    between atoms: C_17  and  C_19
REMARK   10  A    between atoms: C_22  and  N_26
REMARK                            x       y       z     vdW  Elec       q    Type
REMARK                         _______ _______ _______ _____ _____    ______ ____
ROOT
ATOM      1  N   UNL     1      -0.595  -2.461  -3.937  0.00  0.00    -0.273 N 
ATOM      2  C   UNL     1      -1.103  -2.790  -5.141  0.00  0.00    +0.284 C 
ATOM      3  O   UNL     1      -0.373  -3.234  -6.008  0.00  0.00    -0.266 OA
ATOM      4  H   UNL     1      -1.177  -2.107  -3.245  0.00  0.00    +0.156 HD
ENDROOT
BRANCH   1   9
ATOM      5  C   UNL     1       1.449  -2.344  -2.516  0.00  0.00    +0.091 A 
ATOM      6  C   UNL     1       2.868  -2.621  -2.523  0.00  0.00    -0.025 A 
ATOM      7  C   UNL     1       3.362  -3.119  -3.671  0.00  0.00    -0.008 A 
ATOM      8  S   UNL     1       1.934  -3.214  -4.727  0.00  0.00    -0.078 S 
ATOM      9  C   UNL     1       0.756  -2.627  -3.686  0.00  0.00    +0.087 A 
ATOM     10  C   UNL     1       4.785  -3.504  -3.986  0.00  0.00    +0.052 C 
ATOM     11  C   UNL     1       3.739  -2.366  -1.320  0.00  0.00    +0.045 C 
BRANCH   5  12
ATOM     12  C   UNL     1       0.776  -1.800  -1.335  0.00  0.00    +0.342 C 
ATOM     13  O   UNL     1       0.312  -2.552  -0.499  0.00  0.00    -0.245 OA
BRANCH  12  14
ATOM     14  O   UNL     1       0.671  -0.465  -1.174  0.00  0.00    -0.461 OA
BRANCH  14  16
ATOM     15  C   UNL     1      -0.019   1.526   0.010  0.00  0.00    +0.048 C 
ATOM     16  C   UNL     1       0.002  -0.004   0.002  0.00  0.00    +0.229 C 
ENDBRANCH  14  16
ENDBRANCH  12  14
ENDBRANCH   5  12
ENDBRANCH   1   9
BRANCH   2  17
ATOM     17  C   UNL     1      -2.532  -2.615  -5.406  0.00  0.00    +0.190 A 
ATOM     18  C   UNL     1      -3.180  -2.915  -6.585  0.00  0.00    +0.055 A 
ATOM     19  C   UNL     1      -4.527  -2.593  -6.398  0.00  0.00    +0.051 A 
ATOM     20  C   UNL     1      -4.653  -2.113  -5.126  0.00  0.00    +0.137 A 
ATOM     21  O   UNL     1      -3.447  -2.136  -4.536  0.00  0.00    -0.450 OA
BRANCH  20  22
ATOM     22  C   UNL     1      -5.909  -1.651  -4.501  0.00  0.00    +0.036 A 
ATOM     23  C   UNL     1      -6.731  -0.740  -5.168  0.00  0.00    +0.015 A 
ATOM     24  C   UNL     1      -7.902  -0.313  -4.578  0.00  0.00    +0.033 A 
ATOM     25  C   UNL     1      -8.264  -0.784  -3.328  0.00  0.00    +0.128 A 
ATOM     26  C   UNL     1      -7.455  -1.685  -2.660  0.00  0.00    +0.053 A 
ATOM     27  C   UNL     1      -6.282  -2.127  -3.241  0.00  0.00    +0.054 A 
ATOM     28 CL   UNL     1      -5.272  -3.265  -2.406  0.00  0.00    -0.083 Cl
BRANCH  25  29
ATOM     29  N   UNL     1      -9.523  -0.320  -2.702  0.00  0.00    +0.056 N 
ATOM     30  O   UNL     1     -10.232   0.468  -3.282  0.00  0.00    -0.126 OA
ATOM     31  O   UNL     1      -9.841  -0.730  -1.610  0.00  0.00    -0.126 OA
ENDBRANCH  25  29
ENDBRANCH  20  22
ENDBRANCH   2  17
TORSDOF 7
