REMARK  Name = ZINC45022610
REMARK  6 active torsions:
REMARK  status: ('A' for Active; 'I' for Inactive)
REMARK    1  A    between atoms: C_3  and  O_29
REMARK    2  A    between atoms: C_6  and  C_7
REMARK    3  A    between atoms: N_8  and  N_9
REMARK    4  A    between atoms: C_10  and  C_12
REMARK    5  A    between atoms: C_12  and  C_13
REMARK    6  A    between atoms: C_13  and  N_14
REMARK                            x       y       z     vdW  Elec       q    Type
REMARK                         _______ _______ _______ _____ _____    ______ ____
ROOT
ATOM      1  C   UNL     1       1.059  -6.296  -0.594  0.00  0.00    +0.131 C 
ENDROOT
BRANCH   1   2
ATOM      2  N   UNL     1       2.336  -7.013  -0.611  0.00  0.00    -0.339 N 
ATOM      3  C   UNL     1       3.114  -7.217  -1.737  0.00  0.00    +0.050 A 
ATOM      4  C   UNL     1       2.950  -6.848  -3.068  0.00  0.00    +0.028 A 
ATOM      5  C   UNL     1       3.903  -7.191  -4.003  0.00  0.00    +0.022 A 
ATOM      6  C   UNL     1       5.032  -7.905  -3.629  0.00  0.00    +0.042 A 
ATOM      7  C   UNL     1       5.213  -8.280  -2.314  0.00  0.00    +0.030 A 
ATOM      8  C   UNL     1       4.256  -7.939  -1.360  0.00  0.00    +0.009 A 
ATOM      9  C   UNL     1       4.142  -8.176   0.091  0.00  0.00    +0.009 A 
ATOM     10  C   UNL     1       2.941  -7.578   0.499  0.00  0.00    +0.050 A 
ATOM     11  C   UNL     1       2.569  -7.640   1.838  0.00  0.00    +0.028 A 
ATOM     12  C   UNL     1       3.380  -8.281   2.751  0.00  0.00    +0.022 A 
ATOM     13  C   UNL     1       4.569  -8.869   2.346  0.00  0.00    +0.042 A 
ATOM     14  C   UNL     1       4.950  -8.825   1.021  0.00  0.00    +0.030 A 
ATOM     15 CL   UNL     1       5.577  -9.672   3.510  0.00  0.00    -0.084 Cl
ATOM     16 CL   UNL     1       6.222  -8.328  -4.820  0.00  0.00    -0.084 Cl
ENDBRANCH   1   2
BRANCH   1  17
ATOM     17  C   UNL     1       1.312  -4.809  -0.338  0.00  0.00    +0.119 C 
BRANCH  17  19
ATOM     18  N   UNL     1      -0.025  -2.740  -0.111  0.00  0.00    -0.207 N 
ATOM     19  C   UNL     1      -0.002  -4.071  -0.321  0.00  0.00    +0.234 C 
ATOM     20  O   UNL     1      -1.039  -4.675  -0.496  0.00  0.00    -0.274 OA
ATOM     21  H   UNL     1       0.804  -2.257   0.029  0.00  0.00    +0.177 HD
BRANCH  18  23
ATOM     22  C   UNL     1      -1.262  -0.759  -0.018  0.00  0.00    +0.138 C 
ATOM     23  N   UNL     1      -1.246  -2.054  -0.095  0.00  0.00    -0.188 NA
BRANCH  22  29
ATOM     24  C   UNL     1       0.865  -0.583  -1.297  0.00  0.00    +0.013 A 
ATOM     25  C   UNL     1       1.944   0.151  -1.741  0.00  0.00    +0.046 A 
ATOM     26  C   UNL     1       2.066   1.490  -1.393  0.00  0.00    +0.117 A 
ATOM     27  C   UNL     1       1.103   2.095  -0.596  0.00  0.00    +0.046 A 
ATOM     28  C   UNL     1       0.021   1.369  -0.148  0.00  0.00    +0.013 A 
ATOM     29  C   UNL     1      -0.106   0.022  -0.495  0.00  0.00    -0.005 A 
BRANCH  26  30
ATOM     30  O   UNL     1       3.131   2.209  -1.832  0.00  0.00    -0.507 OA
ATOM     31  H   UNL     1       2.987   2.647  -2.682  0.00  0.00    +0.292 HD
ENDBRANCH  26  30
ENDBRANCH  22  29
ENDBRANCH  18  23
ENDBRANCH  17  19
ENDBRANCH   1  17
TORSDOF 6
