REMARK  Name = ZINC39915914
REMARK  15 active torsions:
REMARK  status: ('A' for Active; 'I' for Inactive)
REMARK    1  A    between atoms: C_1  and  C_2
REMARK    2  A    between atoms: C_2  and  C_3
REMARK    3  A    between atoms: C_2  and  C_4
REMARK    4  A    between atoms: C_4  and  C_5
REMARK    5  A    between atoms: C_5  and  O_6
REMARK    6  A    between atoms: O_6  and  C_7
REMARK    7  A    between atoms: C_10  and  C_13
REMARK    8  A    between atoms: C_13  and  N_14
REMARK    9  A    between atoms: C_22  and  S_23
REMARK   10  A    between atoms: S_23  and  C_24
REMARK   11  A    between atoms: C_26  and  O_39
REMARK   12  A    between atoms: C_28  and  O_38
REMARK   13  A    between atoms: C_30  and  O_37
REMARK   14  A    between atoms: C_32  and  C_35
REMARK   15  A    between atoms: C_35  and  O_36
REMARK                            x       y       z     vdW  Elec       q    Type
REMARK                         _______ _______ _______ _____ _____    ______ ____
ROOT
ATOM      1  N   UNL     1      -2.596  -0.608   9.025  0.00  0.00    -0.314 N 
ATOM      2  C   UNL     1      -3.943  -0.707   8.717  0.00  0.00    +0.070 A 
ATOM      3  C   UNL     1      -4.833   0.103   8.028  0.00  0.00    +0.028 A 
ATOM      4  C   UNL     1      -6.149  -0.286   7.889  0.00  0.00    +0.002 A 
ATOM      5  C   UNL     1      -6.589  -1.483   8.435  0.00  0.00    +0.002 A 
ATOM      6  C   UNL     1      -5.719  -2.299   9.123  0.00  0.00    +0.030 A 
ATOM      7  C   UNL     1      -4.383  -1.920   9.272  0.00  0.00    +0.090 A 
ATOM      8  N   UNL     1      -3.312  -2.494   9.879  0.00  0.00    -0.222 NA
ATOM      9  C   UNL     1      -2.259  -1.728   9.731  0.00  0.00    +0.173 A 
ENDROOT
BRANCH   1  10
ATOM     10  C   UNL     1      -1.698   0.491   8.658  0.00  0.00    +0.159 C 
BRANCH  10  14
ATOM     11  C   UNL     1       0.083  -0.335   4.862  0.00  0.00    +0.121 A 
ATOM     12  C   UNL     1      -1.116   0.359   4.931  0.00  0.00    +0.046 A 
ATOM     13  C   UNL     1      -1.690   0.625   6.159  0.00  0.00    +0.009 A 
ATOM     14  C   UNL     1      -1.070   0.200   7.319  0.00  0.00    -0.027 A 
ATOM     15  C   UNL     1       0.125  -0.492   7.254  0.00  0.00    +0.009 A 
ATOM     16  C   UNL     1       0.700  -0.765   6.028  0.00  0.00    +0.046 A 
BRANCH  11  17
ATOM     17  O   UNL     1       0.650  -0.597   3.655  0.00  0.00    -0.492 OA
BRANCH  17  18
ATOM     18  C   UNL     1      -0.042  -0.124   2.497  0.00  0.00    +0.229 C 
BRANCH  18  19
ATOM     19  C   UNL     1       0.742  -0.511   1.242  0.00  0.00    +0.044 C 
BRANCH  19  21
ATOM     20  C   UNL     1      -0.019   1.526   0.010  0.00  0.00    +0.007 C 
ATOM     21  C   UNL     1       0.002  -0.004   0.002  0.00  0.00    -0.014 C 
ATOM     22  C   UNL     1       0.718  -0.497  -1.257  0.00  0.00    +0.007 C 
ENDBRANCH  19  21
ENDBRANCH  18  19
ENDBRANCH  17  18
ENDBRANCH  11  17
ENDBRANCH  10  14
ENDBRANCH   1  10
BRANCH   9  23
ATOM     23  S   UNL     1      -0.650  -2.087  10.353  0.00  0.00    -0.054 S 
BRANCH  23  24
ATOM     24  C   UNL     1      -0.847  -3.688  11.182  0.00  0.00    +0.214 C 
ATOM     25  C   UNL     1       0.417  -4.007  11.984  0.00  0.00    +0.185 C 
ATOM     26  C   UNL     1       0.267  -5.387  12.632  0.00  0.00    +0.177 C 
ATOM     27  C   UNL     1      -0.005  -6.425  11.539  0.00  0.00    +0.176 C 
ATOM     28  C   UNL     1      -1.253  -6.013  10.754  0.00  0.00    +0.176 C 
ATOM     29  O   UNL     1      -1.059  -4.708  10.204  0.00  0.00    -0.355 OA
BRANCH  27  30
ATOM     30  O   UNL     1       1.116  -6.493  10.655  0.00  0.00    -0.386 OA
ATOM     31  H   UNL     1       1.943  -6.745  11.088  0.00  0.00    +0.210 HD
ENDBRANCH  27  30
BRANCH  26  32
ATOM     32  O   UNL     1       1.471  -5.724  13.324  0.00  0.00    -0.386 OA
ATOM     33  H   UNL     1       1.707  -5.103  14.027  0.00  0.00    +0.210 HD
ENDBRANCH  26  32
BRANCH  25  34
ATOM     34  O   UNL     1       0.601  -3.019  13.000  0.00  0.00    -0.386 OA
ATOM     35  H   UNL     1       0.698  -2.119  12.660  0.00  0.00    +0.210 HD
ENDBRANCH  25  34
BRANCH  28  36
ATOM     36  C   UNL     1      -1.498  -7.013   9.623  0.00  0.00    +0.190 C 
BRANCH  36  37
ATOM     37  O   UNL     1      -2.725  -6.696   8.963  0.00  0.00    -0.392 OA
ATOM     38  H   UNL     1      -2.944  -7.290   8.233  0.00  0.00    +0.210 HD
ENDBRANCH  36  37
ENDBRANCH  28  36
ENDBRANCH  23  24
ENDBRANCH   9  23
TORSDOF 13
