REMARK  Name = ZINC41006569
REMARK  9 active torsions:
REMARK  status: ('A' for Active; 'I' for Inactive)
REMARK    1  A    between atoms: C_1  and  C_2
REMARK    2  A    between atoms: C_7  and  N_8
REMARK    3  A    between atoms: C_9  and  C_11
REMARK    4  A    between atoms: C_13  and  C_33
REMARK    5  A    between atoms: C_15  and  C_23
REMARK    6  A    between atoms: C_17  and  C_21
REMARK    7  A    between atoms: C_17  and  O_22
REMARK    8  A    between atoms: N_25  and  C_26
REMARK    9  A    between atoms: C_31  and  C_32
REMARK                            x       y       z     vdW  Elec       q    Type
REMARK                         _______ _______ _______ _____ _____    ______ ____
ROOT
ATOM      1  C   UNL     1       0.286   0.832   5.210  0.00  0.00    +0.149 C 
ATOM      2  C   UNL     1       0.163  -0.404   6.107  0.00  0.00    +0.053 C 
ATOM      3  C   UNL     1      -0.079   0.038   7.551  0.00  0.00    +0.115 C 
ATOM      4  C   UNL     1       1.131   0.823   8.062  0.00  0.00    +0.082 C 
ATOM      5  C   UNL     1       1.290   2.105   7.239  0.00  0.00    +0.110 C 
ATOM      6  C   UNL     1       1.361   1.734   5.773  0.00  0.00    +0.148 C 
ATOM      7  O   UNL     1       2.255   2.144   5.072  0.00  0.00    -0.296 OA
ATOM      8  C   UNL     1       0.919   1.185   9.534  0.00  0.00    +0.042 C 
ENDROOT
BRANCH   2   9
ATOM      9  C   UNL     1      -0.993  -1.251   5.640  0.00  0.00    -0.035 A 
ATOM     10  C   UNL     1      -2.227  -0.698   5.483  0.00  0.00    +0.004 A 
ATOM     11  C   UNL     1      -3.308  -1.464   5.053  0.00  0.00    +0.001 A 
ATOM     12  C   UNL     1      -3.161  -2.789   4.777  0.00  0.00    +0.008 A 
ATOM     13  C   UNL     1      -1.903  -3.396   4.926  0.00  0.00    -0.018 A 
ATOM     14  C   UNL     1      -0.802  -2.614   5.359  0.00  0.00    -0.014 A 
ATOM     15  C   UNL     1       0.459  -3.220   5.503  0.00  0.00    +0.009 A 
ATOM     16  C   UNL     1       0.606  -4.543   5.221  0.00  0.00    +0.001 A 
ATOM     17  C   UNL     1      -0.475  -5.310   4.790  0.00  0.00    +0.001 A 
ATOM     18  C   UNL     1      -1.713  -4.761   4.652  0.00  0.00    +0.008 A 
ENDBRANCH   2   9
BRANCH   1  20
ATOM     19  N   UNL     1       0.833   1.336   2.850  0.00  0.00    -0.285 N 
ATOM     20  C   UNL     1       0.662   0.408   3.813  0.00  0.00    +0.228 C 
ATOM     21  O   UNL     1       0.810  -0.768   3.555  0.00  0.00    -0.275 OA
ATOM     22  H   UNL     1       0.779   2.279   3.071  0.00  0.00    +0.155 HD
BRANCH  19  29
ATOM     23  C   UNL     1      -0.191   2.944   0.739  0.00  0.00    +0.045 C 
ATOM     24  C   UNL     1       0.608   1.694   0.473  0.00  0.00    -0.029 A 
ATOM     25  C   UNL     1       0.867   1.303  -0.826  0.00  0.00    +0.005 A 
ATOM     26  C   UNL     1       1.600   0.156  -1.071  0.00  0.00    +0.000 A 
ATOM     27  C   UNL     1       2.076  -0.602  -0.017  0.00  0.00    +0.002 A 
ATOM     28  C   UNL     1       1.821  -0.215   1.284  0.00  0.00    +0.023 A 
ATOM     29  C   UNL     1       1.089   0.939   1.533  0.00  0.00    +0.036 A 
ENDBRANCH  19  29
ENDBRANCH   1  20
BRANCH   3  30
ATOM     30  C   UNL     1      -1.304   0.914   7.608  0.00  0.00    +0.224 C 
ATOM     31  O   UNL     1      -1.323   1.968   7.009  0.00  0.00    -0.275 OA
ATOM     32  N   UNL     1      -2.377   0.526   8.325  0.00  0.00    -0.285 N 
ATOM     33  H   UNL     1      -2.337  -0.283   8.858  0.00  0.00    +0.155 HD
BRANCH  32  34
ATOM     34  C   UNL     1      -3.548   1.290   8.300  0.00  0.00    +0.036 A 
ATOM     35  C   UNL     1      -3.768   2.193   7.268  0.00  0.00    +0.023 A 
ATOM     36  C   UNL     1      -4.926   2.946   7.246  0.00  0.00    +0.002 A 
ATOM     37  C   UNL     1      -5.865   2.802   8.251  0.00  0.00    +0.000 A 
ATOM     38  C   UNL     1      -5.649   1.905   9.280  0.00  0.00    +0.005 A 
ATOM     39  C   UNL     1      -4.496   1.144   9.304  0.00  0.00    -0.029 A 
ATOM     40  C   UNL     1      -4.265   0.161  10.422  0.00  0.00    +0.045 C 
ENDBRANCH  32  34
ENDBRANCH   3  30
BRANCH   4  41
ATOM     41  O   UNL     1       2.308   0.023   7.932  0.00  0.00    -0.388 OA
ATOM     42  H   UNL     1       3.115   0.459   8.238  0.00  0.00    +0.210 HD
ENDBRANCH   4  41
TORSDOF 6
