REMARK  Name = ZINC05612842
REMARK  3 active torsions:
REMARK  status: ('A' for Active; 'I' for Inactive)
REMARK    1  A    between atoms: N_8  and  O_9
REMARK    2  A    between atoms: C_10  and  S_16
REMARK    3  A    between atoms: S_16  and  C_17
REMARK                            x       y       z     vdW  Elec       q    Type
REMARK                         _______ _______ _______ _____ _____    ______ ____
ROOT
ATOM      1  C   UNL     1      -0.202  -1.103   3.439  0.00  0.00    +0.000 C 
ATOM      2  C   UNL     1       1.215  -1.031   4.012  0.00  0.00    +0.000 C 
ATOM      3  C   UNL     1       1.433   0.336   4.663  0.00  0.00    +0.000 C 
ATOM      4  C   UNL     1       2.680   0.992   4.068  0.00  0.00    +0.000 C 
ATOM      5  C   UNL     1       2.331   2.397   3.574  0.00  0.00    +0.006 C 
ATOM      6  C   UNL     1       2.825   2.570   2.136  0.00  0.00    +0.055 C 
ATOM      7  C   UNL     1       1.657   2.881   1.237  0.00  0.00    +0.071 C 
ATOM      8  N   UNL     1       0.868   3.847   1.524  0.00  0.00    -0.095 NA
ATOM      9  C   UNL     1       1.417   2.055  -0.000  0.00  0.00    +0.101 C 
ATOM     10  C   UNL     1      -0.019   1.526   0.010  0.00  0.00    +0.020 C 
ATOM     11  C   UNL     1       0.002  -0.004   0.002  0.00  0.00    +0.001 C 
ATOM     12  C   UNL     1      -0.909  -0.533   1.111  0.00  0.00    +0.000 C 
ATOM     13  C   UNL     1      -0.137  -1.534   1.972  0.00  0.00    +0.000 C 
ENDROOT
BRANCH   8  14
ATOM     14  O   UNL     1      -0.230   4.140   0.679  0.00  0.00    -0.409 OA
ATOM     15  H   UNL     1      -0.768   4.886   0.978  0.00  0.00    +0.328 HD
ENDBRANCH   8  14
BRANCH   9  16
ATOM     16  S   UNL     1       2.576   0.660  -0.030  0.00  0.00    -0.088 S 
BRANCH  16  17
ATOM     17  C   UNL     1       4.156   1.423  -0.189  0.00  0.00    +0.161 A 
ATOM     18  N   UNL     1       4.463   2.703  -0.270  0.00  0.00    -0.133 NA
ATOM     19  N   UNL     1       5.779   3.086  -0.391  0.00  0.00    -0.125 NA
ATOM     20  C   UNL     1       6.728   2.171  -0.425  0.00  0.00    +0.180 A 
ATOM     21  S   UNL     1       5.773   0.668  -0.276  0.00  0.00    -0.025 S 
ATOM     22  N   UNL     1       8.103   2.333  -0.541  0.00  0.00    -0.336 N 
ATOM     23  H   UNL     1       8.483   3.223  -0.610  0.00  0.00    +0.144 HD
ATOM     24  H   UNL     1       8.684   1.556  -0.553  0.00  0.00    +0.144 HD
ENDBRANCH  16  17
ENDBRANCH   9  16
TORSDOF 3
