REMARK  Name = ZINC41635728
REMARK  6 active torsions:
REMARK  status: ('A' for Active; 'I' for Inactive)
REMARK    1  A    between atoms: C_1  and  C_2
REMARK    2  A    between atoms: C_2  and  C_3
REMARK    3  A    between atoms: C_9  and  C_11
REMARK    4  A    between atoms: C_11  and  C_13
REMARK    5  A    between atoms: C_11  and  N_19
REMARK    6  A    between atoms: C_16  and  C_18
REMARK                            x       y       z     vdW  Elec       q    Type
REMARK                         _______ _______ _______ _____ _____    ______ ____
ROOT
ATOM      1  C   UNL     1       2.896  -2.477   6.417  0.00  0.00    +0.042 C 
ENDROOT
BRANCH   1   8
ATOM      2  C   UNL     1       0.731  -0.503   1.223  0.00  0.00    +0.152 A 
ATOM      3  N   UNL     1       2.039  -0.738   1.297  0.00  0.00    -0.205 NA
ATOM      4  C   UNL     1       2.334  -1.160   2.497  0.00  0.00    +0.199 A 
ATOM      5  N   UNL     1       1.204  -1.214   3.253  0.00  0.00    -0.170 N 
ATOM      6  N   UNL     1       0.180  -0.769   2.377  0.00  0.00    -0.146 NA
ATOM      7  C   UNL     1       1.335  -1.642   4.552  0.00  0.00    +0.282 A 
ATOM      8  C   UNL     1       2.533  -1.988   5.038  0.00  0.00    +0.053 A 
ATOM      9  S   UNL     1       3.590  -1.715   3.624  0.00  0.00    -0.050 S 
ATOM     10  O   UNL     1       0.237  -1.716   5.352  0.00  0.00    -0.265 OA
BRANCH   2  12
ATOM     11  C   UNL     1      -0.019   1.526   0.010  0.00  0.00    +0.012 C 
ATOM     12  C   UNL     1       0.002  -0.004   0.002  0.00  0.00    +0.075 C 
ENDBRANCH   2  12
ENDBRANCH   1   8
BRANCH   1  13
ATOM     13  N   UNL     1       3.948  -1.619   6.979  0.00  0.00    +0.390 N 
ATOM     14  C   UNL     1       4.311  -2.108   8.314  0.00  0.00    -0.070 C 
ATOM     15  C   UNL     1       5.524  -1.327   8.832  0.00  0.00    +0.056 C 
ATOM     16  C   UNL     1       5.196   0.151   8.771  0.00  0.00    +0.130 C 
ATOM     17  O   UNL     1       5.397   0.876   9.716  0.00  0.00    -0.298 OA
ATOM     18  C   UNL     1       4.605   0.687   7.483  0.00  0.00    +0.056 C 
ATOM     19  C   UNL     1       3.458  -0.238   7.061  0.00  0.00    -0.070 C 
ATOM     20  H   UNL     1       4.760  -1.651   6.381  0.00  0.00    -0.080 HD
ENDBRANCH   1  13
BRANCH   1  21
ATOM     21  C   UNL     1       3.396  -3.896   6.331  0.00  0.00    +0.097 A 
ATOM     22  C   UNL     1       2.679  -5.000   6.604  0.00  0.00    +0.043 A 
ATOM     23  C   UNL     1       3.534  -6.106   6.395  0.00  0.00    +0.044 A 
ATOM     24  C   UNL     1       4.723  -5.611   6.006  0.00  0.00    +0.102 A 
ATOM     25  O   UNL     1       4.632  -4.272   5.963  0.00  0.00    -0.466 OA
ATOM     26  C   UNL     1       5.948  -6.422   5.669  0.00  0.00    +0.086 C 
ENDBRANCH   1  21
TORSDOF 4
