REMARK  Name = ZINC09411351
REMARK  11 active torsions:
REMARK  status: ('A' for Active; 'I' for Inactive)
REMARK    1  A    between atoms: C_1  and  C_2
REMARK    2  A    between atoms: C_2  and  C_3
REMARK    3  A    between atoms: C_2  and  C_4
REMARK    4  A    between atoms: C_4  and  C_5
REMARK    5  A    between atoms: N_10  and  C_11
REMARK    6  A    between atoms: C_11  and  C_13
REMARK    7  A    between atoms: C_13  and  C_14
REMARK    8  A    between atoms: C_14  and  C_15
REMARK    9  A    between atoms: C_22  and  O_23
REMARK   10  A    between atoms: C_22  and  N_59
REMARK   11  A    between atoms: O_23  and  C_24
REMARK                            x       y       z     vdW  Elec       q    Type
REMARK                         _______ _______ _______ _____ _____    ______ ____
ROOT
ATOM      1  C   UNL     1       7.467   3.829   4.807  0.00  0.00    +0.216 C 
ATOM      2  O   UNL     1       8.256   4.100   3.926  0.00  0.00    -0.276 OA
ATOM      3  N   UNL     1       7.795   4.048   6.096  0.00  0.00    -0.305 N 
ATOM      4  C   UNL     1       6.851   3.733   7.179  0.00  0.00    +0.089 C 
ATOM      5  C   UNL     1       7.581   2.869   8.219  0.00  0.00    -0.055 C 
ATOM      6  C   UNL     1       9.743   3.721   7.524  0.00  0.00    -0.055 C 
ATOM      7  C   UNL     1       9.103   4.615   6.456  0.00  0.00    +0.089 C 
ATOM      8  N   UNL     1       8.800   3.584   8.656  0.00  0.00    +0.404 N 
ATOM      9  H   UNL     1       8.536   4.520   8.985  0.00  0.00    -0.077 HD
ENDROOT
BRANCH   1  10
ATOM     10  C   UNL     1       6.121   3.248   4.460  0.00  0.00    +0.105 C 
BRANCH  10  11
ATOM     11  C   UNL     1       6.005   3.101   2.941  0.00  0.00    +0.107 C 
BRANCH  11  12
ATOM     12  C   UNL     1       4.658   2.520   2.594  0.00  0.00    +0.239 C 
ATOM     13  O   UNL     1       3.867   2.249   3.478  0.00  0.00    -0.274 OA
BRANCH  12  19
ATOM     14  C   UNL     1       0.695   0.762   0.835  0.00  0.00    +0.102 A 
ATOM     15  N   UNL     1       1.358   0.966  -0.267  0.00  0.00    -0.170 NA
ATOM     16  N   UNL     1       2.627   1.497  -0.201  0.00  0.00    -0.256 N 
ATOM     17  H   UNL     1       3.141   1.657  -1.008  0.00  0.00    +0.191 HD
ATOM     18  C   UNL     1       3.143   1.789   1.018  0.00  0.00    +0.181 A 
ATOM     19  N   UNL     1       4.336   2.304   1.326  0.00  0.00    -0.155 NA
ATOM     20  S   UNL     1       1.847   1.327   2.075  0.00  0.00    -0.036 S 
BRANCH  14  21
ATOM     21  C   UNL     1      -0.692   0.200   1.016  0.00  0.00    +0.067 C 
BRANCH  21  23
ATOM     22  C   UNL     1       0.139  -1.669   2.451  0.00  0.00    +0.007 C 
ATOM     23  C   UNL     1      -0.610  -1.321   1.163  0.00  0.00    -0.011 C 
ATOM     24  C   UNL     1      -2.023  -1.904   1.222  0.00  0.00    +0.007 C 
ENDBRANCH  21  23
ENDBRANCH  14  21
ENDBRANCH  12  19
ENDBRANCH  11  12
ENDBRANCH  10  11
ENDBRANCH   1  10
BRANCH   8  25
ATOM     25  C   UNL     1       9.445   2.850   9.764  0.00  0.00    +0.157 C 
BRANCH  25  26
ATOM     26  O   UNL     1       8.774   3.182  10.981  0.00  0.00    -0.509 OA
BRANCH  26  27
ATOM     27  C   UNL     1       9.060   4.391  11.533  0.00  0.00    +0.118 A 
ATOM     28  C   UNL     1       9.886   5.283  10.864  0.00  0.00    +0.047 A 
ATOM     29  C   UNL     1      10.171   6.513  11.424  0.00  0.00    +0.023 A 
ATOM     30  C   UNL     1       9.641   6.852  12.657  0.00  0.00    +0.041 A 
ATOM     31  C   UNL     1       8.821   5.962  13.328  0.00  0.00    +0.023 A 
ATOM     32  C   UNL     1       8.530   4.733  12.769  0.00  0.00    +0.047 A 
ATOM     33 CL   UNL     1      10.006   8.396  13.361  0.00  0.00    -0.084 Cl
ENDBRANCH  26  27
ENDBRANCH  25  26
ENDBRANCH   8  25
TORSDOF 9
