REMARK  Name = ZINC39769991
REMARK  4 active torsions:
REMARK  status: ('A' for Active; 'I' for Inactive)
REMARK    1  A    between atoms: C_7  and  C_10
REMARK    2  A    between atoms: C_11  and  C_12
REMARK    3  A    between atoms: C_11  and  C_14
REMARK    4  A    between atoms: C_16  and  C_22
REMARK                            x       y       z     vdW  Elec       q    Type
REMARK                         _______ _______ _______ _____ _____    ______ ____
ROOT
ATOM      1  C   UNL     1       0.678  -3.125  -0.205  0.00  0.00    +0.022 C 
ATOM      2  C   UNL     1       1.158  -4.396  -0.136  0.00  0.00    +0.053 C 
ENDROOT
BRANCH   1   9
ATOM      3  C   UNL     1       0.045   1.339  -0.675  0.00  0.00    +0.001 A 
ATOM      4  C   UNL     1       0.992   1.956  -1.501  0.00  0.00    +0.002 A 
ATOM      5  C   UNL     1       1.990   1.259  -2.090  0.00  0.00    +0.026 A 
ATOM      6  C   UNL     1       2.096  -0.144  -1.873  0.00  0.00    +0.043 A 
ATOM      7  N   UNL     1       2.954  -1.030  -2.320  0.00  0.00    -0.380 N 
ATOM      8  C   UNL     1       2.607  -2.352  -1.788  0.00  0.00    +0.149 C 
ATOM      9  C   UNL     1       1.380  -2.147  -0.927  0.00  0.00    -0.018 C 
ATOM     10  C   UNL     1       1.095  -0.789  -1.001  0.00  0.00    +0.003 A 
ATOM     11  C   UNL     1       0.081   0.007  -0.422  0.00  0.00    +0.010 A 
ATOM     12  H   UNL     1       3.701  -0.841  -2.910  0.00  0.00    +0.160 HD
ENDBRANCH   1   9
BRANCH   2  13
ATOM     13  C   UNL     1       2.645  -4.641  -0.151  0.00  0.00    +0.153 C 
ATOM     14  C   UNL     1       3.050  -5.596   0.989  0.00  0.00    +0.182 C 
ATOM     15  C   UNL     1       3.639  -6.789   0.271  0.00  0.00    +0.130 C 
ATOM     16  N   UNL     1       3.596  -6.593  -0.995  0.00  0.00    -0.175 NA
ATOM     17  N   UNL     1       3.037  -5.369  -1.369  0.00  0.00    -0.258 N 
ATOM     18  N   UNL     1       4.150  -7.923   0.889  0.00  0.00    -0.344 N 
ATOM     19  H   UNL     1       2.925  -5.051  -2.278  0.00  0.00    +0.169 HD
ATOM     20  H   UNL     1       4.145  -7.992   1.857  0.00  0.00    +0.143 HD
ATOM     21  H   UNL     1       4.511  -8.646   0.353  0.00  0.00    +0.143 HD
BRANCH  14  22
ATOM     22  C   UNL     1       1.870  -5.993   1.774  0.00  0.00    +0.076 C 
ATOM     23  N   UNL     1       0.959  -6.299   2.380  0.00  0.00    -0.196 NA
ENDBRANCH  14  22
ENDBRANCH   2  13
BRANCH   2  24
ATOM     24  C   UNL     1       0.251  -5.500  -0.047  0.00  0.00    +0.097 C 
ATOM     25  N   UNL     1      -0.468  -6.376   0.024  0.00  0.00    -0.191 NA
ENDBRANCH   2  24
TORSDOF 4
