REMARK  Name = ZINC34667049
REMARK  4 active torsions:
REMARK  status: ('A' for Active; 'I' for Inactive)
REMARK    1  A    between atoms: C_3  and  C_6
REMARK    2  A    between atoms: C_12  and  C_15
REMARK    3  A    between atoms: C_15  and  N_16
REMARK    4  A    between atoms: N_19  and  C_22
REMARK                            x       y       z     vdW  Elec       q    Type
REMARK                         _______ _______ _______ _____ _____    ______ ____
ROOT
ATOM      1  C   UNL     1       7.290  -1.721  -0.909  0.00  0.00    -0.045 C 
ENDROOT
BRANCH   1   8
ATOM      2  C   UNL     1       8.432   2.852   0.214  0.00  0.00    +0.282 C 
ATOM      3  O   UNL     1       9.050   2.426   1.172  0.00  0.00    -0.267 OA
ATOM      4  N   UNL     1       7.653   2.023  -0.508  0.00  0.00    -0.290 N 
ATOM      5  C   UNL     1       7.010   2.479  -1.751  0.00  0.00    +0.136 C 
ATOM      6  C   UNL     1       7.316   1.462  -2.855  0.00  0.00    +0.179 C 
ATOM      7  O   UNL     1       6.963   0.153  -2.401  0.00  0.00    -0.375 OA
ATOM      8  C   UNL     1       7.707  -0.293  -1.264  0.00  0.00    +0.119 C 
ATOM      9  C   UNL     1       7.425   0.634  -0.081  0.00  0.00    +0.138 C 
BRANCH   2  12
ATOM     10  C   UNL     1       9.141   6.404  -0.243  0.00  0.00    +0.042 A 
ATOM     11  C   UNL     1       9.377   5.184   0.410  0.00  0.00    +0.054 A 
ATOM     12  C   UNL     1       8.536   4.268  -0.153  0.00  0.00    +0.189 A 
ATOM     13  O   UNL     1       7.816   4.894  -1.108  0.00  0.00    -0.458 OA
ATOM     14  C   UNL     1       8.178   6.182  -1.165  0.00  0.00    +0.196 A 
ENDBRANCH   2  12
ENDBRANCH   1   8
BRANCH   1  15
ATOM     15  N   UNL     1       7.700  -2.633  -1.985  0.00  0.00    +0.383 N 
ATOM     16  C   UNL     1       7.098  -3.954  -1.761  0.00  0.00    -0.060 C 
ATOM     17  C   UNL     1       7.431  -4.872  -2.942  0.00  0.00    +0.086 C 
ATOM     18  N   UNL     1       8.891  -4.892  -3.120  0.00  0.00    -0.333 N 
ATOM     19  C   UNL     1       9.598  -3.604  -3.191  0.00  0.00    +0.086 C 
ATOM     20  C   UNL     1       9.164  -2.746  -1.998  0.00  0.00    -0.060 C 
ATOM     21  H   UNL     1       7.384  -2.268  -2.872  0.00  0.00    -0.082 HD
BRANCH  18  22
ATOM     22  C   UNL     1       9.586  -6.101  -3.221  0.00  0.00    +0.030 A 
ATOM     23  C   UNL     1       8.890  -7.300  -3.290  0.00  0.00    +0.026 A 
ATOM     24  C   UNL     1       9.579  -8.493  -3.390  0.00  0.00    +0.040 A 
ATOM     25  C   UNL     1      10.963  -8.494  -3.421  0.00  0.00    +0.124 A 
ATOM     26  C   UNL     1      11.660  -7.299  -3.353  0.00  0.00    +0.040 A 
ATOM     27  C   UNL     1      10.975  -6.104  -3.258  0.00  0.00    +0.026 A 
ATOM     28  F   UNL     1      11.635  -9.662  -3.519  0.00  0.00    -0.205 F 
ENDBRANCH  18  22
ENDBRANCH   1  15
TORSDOF 4
