REMARK  Name = ZINC67162385
REMARK  9 active torsions:
REMARK  status: ('A' for Active; 'I' for Inactive)
REMARK    1  A    between atoms: C_1  and  N_2
REMARK    2  A    between atoms: N_2  and  C_3
REMARK    3  A    between atoms: C_7  and  C_10
REMARK    4  A    between atoms: C_10  and  N_11
REMARK    5  A    between atoms: C_12  and  C_14
REMARK    6  A    between atoms: C_14  and  C_15
REMARK    7  A    between atoms: C_15  and  C_16
REMARK    8  A    between atoms: C_16  and  C_17
REMARK    9  A    between atoms: C_17  and  C_18
REMARK                            x       y       z     vdW  Elec       q    Type
REMARK                         _______ _______ _______ _____ _____    ______ ____
ROOT
ATOM      1  N   UNL     1      -1.389  -2.939  -5.351  0.00  0.00    -0.311 N 
ATOM      2  C   UNL     1      -1.637  -3.548  -6.528  0.00  0.00    +0.213 C 
ATOM      3  O   UNL     1      -0.717  -3.900  -7.235  0.00  0.00    -0.276 OA
ATOM      4  H   UNL     1      -2.125  -2.658  -4.786  0.00  0.00    +0.149 HD
ENDROOT
BRANCH   1   5
ATOM      5  C   UNL     1      -0.007  -2.702  -4.927  0.00  0.00    +0.141 C 
BRANCH   5  12
ATOM      6  C   UNL     1      -0.018   1.461   0.010  0.00  0.00    +0.130 C 
ATOM      7  N   UNL     1       0.002  -0.004   0.002  0.00  0.00    -0.323 N 
ATOM      8  C   UNL     1       0.024  -0.743   1.267  0.00  0.00    +0.130 C 
ATOM      9  C   UNL     1       0.000  -0.693  -1.206  0.00  0.00    +0.098 A 
ATOM     10  C   UNL     1       0.013  -2.084  -1.206  0.00  0.00    +0.042 A 
ATOM     11  C   UNL     1       0.011  -2.756  -2.415  0.00  0.00    +0.010 A 
ATOM     12  C   UNL     1      -0.004  -2.012  -3.587  0.00  0.00    -0.014 A 
ATOM     13  C   UNL     1      -0.017  -0.633  -3.513  0.00  0.00    +0.089 A 
ATOM     14  N   UNL     1      -0.020  -0.019  -2.345  0.00  0.00    -0.349 N 
ATOM     15  H   UNL     1      -0.033   0.951  -2.321  0.00  0.00    +0.167 HD
ENDBRANCH   5  12
ENDBRANCH   1   5
BRANCH   2  16
ATOM     16  C   UNL     1      -3.059  -3.792  -6.964  0.00  0.00    +0.096 C 
BRANCH  16  17
ATOM     17  C   UNL     1      -3.061  -4.493  -8.325  0.00  0.00    +0.009 C 
BRANCH  17  18
ATOM     18  C   UNL     1      -4.505  -4.740  -8.768  0.00  0.00    +0.002 C 
BRANCH  18  19
ATOM     19  C   UNL     1      -4.507  -5.441 -10.128  0.00  0.00    +0.016 C 
BRANCH  19  20
ATOM     20  C   UNL     1      -5.950  -5.689 -10.572  0.00  0.00    +0.069 C 
ATOM     21  C   UNL     1      -5.998  -6.408 -11.895  0.00  0.00    +0.108 C 
ATOM     22  C   UNL     1      -7.340  -6.052 -12.607  0.00  0.00    +0.105 C 
ATOM     23  C   UNL     1      -7.328  -4.533 -12.757  0.00  0.00    +0.093 C 
ATOM     24  S   UNL     1      -6.797  -4.100 -11.014  0.00  0.00    -0.154 S 
ATOM     25  N   UNL     1      -7.234  -6.925 -13.754  0.00  0.00    -0.294 N 
ATOM     26  C   UNL     1      -6.558  -8.027 -13.312  0.00  0.00    +0.300 C 
ATOM     27  O   UNL     1      -6.499  -9.074 -13.928  0.00  0.00    -0.253 OA
ATOM     28  N   UNL     1      -5.972  -7.826 -12.100  0.00  0.00    -0.294 N 
ATOM     29  H   UNL     1      -7.573  -6.763 -14.648  0.00  0.00    +0.151 HD
ATOM     30  H   UNL     1      -5.609  -8.502 -11.506  0.00  0.00    +0.151 HD
ENDBRANCH  19  20
ENDBRANCH  18  19
ENDBRANCH  17  18
ENDBRANCH  16  17
ENDBRANCH   2  16
TORSDOF 7
