REMARK  Name = ZINC39639156
REMARK  15 active torsions:
REMARK  status: ('A' for Active; 'I' for Inactive)
REMARK    1  A    between atoms: C_1  and  C_2
REMARK    2  A    between atoms: C_2  and  C_3
REMARK    3  A    between atoms: C_3  and  C_4
REMARK    4  A    between atoms: C_4  and  C_5
REMARK    5  A    between atoms: C_5  and  C_7
REMARK    6  A    between atoms: C_5  and  C_8
REMARK    7  A    between atoms: C_12  and  C_21
REMARK    8  A    between atoms: N_23  and  C_24
REMARK    9  A    between atoms: C_24  and  C_25
REMARK   10  A    between atoms: C_26  and  O_35
REMARK   11  A    between atoms: C_28  and  O_33
REMARK   12  A    between atoms: C_30  and  O_31
REMARK   13  A    between atoms: O_31  and  C_32
REMARK   14  A    between atoms: O_33  and  C_34
REMARK   15  A    between atoms: O_35  and  C_36
REMARK                            x       y       z     vdW  Elec       q    Type
REMARK                         _______ _______ _______ _____ _____    ______ ____
ROOT
ATOM      1  C   UNL     1       1.419  -4.210   2.487  0.00  0.00    +0.218 C 
ATOM      2  O   UNL     1       0.786  -4.838   1.665  0.00  0.00    -0.275 OA
ATOM      3  N   UNL     1       1.985  -4.846   3.531  0.00  0.00    -0.300 N 
ATOM      4  C   UNL     1       2.782  -4.255   4.632  0.00  0.00    +0.121 C 
ATOM      5  C   UNL     1       2.333  -5.021   5.896  0.00  0.00    +0.100 C 
ATOM      6  C   UNL     1       1.789  -6.360   5.370  0.00  0.00    -0.004 C 
ATOM      7  C   UNL     1       1.944  -6.295   3.843  0.00  0.00    +0.115 C 
ATOM      8  C   UNL     1       2.603  -7.520   5.935  0.00  0.00    -0.010 C 
ATOM      9  C   UNL     1       2.008  -8.843   5.445  0.00  0.00    -0.082 C 
ATOM     10  N   UNL     1       0.609  -8.943   5.879  0.00  0.00    +0.379 N 
ATOM     11  C   UNL     1      -0.186  -7.878   5.256  0.00  0.00    -0.082 C 
ATOM     12  C   UNL     1       0.317  -6.514   5.739  0.00  0.00    -0.010 C 
ATOM     13  H   UNL     1       0.238  -9.841   5.607  0.00  0.00    -0.086 HD
ATOM     14  H   UNL     1       0.563  -8.853   6.883  0.00  0.00    -0.086 HD
ENDROOT
BRANCH   5  15
ATOM     15  C   UNL     1       3.505  -5.253   6.814  0.00  0.00    +0.218 C 
ATOM     16  O   UNL     1       4.619  -5.383   6.353  0.00  0.00    -0.275 OA
ATOM     17  N   UNL     1       3.315  -5.314   8.147  0.00  0.00    -0.311 N 
ATOM     18  H   UNL     1       2.424  -5.210   8.515  0.00  0.00    +0.149 HD
BRANCH  17  19
ATOM     19  C   UNL     1       4.455  -5.539   9.039  0.00  0.00    +0.147 C 
BRANCH  19  20
ATOM     20  C   UNL     1       3.976  -5.565  10.468  0.00  0.00    +0.053 A 
ATOM     21  C   UNL     1       3.922  -4.390  11.203  0.00  0.00    +0.132 A 
ATOM     22  C   UNL     1       3.482  -4.415  12.518  0.00  0.00    +0.091 A 
ATOM     23  C   UNL     1       3.095  -5.613  13.098  0.00  0.00    +0.127 A 
ATOM     24  C   UNL     1       3.148  -6.788  12.362  0.00  0.00    +0.091 A 
ATOM     25  C   UNL     1       3.584  -6.763  11.046  0.00  0.00    +0.132 A 
BRANCH  25  26
ATOM     26  O   UNL     1       3.632  -7.914  10.324  0.00  0.00    -0.495 OA
ATOM     27  C   UNL     1       3.213  -9.111  10.983  0.00  0.00    +0.277 C 
ENDBRANCH  25  26
BRANCH  23  28
ATOM     28  O   UNL     1       2.664  -5.637  14.386  0.00  0.00    -0.495 OA
ATOM     29  C   UNL     1       2.281  -6.907  14.919  0.00  0.00    +0.277 C 
ENDBRANCH  23  28
BRANCH  21  30
ATOM     30  O   UNL     1       4.302  -3.216  10.635  0.00  0.00    -0.495 OA
ATOM     31  C   UNL     1       4.221  -2.045  11.450  0.00  0.00    +0.277 C 
ENDBRANCH  21  30
ENDBRANCH  19  20
ENDBRANCH  17  19
ENDBRANCH   5  15
BRANCH   1  32
ATOM     32  C   UNL     1       1.573  -2.718   2.340  0.00  0.00    +0.072 C 
ATOM     33  C   UNL     1       3.058  -2.367   2.227  0.00  0.00    +0.017 C 
BRANCH  32  34
ATOM     34  C   UNL     1       0.841  -2.251   1.080  0.00  0.00    +0.012 C 
BRANCH  34  35
ATOM     35  C   UNL     1       0.891  -0.724   0.998  0.00  0.00    +0.000 C 
BRANCH  35  37
ATOM     36  C   UNL     1       0.209   1.270  -0.345  0.00  0.00    +0.004 C 
ATOM     37  C   UNL     1       0.159  -0.257  -0.262  0.00  0.00    -0.003 C 
ENDBRANCH  35  37
ENDBRANCH  34  35
ENDBRANCH  32  34
ENDBRANCH   1  32
TORSDOF 10
