REMARK  Name = ZINC32758997
REMARK  7 active torsions:
REMARK  status: ('A' for Active; 'I' for Inactive)
REMARK    1  A    between atoms: C_1  and  C_2
REMARK    2  A    between atoms: N_5  and  C_8
REMARK    3  A    between atoms: C_8  and  C_10
REMARK    4  A    between atoms: C_8  and  C_26
REMARK    5  A    between atoms: C_10  and  N_11
REMARK    6  A    between atoms: N_11  and  S_12
REMARK    7  A    between atoms: S_12  and  C_15
REMARK                            x       y       z     vdW  Elec       q    Type
REMARK                         _______ _______ _______ _____ _____    ______ ____
ROOT
ATOM      1  N   UNL     1      -0.808   1.573   1.227  0.00  0.00    -0.191 NA
ATOM      2  H   UNL     1      -1.552   2.379   1.145  0.00  0.00    +0.148 HD
ENDROOT
BRANCH   1   3
ATOM      3  S   UNL     1      -0.388   1.007   2.725  0.00  0.00    +0.058 S 
ATOM      4  O   UNL     1      -1.288   1.600   3.651  0.00  0.00    -0.153 OA
ATOM      5  O   UNL     1      -0.240  -0.401   2.602  0.00  0.00    -0.153 OA
BRANCH   3   6
ATOM      6  C   UNL     1       1.210   1.651   3.095  0.00  0.00    +0.106 A 
ATOM      7  C   UNL     1       1.328   2.870   3.747  0.00  0.00    +0.032 A 
ATOM      8  C   UNL     1       2.569   3.392   4.045  0.00  0.00    +0.049 A 
ATOM      9  C   UNL     1       3.716   2.692   3.692  0.00  0.00    +0.139 A 
ATOM     10  C   UNL     1       3.593   1.457   3.031  0.00  0.00    +0.019 A 
ATOM     11  C   UNL     1       2.325   0.943   2.743  0.00  0.00    +0.040 A 
ATOM     12  C   UNL     1       4.808   0.725   2.661  0.00  0.00    +0.018 A 
ATOM     13  C   UNL     1       6.008   1.275   2.974  0.00  0.00    +0.092 A 
ATOM     14  C   UNL     1       6.057   2.520   3.638  0.00  0.00    +0.337 A 
ATOM     15  O   UNL     1       7.141   3.003   3.914  0.00  0.00    -0.245 OA
ATOM     16  O   UNL     1       4.941   3.184   3.974  0.00  0.00    -0.422 OA
ENDBRANCH   3   6
ENDBRANCH   1   3
BRANCH   1  17
ATOM     17  C   UNL     1      -0.044   1.160   0.047  0.00  0.00    +0.096 C 
BRANCH  17  18
ATOM     18  C   UNL     1      -0.857   1.452  -1.216  0.00  0.00    -0.015 C 
BRANCH  18  23
ATOM     19  C   UNL     1      -5.667  -1.624  -1.490  0.00  0.00    +0.007 C 
ATOM     20  C   UNL     1      -4.256  -1.088  -1.742  0.00  0.00    -0.018 C 
ATOM     21  C   UNL     1      -3.434  -1.187  -0.455  0.00  0.00    -0.015 C 
ATOM     22  C   UNL     1      -2.044  -0.593  -0.696  0.00  0.00    -0.078 C 
ATOM     23  N   UNL     1      -2.174   0.810  -1.109  0.00  0.00    +0.385 N 
ATOM     24  C   UNL     1      -2.920   0.926  -2.368  0.00  0.00    -0.078 C 
ATOM     25  C   UNL     1      -4.336   0.378  -2.176  0.00  0.00    -0.015 C 
ATOM     26  H   UNL     1      -2.746   1.336  -0.331  0.00  0.00    -0.081 HD
ENDBRANCH  18  23
BRANCH  18  27
ATOM     27  C   UNL     1      -0.130   0.908  -2.418  0.00  0.00    -0.022 A 
ATOM     28  C   UNL     1       0.643   1.565  -3.318  0.00  0.00    +0.009 A 
ATOM     29  C   UNL     1       1.218   0.854  -4.354  0.00  0.00    +0.008 A 
ATOM     30  C   UNL     1       0.993  -0.480  -4.440  0.00  0.00    +0.045 A 
ATOM     31  S   UNL     1      -0.055  -0.769  -3.024  0.00  0.00    -0.103 S 
ENDBRANCH  18  27
ENDBRANCH  17  18
ENDBRANCH   1  17
TORSDOF 6
