REMARK  Name = ZINC06552424
REMARK  5 active torsions:
REMARK  status: ('A' for Active; 'I' for Inactive)
REMARK    1  A    between atoms: C_1  and  C_2
REMARK    2  A    between atoms: C_9  and  C_14
REMARK    3  A    between atoms: C_14  and  N_43
REMARK    4  A    between atoms: C_15  and  N_43
REMARK    5  A    between atoms: C_21  and  C_23
REMARK                            x       y       z     vdW  Elec       q    Type
REMARK                         _______ _______ _______ _____ _____    ______ ____
ROOT
ATOM      1  C   UNL     1       1.218  -2.184  -0.022  0.00  0.00    +0.045 C 
ATOM      2  C   UNL     1       1.206  -0.677  -0.013  0.00  0.00    -0.029 A 
ATOM      3  C   UNL     1       0.002  -0.004   0.002  0.00  0.00    +0.051 A 
ATOM      4  C   UNL     1      -0.017   1.384   0.010  0.00  0.00    +0.140 A 
ATOM      5  C   UNL     1       1.198   2.092   0.002  0.00  0.00    +0.020 A 
ATOM      6  C   UNL     1       2.411   1.398  -0.013  0.00  0.00    +0.032 A 
ATOM      7  C   UNL     1       2.407   0.020  -0.021  0.00  0.00    +0.045 A 
ATOM      8 CL   UNL     1       3.909  -0.848  -0.039  0.00  0.00    -0.083 Cl
ATOM      9  C   UNL     1       1.166   3.558   0.010  0.00  0.00    -0.047 A 
ATOM     10  C   UNL     1      -0.043   4.173   0.025  0.00  0.00    +0.094 A 
ATOM     11  C   UNL     1      -1.224   3.399   0.032  0.00  0.00    +0.337 A 
ATOM     12  O   UNL     1      -2.303   3.963   0.045  0.00  0.00    -0.245 OA
ATOM     13  O   UNL     1      -1.187   2.058   0.030  0.00  0.00    -0.422 OA
ENDROOT
BRANCH   9  14
ATOM     14  C   UNL     1       2.442   4.360   0.002  0.00  0.00    -0.045 C 
BRANCH  14  15
ATOM     15  N   UNL     1       2.967   4.420  -1.376  0.00  0.00    +0.384 N 
ATOM     16  H   UNL     1       2.271   4.866  -1.984  0.00  0.00    -0.085 HD
ATOM     17  H   UNL     1       3.152   3.466  -1.709  0.00  0.00    -0.085 HD
BRANCH  15  18
ATOM     18  C   UNL     1       4.218   5.200  -1.414  0.00  0.00    -0.069 C 
ATOM     19  C   UNL     1       5.399   4.289  -1.071  0.00  0.00    -0.015 C 
ATOM     20  C   UNL     1       6.697   5.097  -1.120  0.00  0.00    -0.002 C 
ATOM     21  C   UNL     1       6.888   5.671  -2.525  0.00  0.00    +0.000 C 
ATOM     22  C   UNL     1       5.707   6.582  -2.868  0.00  0.00    +0.002 C 
ATOM     23  C   UNL     1       4.409   5.774  -2.820  0.00  0.00    -0.028 C 
ATOM     24  C   UNL     1       4.482   4.630  -3.833  0.00  0.00    +0.006 C 
ENDBRANCH  15  18
ENDBRANCH  14  15
ENDBRANCH   9  14
TORSDOF 3
