REMARK  Name = ZINC39000327
REMARK  8 active torsions:
REMARK  status: ('A' for Active; 'I' for Inactive)
REMARK    1  A    between atoms: C_1  and  C_2
REMARK    2  A    between atoms: C_5  and  S_8
REMARK    3  A    between atoms: S_8  and  N_11
REMARK    4  A    between atoms: N_11  and  C_12
REMARK    5  A    between atoms: N_11  and  C_18
REMARK    6  A    between atoms: C_12  and  C_13
REMARK    7  A    between atoms: C_18  and  C_19
REMARK    8  A    between atoms: C_25  and  C_31
REMARK                            x       y       z     vdW  Elec       q    Type
REMARK                         _______ _______ _______ _____ _____    ______ ____
ROOT
ATOM      1  N   UNL     1       1.494  -4.782  -0.288  0.00  0.00    -0.168 NA
ENDROOT
BRANCH   1   2
ATOM      2  S   UNL     1      -0.040  -4.170  -0.412  0.00  0.00    +0.061 S 
ATOM      3  O   UNL     1      -0.755  -4.635   0.724  0.00  0.00    -0.153 OA
ATOM      4  O   UNL     1      -0.472  -4.423  -1.741  0.00  0.00    -0.153 OA
BRANCH   2   9
ATOM      5  C   UNL     1       0.378   1.823   0.153  0.00  0.00    +0.044 C 
ATOM      6  C   UNL     1       0.274   0.326   0.012  0.00  0.00    -0.050 A 
ATOM      7  C   UNL     1       0.254  -0.250  -1.245  0.00  0.00    +0.005 A 
ATOM      8  C   UNL     1       0.159  -1.623  -1.374  0.00  0.00    +0.029 A 
ATOM      9  C   UNL     1       0.083  -2.420  -0.247  0.00  0.00    +0.106 A 
ATOM     10  C   UNL     1       0.104  -1.844   1.010  0.00  0.00    +0.029 A 
ATOM     11  C   UNL     1       0.204  -0.471   1.139  0.00  0.00    +0.005 A 
ENDBRANCH   2   9
ENDBRANCH   1   2
BRANCH   1  12
ATOM     12  C   UNL     1       2.087  -5.011   1.031  0.00  0.00    +0.183 C 
BRANCH  12  13
ATOM     13  C   UNL     1       1.869  -6.446   1.438  0.00  0.00    +0.120 A 
ATOM     14  C   UNL     1       2.701  -7.471   1.182  0.00  0.00    +0.046 A 
ATOM     15  C   UNL     1       2.109  -8.628   1.740  0.00  0.00    +0.041 A 
ATOM     16  C   UNL     1       0.951  -8.240   2.303  0.00  0.00    +0.195 A 
ATOM     17  O   UNL     1       0.813  -6.916   2.122  0.00  0.00    -0.466 OA
ENDBRANCH  12  13
ENDBRANCH   1  12
BRANCH   1  18
ATOM     18  C   UNL     1       2.258  -5.095  -1.499  0.00  0.00    +0.126 C 
BRANCH  18  19
ATOM     19  C   UNL     1       3.525  -4.238  -1.538  0.00  0.00    +0.114 C 
ATOM     20  C   UNL     1       4.308  -4.623  -2.778  0.00  0.00    -0.003 C 
ATOM     21  C   UNL     1       4.582  -3.634  -3.676  0.00  0.00    -0.007 A 
ATOM     22  C   UNL     1       5.333  -3.918  -4.899  0.00  0.00    +0.010 A 
ATOM     23  C   UNL     1       5.583  -2.902  -5.764  0.00  0.00    +0.004 A 
ATOM     24  C   UNL     1       5.140  -1.604  -5.509  0.00  0.00    -0.049 A 
ATOM     25  C   UNL     1       4.438  -1.276  -4.393  0.00  0.00    +0.027 A 
ATOM     26  C   UNL     1       4.126  -2.255  -3.432  0.00  0.00    +0.041 A 
ATOM     27  N   UNL     1       3.437  -1.921  -2.341  0.00  0.00    -0.284 N 
ATOM     28  C   UNL     1       3.111  -2.791  -1.399  0.00  0.00    +0.225 C 
ATOM     29  O   UNL     1       2.480  -2.426  -0.425  0.00  0.00    -0.275 OA
ATOM     30  C   UNL     1       5.452  -0.523  -6.511  0.00  0.00    +0.044 C 
ATOM     31  H   UNL     1       3.161  -0.998  -2.232  0.00  0.00    +0.155 HD
ENDBRANCH  18  19
ENDBRANCH   1  18
TORSDOF 6
