REMARK  Name = ZINC13689586
REMARK  12 active torsions:
REMARK  status: ('A' for Active; 'I' for Inactive)
REMARK    1  A    between atoms: C_1  and  C_2
REMARK    2  A    between atoms: C_2  and  C_4
REMARK    3  A    between atoms: C_2  and  N_15
REMARK    4  A    between atoms: C_4  and  C_5
REMARK    5  A    between atoms: C_16  and  C_18
REMARK    6  A    between atoms: C_21  and  C_24
REMARK    7  A    between atoms: C_24  and  N_25
REMARK    8  A    between atoms: C_26  and  O_28
REMARK    9  A    between atoms: O_28  and  C_29
REMARK   10  A    between atoms: C_29  and  C_30
REMARK   11  A    between atoms: C_29  and  C_31
REMARK   12  A    between atoms: C_29  and  C_32
REMARK                            x       y       z     vdW  Elec       q    Type
REMARK                         _______ _______ _______ _____ _____    ______ ____
ROOT
ATOM      1  N   UNL     1       2.245   1.288   0.998  0.00  0.00    -0.312 N 
ATOM      2  C   UNL     1       1.401   1.607  -0.003  0.00  0.00    +0.216 C 
ATOM      3  O   UNL     1       1.780   2.315  -0.912  0.00  0.00    -0.276 OA
ATOM      4  H   UNL     1       1.942   0.722   1.726  0.00  0.00    +0.149 HD
ENDROOT
BRANCH   2   5
ATOM      5  C   UNL     1      -0.013   1.086   0.008  0.00  0.00    +0.075 C 
ATOM      6  C   UNL     1      -0.729   1.579   1.267  0.00  0.00    +0.013 C 
ATOM      7  C   UNL     1      -2.164   1.050   1.278  0.00  0.00    +0.006 C 
ATOM      8  C   UNL     1      -2.904   1.556   0.038  0.00  0.00    +0.006 C 
ATOM      9  C   UNL     1      -2.188   1.063  -1.221  0.00  0.00    +0.006 C 
ATOM     10  C   UNL     1      -0.753   1.593  -1.232  0.00  0.00    +0.013 C 
BRANCH   8  11
ATOM     11  C   UNL     1      -4.340   1.027   0.049  0.00  0.00    +0.111 C 
BRANCH  11  12
ATOM     12  N   UNL     1      -5.061   1.595   1.190  0.00  0.00    -0.281 N 
ATOM     13  C   UNL     1      -6.351   1.268   1.403  0.00  0.00    +0.401 C 
ATOM     14  O   UNL     1      -6.916   0.502   0.647  0.00  0.00    -0.226 OA
ATOM     15  H   UNL     1      -4.610   2.207   1.793  0.00  0.00    +0.152 HD
BRANCH  13  16
ATOM     16  O   UNL     1      -7.014   1.790   2.452  0.00  0.00    -0.445 OA
BRANCH  16  17
ATOM     17  C   UNL     1      -8.401   1.393   2.619  0.00  0.00    +0.107 C 
ATOM     18  C   UNL     1      -8.479  -0.124   2.797  0.00  0.00    +0.055 C 
ATOM     19  C   UNL     1      -8.983   2.083   3.854  0.00  0.00    +0.055 C 
ATOM     20  C   UNL     1      -9.201   1.804   1.381  0.00  0.00    +0.055 C 
ENDBRANCH  16  17
ENDBRANCH  13  16
ENDBRANCH  11  12
ENDBRANCH   8  11
ENDBRANCH   2   5
BRANCH   1  22
ATOM     21  C   UNL     1       4.499   0.867   0.147  0.00  0.00    +0.028 C 
ATOM     22  C   UNL     1       3.619   1.795   0.988  0.00  0.00    +0.074 C 
BRANCH  22  23
ATOM     23  C   UNL     1       4.155   1.846   2.420  0.00  0.00    +0.059 C 
BRANCH  23  24
ATOM     24  C   UNL     1       3.365   2.852   3.217  0.00  0.00    -0.021 A 
ATOM     25  C   UNL     1       3.694   4.135   3.433  0.00  0.00    +0.087 A 
ATOM     26  N   UNL     1       2.735   4.740   4.198  0.00  0.00    -0.360 N 
ATOM     27  H   UNL     1       2.752   5.667   4.484  0.00  0.00    +0.165 HD
ATOM     28  C   UNL     1       1.744   3.836   4.508  0.00  0.00    +0.047 A 
ATOM     29  C   UNL     1       2.095   2.613   3.907  0.00  0.00    +0.003 A 
ATOM     30  C   UNL     1       1.264   1.501   4.053  0.00  0.00    +0.010 A 
ATOM     31  C   UNL     1       0.112   1.606   4.781  0.00  0.00    +0.001 A 
ATOM     32  C   UNL     1      -0.238   2.809   5.377  0.00  0.00    +0.002 A 
ATOM     33  C   UNL     1       0.567   3.920   5.245  0.00  0.00    +0.026 A 
ENDBRANCH  23  24
ENDBRANCH  22  23
ENDBRANCH   1  22
TORSDOF 8
