REMARK  Name = ZINC42959336
REMARK  6 active torsions:
REMARK  status: ('A' for Active; 'I' for Inactive)
REMARK    1  A    between atoms: C_1  and  C_2
REMARK    2  A    between atoms: C_2  and  C_4
REMARK    3  A    between atoms: C_2  and  N_21
REMARK    4  A    between atoms: C_4  and  C_6
REMARK    5  A    between atoms: C_4  and  S_13
REMARK    6  A    between atoms: S_13  and  C_14
REMARK                            x       y       z     vdW  Elec       q    Type
REMARK                         _______ _______ _______ _____ _____    ______ ____
ROOT
ATOM      1  C   UNL     1       0.850  -0.514   1.169  0.00  0.00    +0.069 C 
ENDROOT
BRANCH   1   2
ATOM      2  C   UNL     1       0.956  -1.990   0.882  0.00  0.00    -0.036 A 
ATOM      3  C   UNL     1       1.470  -2.423  -0.326  0.00  0.00    +0.006 A 
ATOM      4  C   UNL     1       1.568  -3.776  -0.590  0.00  0.00    +0.015 A 
ATOM      5  C   UNL     1       1.152  -4.697   0.354  0.00  0.00    +0.018 A 
ATOM      6  C   UNL     1       0.638  -4.263   1.563  0.00  0.00    +0.015 A 
ATOM      7  C   UNL     1       0.545  -2.909   1.828  0.00  0.00    +0.006 A 
ATOM      8 BR   UNL     1       1.285  -6.548  -0.006  0.00  0.00    -0.050 Br
ENDBRANCH   1   2
BRANCH   1  10
ATOM      9  C   UNL     1      -0.213   1.631   0.455  0.00  0.00    -0.013 C 
ATOM     10  C   UNL     1      -0.059   0.144   0.129  0.00  0.00    -0.060 C 
BRANCH  10  11
ATOM     11  N   UNL     1      -1.379  -0.502   0.154  0.00  0.00    +0.381 N 
ATOM     12  H   UNL     1      -1.978  -0.068  -0.532  0.00  0.00    -0.090 HD
ATOM     13  H   UNL     1      -1.277  -1.482  -0.061  0.00  0.00    -0.090 HD
ATOM     14  H   UNL     1      -1.787  -0.399   1.071  0.00  0.00    -0.090 HD
ENDBRANCH  10  11
ENDBRANCH   1  10
BRANCH   1  15
ATOM     15  S   UNL     1       2.499   0.237   1.092  0.00  0.00    -0.081 S 
BRANCH  15  16
ATOM     16  C   UNL     1       3.339  -0.435   2.488  0.00  0.00    +0.169 A 
ATOM     17  N   UNL     1       2.678  -1.199   3.336  0.00  0.00    -0.232 NA
ATOM     18  C   UNL     1       3.275  -1.727   4.402  0.00  0.00    +0.119 A 
ATOM     19  C   UNL     1       4.597  -1.482   4.638  0.00  0.00    +0.090 A 
ATOM     20  C   UNL     1       5.309  -0.668   3.740  0.00  0.00    +0.252 A 
ATOM     21  N   UNL     1       4.660  -0.160   2.670  0.00  0.00    -0.302 N 
ATOM     22  O   UNL     1       6.492  -0.429   3.921  0.00  0.00    -0.268 OA
ATOM     23  H   UNL     1       5.133   0.401   2.035  0.00  0.00    +0.171 HD
ENDBRANCH  15  16
ENDBRANCH   1  15
TORSDOF 5
