REMARK  Name = ZINC32857608
REMARK  10 active torsions:
REMARK  status: ('A' for Active; 'I' for Inactive)
REMARK    1  A    between atoms: C_1  and  C_2
REMARK    2  A    between atoms: C_9  and  C_13
REMARK    3  A    between atoms: C_13  and  S_14
REMARK    4  A    between atoms: S_14  and  C_15
REMARK    5  A    between atoms: N_28  and  C_29
REMARK    6  A    between atoms: C_29  and  C_30
REMARK    7  A    between atoms: C_30  and  C_31
REMARK    8  A    between atoms: C_31  and  N_32
REMARK    9  A    between atoms: N_32  and  C_33
REMARK   10  A    between atoms: N_32  and  C_34
REMARK                            x       y       z     vdW  Elec       q    Type
REMARK                         _______ _______ _______ _____ _____    ______ ____
ROOT
ATOM      1  C   UNL     1       3.823  -1.159  -0.041  0.00  0.00    +0.173 A 
ATOM      2  N   UNL     1       2.508  -1.333  -0.029  0.00  0.00    -0.216 NA
ATOM      3  C   UNL     1       1.751  -0.243  -0.016  0.00  0.00    +0.117 A 
ATOM      4  C   UNL     1       2.263   1.074  -0.013  0.00  0.00    +0.076 A 
ATOM      5  C   UNL     1       1.278   2.143   0.001  0.00  0.00    -0.023 A 
ATOM      6  C   UNL     1      -0.022   1.771   0.012  0.00  0.00    -0.004 A 
ATOM      7  S   UNL     1       0.002  -0.004   0.002  0.00  0.00    -0.073 S 
ATOM      8  C   UNL     1      -1.222   2.667   0.034  0.00  0.00    +0.043 C 
ATOM      9  C   UNL     1      -0.767   4.084   0.403  0.00  0.00    +0.005 C 
ATOM     10  C   UNL     1       0.456   4.447  -0.445  0.00  0.00    +0.005 C 
ATOM     11  C   UNL     1       1.662   3.621   0.004  0.00  0.00    +0.037 C 
ATOM     12  C   UNL     1       3.688   1.223  -0.026  0.00  0.00    +0.263 A 
ATOM     13  O   UNL     1       4.224   2.318  -0.025  0.00  0.00    -0.267 OA
ATOM     14  N   UNL     1       4.402   0.073  -0.040  0.00  0.00    -0.287 N 
ENDROOT
BRANCH   1  15
ATOM     15  S   UNL     1       4.863  -2.582  -0.059  0.00  0.00    -0.081 S 
BRANCH  15  16
ATOM     16  C   UNL     1       3.609  -3.888  -0.054  0.00  0.00    +0.133 C 
BRANCH  16  25
ATOM     17  C   UNL     1       5.946  -6.452  -3.669  0.00  0.00    +0.047 C 
ATOM     18  C   UNL     1       6.016  -7.313  -2.434  0.00  0.00    -0.008 A 
ATOM     19  C   UNL     1       6.635  -8.526  -2.477  0.00  0.00    +0.008 A 
ATOM     20  C   UNL     1       6.691  -9.315  -1.319  0.00  0.00    +0.019 A 
ATOM     21  C   UNL     1       6.134  -8.874  -0.169  0.00  0.00    +0.096 A 
ATOM     22  N   UNL     1       5.513  -7.663  -0.116  0.00  0.00    -0.268 N 
ATOM     23  C   UNL     1       5.443  -6.871  -1.228  0.00  0.00    +0.143 A 
ATOM     24  N   UNL     1       4.838  -5.685  -1.184  0.00  0.00    -0.233 NA
ATOM     25  C   UNL     1       4.286  -5.234  -0.069  0.00  0.00    +0.059 A 
ATOM     26  C   UNL     1       4.336  -5.994   1.084  0.00  0.00    +0.094 A 
ATOM     27  C   UNL     1       4.965  -7.243   1.044  0.00  0.00    +0.259 A 
ATOM     28  O   UNL     1       5.021  -7.941   2.045  0.00  0.00    -0.267 OA
ENDBRANCH  16  25
ENDBRANCH  15  16
ENDBRANCH   1  15
BRANCH  14  29
ATOM     29  C   UNL     1       5.865   0.158  -0.054  0.00  0.00    +0.125 C 
BRANCH  29  30
ATOM     30  C   UNL     1       6.388   0.180   1.383  0.00  0.00    +0.003 C 
BRANCH  30  31
ATOM     31  C   UNL     1       7.916   0.269   1.368  0.00  0.00    -0.078 C 
BRANCH  31  32
ATOM     32  N   UNL     1       8.418   0.289   2.748  0.00  0.00    +0.376 N 
ATOM     33  C   UNL     1       8.149  -0.986   3.426  0.00  0.00    -0.097 C 
ATOM     34  C   UNL     1       9.851   0.611   2.782  0.00  0.00    -0.097 C 
ATOM     35  H   UNL     1       7.881   1.081   3.292  0.00  0.00    -0.083 HD
ENDBRANCH  31  32
ENDBRANCH  30  31
ENDBRANCH  29  30
ENDBRANCH  14  29
TORSDOF 7
