REMARK  Name = ZINC44544629
REMARK  22 active torsions:
REMARK  status: ('A' for Active; 'I' for Inactive)
REMARK    1  A    between atoms: C_1  and  C_2
REMARK    2  A    between atoms: C_2  and  C_3
REMARK    3  A    between atoms: C_2  and  C_4
REMARK    4  A    between atoms: C_2  and  N_5
REMARK    5  A    between atoms: N_8  and  C_33
REMARK    6  A    between atoms: N_9  and  C_29
REMARK    7  A    between atoms: C_10  and  C_11
REMARK    8  A    between atoms: C_10  and  C_25
REMARK    9  A    between atoms: C_11  and  C_21
REMARK   10  A    between atoms: C_12  and  C_13
REMARK   11  A    between atoms: C_12  and  O_19
REMARK   12  A    between atoms: C_14  and  C_15
REMARK   13  A    between atoms: C_15  and  O_17
REMARK   14  A    between atoms: O_17  and  C_18
REMARK   15  A    between atoms: O_19  and  C_20
REMARK   16  A    between atoms: C_21  and  O_23
REMARK   17  A    between atoms: O_23  and  C_24
REMARK   18  A    between atoms: C_25  and  O_27
REMARK   19  A    between atoms: O_27  and  C_28
REMARK   20  A    between atoms: C_29  and  C_30
REMARK   21  A    between atoms: C_29  and  C_31
REMARK   22  A    between atoms: C_29  and  C_32
REMARK                            x       y       z     vdW  Elec       q    Type
REMARK                         _______ _______ _______ _____ _____    ______ ____
ROOT
ATOM      1  N   UNL     1       0.672  -0.217  -4.724  0.00  0.00    -0.246 N 
ATOM      2  C   UNL     1       0.763  -1.390  -5.377  0.00  0.00    +0.321 C 
ATOM      3  O   UNL     1      -0.170  -1.936  -5.933  0.00  0.00    -0.251 OA
ATOM      4  N   UNL     1       2.008  -1.882  -5.339  0.00  0.00    -0.218 N 
ATOM      5  N   UNL     1       2.842  -1.053  -4.645  0.00  0.00    -0.180 NA
ATOM      6  C   UNL     1       2.015   0.089  -4.208  0.00  0.00    +0.244 C 
ATOM      7  C   UNL     1       2.420  -3.144  -5.958  0.00  0.00    +0.155 C 
ENDROOT
BRANCH   1   9
ATOM      8  C   UNL     1      -0.285   1.670  -3.497  0.00  0.00    +0.031 C 
ATOM      9  C   UNL     1      -0.532   0.602  -4.564  0.00  0.00    +0.033 C 
ATOM     10  C   UNL     1      -1.701  -0.287  -4.135  0.00  0.00    +0.031 C 
ATOM     11  C   UNL     1      -0.869   1.279  -5.895  0.00  0.00    +0.031 C 
ENDBRANCH   1   9
BRANCH   5  12
ATOM     12  C   UNL     1       3.439  -1.748  -3.496  0.00  0.00    +0.034 C 
ATOM     13  C   UNL     1       4.658  -2.547  -3.961  0.00  0.00    +0.029 C 
ATOM     14  C   UNL     1       3.872  -0.721  -2.448  0.00  0.00    +0.029 C 
ATOM     15  C   UNL     1       2.409  -2.699  -2.884  0.00  0.00    +0.029 C 
ENDBRANCH   5  12
BRANCH   6  16
ATOM     16  C   UNL     1       1.994   0.176  -2.703  0.00  0.00    +0.137 C 
ATOM     17  C   UNL     1       1.279  -0.727  -1.980  0.00  0.00    +0.185 C 
BRANCH  17  18
ATOM     18  C   UNL     1       0.384  -1.627  -2.642  0.00  0.00    -0.017 C 
ATOM     19  C   UNL     1      -0.350  -2.365  -3.185  0.00  0.00    +0.024 C 
BRANCH  19  20
ATOM     20  C   UNL     1      -1.246  -3.265  -3.848  0.00  0.00    +0.385 C 
ATOM     21  O   UNL     1      -1.885  -4.072  -3.201  0.00  0.00    -0.235 OA
BRANCH  20  22
ATOM     22  O   UNL     1      -1.381  -3.217  -5.188  0.00  0.00    -0.459 OA
ATOM     23  C   UNL     1      -2.291  -4.144  -5.783  0.00  0.00    +0.281 C 
ENDBRANCH  20  22
ENDBRANCH  19  20
ENDBRANCH  17  18
BRANCH  17  24
ATOM     24  O   UNL     1       1.414  -0.775  -0.634  0.00  0.00    -0.487 OA
ATOM     25  C   UNL     1       0.256  -0.469   0.145  0.00  0.00    +0.278 C 
ENDBRANCH  17  24
BRANCH  16  26
ATOM     26  C   UNL     1       2.719   1.198  -2.042  0.00  0.00    +0.343 C 
ATOM     27  O   UNL     1       2.803   1.197  -0.829  0.00  0.00    -0.245 OA
BRANCH  26  28
ATOM     28  O   UNL     1       3.318   2.172  -2.759  0.00  0.00    -0.464 OA
ATOM     29  C   UNL     1       4.122   3.108  -2.038  0.00  0.00    +0.280 C 
ENDBRANCH  26  28
ENDBRANCH  16  26
ENDBRANCH   6  16
BRANCH   6  30
ATOM     30  C   UNL     1       2.530   1.374  -4.804  0.00  0.00    +0.353 C 
ATOM     31  O   UNL     1       3.638   1.417  -5.283  0.00  0.00    -0.246 OA
BRANCH  30  32
ATOM     32  O   UNL     1       1.756   2.471  -4.803  0.00  0.00    -0.465 OA
ATOM     33  C   UNL     1       2.307   3.654  -5.385  0.00  0.00    +0.280 C 
ENDBRANCH  30  32
ENDBRANCH   6  30
TORSDOF 11
