REMARK  Name = ZINC09386996
REMARK  12 active torsions:
REMARK  status: ('A' for Active; 'I' for Inactive)
REMARK    1  A    between atoms: C_1  and  C_2
REMARK    2  A    between atoms: C_2  and  N_60
REMARK    3  A    between atoms: C_3  and  C_4
REMARK    4  A    between atoms: C_3  and  N_60
REMARK    5  A    between atoms: C_5  and  C_6
REMARK    6  A    between atoms: C_5  and  N_60
REMARK    7  A    between atoms: C_6  and  N_7
REMARK    8  A    between atoms: C_11  and  C_18
REMARK    9  A    between atoms: C_14  and  C_17
REMARK   10  A    between atoms: C_19  and  C_21
REMARK   11  A    between atoms: C_21  and  S_22
REMARK   12  A    between atoms: S_22  and  C_25
REMARK                            x       y       z     vdW  Elec       q    Type
REMARK                         _______ _______ _______ _____ _____    ______ ____
ROOT
ATOM      1  N   UNL     1       4.930   5.498   0.136  0.00  0.00    -0.251 N 
ATOM      2  C   UNL     1       3.719   4.837   0.267  0.00  0.00    +0.168 A 
ATOM      3  N   UNL     1       3.488   3.546   0.326  0.00  0.00    -0.224 NA
ATOM      4  C   UNL     1       2.244   3.037   0.456  0.00  0.00    +0.083 A 
ATOM      5  C   UNL     1       1.861   1.678   0.532  0.00  0.00    -0.024 A 
ATOM      6  C   UNL     1       0.543   1.328   0.662  0.00  0.00    +0.006 A 
ATOM      7  C   UNL     1      -0.459   2.287   0.725  0.00  0.00    +0.005 A 
ATOM      8  C   UNL     1      -0.120   3.625   0.653  0.00  0.00    -0.035 A 
ATOM      9  C   UNL     1       1.198   3.985   0.522  0.00  0.00    +0.044 A 
ATOM     10  S   UNL     1       2.075   5.525   0.396  0.00  0.00    -0.052 S 
ATOM     11  C   UNL     1      -1.192   4.683   0.713  0.00  0.00    +0.045 C 
ATOM     12  C   UNL     1       2.914   0.602   0.467  0.00  0.00    +0.046 C 
ATOM     13  C   UNL     1       4.961   6.845   0.091  0.00  0.00    +0.243 C 
ATOM     14  O   UNL     1       6.021   7.423  -0.023  0.00  0.00    -0.273 OA
ENDROOT
BRANCH   1  15
ATOM     15  C   UNL     1       6.176   4.733   0.045  0.00  0.00    +0.097 C 
BRANCH  15  16
ATOM     16  C   UNL     1       6.479   4.423  -1.422  0.00  0.00    -0.059 C 
BRANCH  16  17
ATOM     17  N   UNL     1       7.749   3.670  -1.498  0.00  0.00    +0.380 N 
ATOM     18  H   UNL     1       8.470   4.180  -0.975  0.00  0.00    -0.082 HD
BRANCH  17  20
ATOM     19  C   UNL     1       6.493   1.545  -1.639  0.00  0.00    -0.017 C 
ATOM     20  C   UNL     1       7.578   2.330  -0.898  0.00  0.00    -0.082 C 
ENDBRANCH  17  20
BRANCH  17  21
ATOM     21  C   UNL     1       8.177   3.543  -2.907  0.00  0.00    -0.082 C 
ATOM     22  C   UNL     1       9.640   3.097  -2.937  0.00  0.00    -0.017 C 
ENDBRANCH  17  21
ENDBRANCH  16  17
ENDBRANCH  15  16
ENDBRANCH   1  15
BRANCH  13  23
ATOM     23  C   UNL     1       3.679   7.632   0.184  0.00  0.00    +0.267 C 
BRANCH  23  24
ATOM     24  S   UNL     1       4.050   9.405   0.096  0.00  0.00    +0.005 S 
ATOM     25  O   UNL     1       4.755   9.816   1.259  0.00  0.00    -0.169 OA
ATOM     26  O   UNL     1       4.531   9.741  -1.199  0.00  0.00    -0.169 OA
BRANCH  24  27
ATOM     27  C   UNL     1       2.483  10.202   0.214  0.00  0.00    +0.089 A 
ATOM     28  C   UNL     1       1.762  10.483  -0.931  0.00  0.00    +0.028 A 
ATOM     29  C   UNL     1       0.531  11.103  -0.839  0.00  0.00    +0.022 A 
ATOM     30  C   UNL     1       0.024  11.453   0.401  0.00  0.00    +0.041 A 
ATOM     31  C   UNL     1       0.749  11.177   1.546  0.00  0.00    +0.022 A 
ATOM     32  C   UNL     1       1.978  10.551   1.453  0.00  0.00    +0.028 A 
ATOM     33 CL   UNL     1      -1.520  12.238   0.517  0.00  0.00    -0.084 Cl
ENDBRANCH  24  27
ENDBRANCH  23  24
ENDBRANCH  13  23
TORSDOF 8
