REMARK  Name = ZINC66825770
REMARK  6 active torsions:
REMARK  status: ('A' for Active; 'I' for Inactive)
REMARK    1  A    between atoms: C_1  and  C_2
REMARK    2  A    between atoms: C_2  and  C_4
REMARK    3  A    between atoms: C_2  and  N_16
REMARK    4  A    between atoms: N_6  and  C_7
REMARK    5  A    between atoms: C_10  and  N_14
REMARK    6  A    between atoms: C_17  and  C_19
REMARK                            x       y       z     vdW  Elec       q    Type
REMARK                         _______ _______ _______ _____ _____    ______ ____
ROOT
ATOM      1  C   UNL     1      -1.411  -0.527   0.012  0.00  0.00    +0.237 C 
ATOM      2  O   UNL     1      -1.787  -1.242   0.917  0.00  0.00    -0.273 OA
ATOM      3  N   UNL     1      -2.256  -0.206  -0.988  0.00  0.00    -0.284 N 
ATOM      4  H   UNL     1      -1.977   0.418  -1.677  0.00  0.00    +0.155 HD
ENDROOT
BRANCH   3   5
ATOM      5  C   UNL     1      -3.536  -0.774  -1.034  0.00  0.00    +0.036 A 
ATOM      6  C   UNL     1      -4.114  -1.085  -2.258  0.00  0.00    +0.045 A 
ATOM      7  C   UNL     1      -5.376  -1.645  -2.303  0.00  0.00    +0.065 A 
ATOM      8  C   UNL     1      -6.067  -1.898  -1.125  0.00  0.00    +0.062 A 
ATOM      9  C   UNL     1      -5.488  -1.587   0.100  0.00  0.00    +0.065 A 
ATOM     10  C   UNL     1      -4.223  -1.032   0.144  0.00  0.00    +0.045 A 
ATOM     11 CL   UNL     1      -6.350  -1.902   1.573  0.00  0.00    -0.082 Cl
ATOM     12 CL   UNL     1      -6.099  -2.033  -3.833  0.00  0.00    -0.082 Cl
BRANCH   8  13
ATOM     13  N   UNL     1      -7.346  -2.465  -1.170  0.00  0.00    -0.356 N 
ATOM     14  H   UNL     1      -7.751  -2.682  -2.025  0.00  0.00    +0.142 HD
ATOM     15  H   UNL     1      -7.828  -2.642  -0.347  0.00  0.00    +0.142 HD
ENDBRANCH   8  13
ENDBRANCH   3   5
BRANCH   1  17
ATOM     16  C   UNL     1      -0.029   1.531   0.022  0.00  0.00    +0.038 C 
ATOM     17  C   UNL     1       0.000   0.002   0.005  0.00  0.00    +0.156 C 
BRANCH  17  18
ATOM     18  N   UNL     1       0.710  -0.487   1.190  0.00  0.00    -0.304 N 
ATOM     19  C   UNL     1       2.054  -0.590   1.176  0.00  0.00    +0.217 C 
ATOM     20  O   UNL     1       2.675  -0.279   0.182  0.00  0.00    -0.275 OA
ATOM     21  H   UNL     1       0.213  -0.736   1.985  0.00  0.00    +0.149 HD
BRANCH  19  22
ATOM     22  C   UNL     1       2.784  -1.093   2.394  0.00  0.00    +0.079 C 
ATOM     23  C   UNL     1       2.507  -0.161   3.578  0.00  0.00    +0.041 C 
ATOM     24  C   UNL     1       3.314  -0.634   4.790  0.00  0.00    +0.160 C 
ATOM     25  O   UNL     1       4.703  -0.660   4.454  0.00  0.00    -0.380 OA
ATOM     26  C   UNL     1       5.029  -1.550   3.385  0.00  0.00    +0.160 C 
ATOM     27  C   UNL     1       4.290  -1.114   2.117  0.00  0.00    +0.041 C 
ENDBRANCH  19  22
ENDBRANCH  17  18
ENDBRANCH   1  17
TORSDOF 5
