REMARK  Name = ZINC09041387
REMARK  14 active torsions:
REMARK  status: ('A' for Active; 'I' for Inactive)
REMARK    1  A    between atoms: C_1  and  C_2
REMARK    2  A    between atoms: C_2  and  N_64
REMARK    3  A    between atoms: C_3  and  C_4
REMARK    4  A    between atoms: C_3  and  N_64
REMARK    5  A    between atoms: C_5  and  C_6
REMARK    6  A    between atoms: C_5  and  N_64
REMARK    7  A    between atoms: C_6  and  N_7
REMARK    8  A    between atoms: C_8  and  C_23
REMARK    9  A    between atoms: C_11  and  C_12
REMARK   10  A    between atoms: C_11  and  O_18
REMARK   11  A    between atoms: C_26  and  O_29
REMARK   12  A    between atoms: O_29  and  C_30
REMARK   13  A    between atoms: C_30  and  C_31
REMARK   14  A    between atoms: C_30  and  C_32
REMARK                            x       y       z     vdW  Elec       q    Type
REMARK                         _______ _______ _______ _____ _____    ______ ____
ROOT
ATOM      1  N   UNL     1      -2.863   7.688  -0.209  0.00  0.00    -0.285 N 
ATOM      2  C   UNL     1      -1.419   7.458  -0.110  0.00  0.00    +0.144 C 
ATOM      3  C   UNL     1      -1.225   5.963  -0.004  0.00  0.00    +0.071 C 
ATOM      4  C   UNL     1      -0.027   5.288   0.105  0.00  0.00    +0.133 C 
ATOM      5  C   UNL     1      -2.511   5.399  -0.034  0.00  0.00    +0.249 C 
ATOM      6  O   UNL     1      -2.772   4.212   0.034  0.00  0.00    -0.282 OA
ATOM      7  C   UNL     1      -3.499   6.505  -0.162  0.00  0.00    +0.288 C 
ATOM      8  O   UNL     1      -4.703   6.360  -0.215  0.00  0.00    -0.266 OA
ENDROOT
BRANCH   4   9
ATOM      9  C   UNL     1      -0.004   3.816   0.071  0.00  0.00    +0.017 A 
ATOM     10  C   UNL     1      -0.706   3.125  -0.922  0.00  0.00    +0.011 A 
ATOM     11  C   UNL     1      -0.680   1.746  -0.947  0.00  0.00    +0.001 A 
ATOM     12  C   UNL     1       0.037   1.046   0.008  0.00  0.00    +0.000 A 
ATOM     13  C   UNL     1       0.729   1.723   0.998  0.00  0.00    +0.001 A 
ATOM     14  C   UNL     1       0.718   3.101   1.033  0.00  0.00    +0.011 A 
ENDBRANCH   4   9
BRANCH   2  15
ATOM     15  C   UNL     1      -0.731   7.981  -1.345  0.00  0.00    -0.022 A 
ATOM     16  C   UNL     1      -1.323   7.824  -2.584  0.00  0.00    +0.009 A 
ATOM     17  C   UNL     1      -0.697   8.308  -3.716  0.00  0.00    +0.046 A 
ATOM     18  C   UNL     1       0.532   8.942  -3.611  0.00  0.00    +0.121 A 
ATOM     19  C   UNL     1       1.127   9.093  -2.366  0.00  0.00    +0.046 A 
ATOM     20  C   UNL     1       0.494   8.613  -1.236  0.00  0.00    +0.009 A 
BRANCH  18  21
ATOM     21  O   UNL     1       1.153   9.413  -4.724  0.00  0.00    -0.489 OA
BRANCH  21  22
ATOM     22  C   UNL     1       2.468   9.948  -4.556  0.00  0.00    +0.167 C 
ATOM     23  C   UNL     1       3.232   9.847  -5.878  0.00  0.00    +0.051 C 
ATOM     24  C   UNL     1       2.372  11.415  -4.134  0.00  0.00    +0.051 C 
ENDBRANCH  21  22
ENDBRANCH  18  21
ENDBRANCH   2  15
BRANCH   4  25
ATOM     25  O   UNL     1       1.126   5.978   0.243  0.00  0.00    -0.506 OA
ATOM     26  H   UNL     1       1.891   5.338   0.308  0.00  0.00    +0.292 HD
ENDBRANCH   4  25
BRANCH   1  27
ATOM     27  C   UNL     1      -3.510   8.997  -0.332  0.00  0.00    +0.090 C 
BRANCH  27  28
ATOM     28  C   UNL     1      -3.811   9.550   1.062  0.00  0.00    -0.060 C 
BRANCH  28  29
ATOM     29  N   UNL     1      -4.443  10.879   0.922  0.00  0.00    +0.380 N 
ATOM     30  H   UNL     1      -3.861  11.462   0.309  0.00  0.00    -0.082 HD
BRANCH  29  32
ATOM     31  C   UNL     1      -6.704   9.929   1.236  0.00  0.00    -0.017 C 
ATOM     32  C   UNL     1      -5.785  10.738   0.319  0.00  0.00    -0.082 C 
ENDBRANCH  29  32
BRANCH  29  33
ATOM     33  C   UNL     1      -4.549  11.530   2.244  0.00  0.00    -0.082 C 
ATOM     34  C   UNL     1      -4.872  13.011   2.039  0.00  0.00    -0.017 C 
ENDBRANCH  29  33
ENDBRANCH  28  29
ENDBRANCH  27  28
ENDBRANCH   1  27
TORSDOF 10
