REMARK  Name = ZINC39699262
REMARK  8 active torsions:
REMARK  status: ('A' for Active; 'I' for Inactive)
REMARK    1  A    between atoms: C_1  and  C_2
REMARK    2  A    between atoms: C_8  and  C_14
REMARK    3  A    between atoms: C_14  and  C_16
REMARK    4  A    between atoms: C_14  and  N_26
REMARK    5  A    between atoms: N_21  and  C_22
REMARK    6  A    between atoms: C_22  and  C_23
REMARK    7  A    between atoms: C_22  and  C_24
REMARK    8  A    between atoms: C_22  and  C_25
REMARK                            x       y       z     vdW  Elec       q    Type
REMARK                         _______ _______ _______ _____ _____    ______ ____
ROOT
ATOM      1  C   UNL     1       1.295  -2.566   4.414  0.00  0.00    -0.010 C 
ENDROOT
BRANCH   1   9
ATOM      2  C   UNL     1      -0.996   0.965  -0.053  0.00  0.00    +0.045 C 
ATOM      3  C   UNL     1      -0.781  -0.524   0.030  0.00  0.00    -0.029 A 
ATOM      4  C   UNL     1      -0.817  -1.274  -1.102  0.00  0.00    +0.005 A 
ATOM      5  C   UNL     1      -0.625  -2.656  -1.096  0.00  0.00    +0.001 A 
ATOM      6  C   UNL     1      -0.391  -3.332   0.058  0.00  0.00    +0.009 A 
ATOM      7  C   UNL     1      -0.339  -2.585   1.316  0.00  0.00    -0.007 A 
ATOM      8  C   UNL     1      -0.106  -3.222   2.498  0.00  0.00    -0.006 C 
ATOM      9  C   UNL     1      -0.070  -2.369   3.752  0.00  0.00    +0.088 C 
ATOM     10  C   UNL     1      -0.295  -0.883   3.587  0.00  0.00    +0.223 C 
ATOM     11  O   UNL     1      -0.276  -0.151   4.559  0.00  0.00    -0.275 OA
ATOM     12  N   UNL     1      -0.512  -0.381   2.383  0.00  0.00    -0.284 N 
ATOM     13  C   UNL     1      -0.539  -1.126   1.278  0.00  0.00    +0.043 A 
ATOM     14  H   UNL     1      -0.654   0.575   2.300  0.00  0.00    +0.155 HD
ENDBRANCH   1   9
BRANCH   1  15
ATOM     15  C   UNL     1       2.391  -2.021   3.496  0.00  0.00    +0.205 C 
ATOM     16  N   UNL     1       2.143  -0.606   3.185  0.00  0.00    -0.152 NA
ATOM     17  N   UNL     1       1.992  -0.486   1.968  0.00  0.00    -0.070 NA
ATOM     18  N   UNL     1       2.101  -1.697   1.286  0.00  0.00    -0.179 N 
ATOM     19  N   UNL     1       2.353  -2.703   2.186  0.00  0.00    -0.183 NA
ATOM     20  H   UNL     1       2.013  -1.811   0.326  0.00  0.00    +0.191 HD
BRANCH  19  21
ATOM     21  C   UNL     1       3.634  -3.362   1.897  0.00  0.00    +0.035 C 
ATOM     22  C   UNL     1       3.929  -4.399   2.982  0.00  0.00    +0.029 C 
ATOM     23  C   UNL     1       3.555  -4.055   0.536  0.00  0.00    +0.029 C 
ATOM     24  C   UNL     1       4.751  -2.316   1.874  0.00  0.00    +0.029 C 
ENDBRANCH  19  21
ENDBRANCH   1  15
BRANCH   1  25
ATOM     25  N   UNL     1       1.326  -1.846   5.694  0.00  0.00    +0.385 N 
ATOM     26  C   UNL     1       0.231  -2.324   6.577  0.00  0.00    -0.078 C 
ATOM     27  C   UNL     1       0.720  -1.931   7.994  0.00  0.00    -0.020 C 
ATOM     28  C   UNL     1       2.243  -2.187   7.917  0.00  0.00    -0.020 C 
ATOM     29  C   UNL     1       2.583  -2.142   6.416  0.00  0.00    -0.078 C 
ATOM     30  H   UNL     1       1.240  -0.853   5.538  0.00  0.00    -0.081 HD
ENDBRANCH   1  25
TORSDOF 4
