REMARK  Name = ZINC08878193
REMARK  11 active torsions:
REMARK  status: ('A' for Active; 'I' for Inactive)
REMARK    1  A    between atoms: C_1  and  C_2
REMARK    2  A    between atoms: C_4  and  C_31
REMARK    3  A    between atoms: C_5  and  N_9
REMARK    4  A    between atoms: C_6  and  C_8
REMARK    5  A    between atoms: C_10  and  C_12
REMARK    6  A    between atoms: C_12  and  N_13
REMARK    7  A    between atoms: C_14  and  C_16
REMARK    8  A    between atoms: C_16  and  O_17
REMARK    9  A    between atoms: O_17  and  C_18
REMARK   10  A    between atoms: C_18  and  C_20
REMARK   11  A    between atoms: C_21  and  C_30
REMARK                            x       y       z     vdW  Elec       q    Type
REMARK                         _______ _______ _______ _____ _____    ______ ____
ROOT
ATOM      1  N   UNL     1      -8.448   0.753  -0.114  0.00  0.00    -0.304 N 
ATOM      2  C   UNL     1      -7.456   0.696   0.796  0.00  0.00    +0.251 C 
ATOM      3  O   UNL     1      -7.326   1.587   1.609  0.00  0.00    -0.272 OA
ATOM      4  H   UNL     1      -8.551   0.041  -0.764  0.00  0.00    +0.149 HD
ENDROOT
BRANCH   1   5
ATOM      5  C   UNL     1      -9.370   1.892  -0.122  0.00  0.00    +0.200 C 
BRANCH   5   7
ATOM      6  N   UNL     1     -11.331   2.645  -1.428  0.00  0.00    -0.284 N 
ATOM      7  C   UNL     1     -10.377   1.714  -1.229  0.00  0.00    +0.234 C 
ATOM      8  O   UNL     1     -10.330   0.733  -1.941  0.00  0.00    -0.274 OA
ATOM      9  H   UNL     1     -11.402   3.403  -0.826  0.00  0.00    +0.155 HD
BRANCH   6  14
ATOM     10  C   UNL     1     -14.932   2.134  -5.782  0.00  0.00    +0.044 C 
ATOM     11  C   UNL     1     -13.976   2.270  -4.625  0.00  0.00    -0.050 A 
ATOM     12  C   UNL     1     -14.463   2.466  -3.346  0.00  0.00    +0.008 A 
ATOM     13  C   UNL     1     -13.589   2.590  -2.284  0.00  0.00    -0.029 A 
ATOM     14  C   UNL     1     -12.220   2.518  -2.502  0.00  0.00    +0.039 A 
ATOM     15  C   UNL     1     -11.733   2.327  -3.788  0.00  0.00    -0.029 A 
ATOM     16  C   UNL     1     -12.612   2.198  -4.845  0.00  0.00    +0.008 A 
ATOM     17  C   UNL     1     -10.247   2.254  -4.030  0.00  0.00    +0.045 C 
ATOM     18  C   UNL     1     -14.121   2.803  -0.890  0.00  0.00    +0.045 C 
ENDBRANCH   6  14
ENDBRANCH   5   7
ENDBRANCH   1   5
BRANCH   2  19
ATOM     19  C   UNL     1      -6.507  -0.474   0.805  0.00  0.00    +0.328 C 
BRANCH  19  20
ATOM     20  O   UNL     1      -5.536  -0.303   1.871  0.00  0.00    -0.450 OA
BRANCH  20  21
ATOM     21  C   UNL     1      -4.609  -1.271   2.015  0.00  0.00    +0.376 C 
ATOM     22  O   UNL     1      -4.611  -2.232   1.271  0.00  0.00    -0.241 OA
BRANCH  21  23
ATOM     23  C   UNL     1      -3.595  -1.165   3.072  0.00  0.00    +0.216 A 
ATOM     24  C   UNL     1      -2.616  -2.076   3.311  0.00  0.00    +0.010 A 
ATOM     25  C   UNL     1      -1.847  -1.557   4.442  0.00  0.00    +0.025 A 
ATOM     26  C   UNL     1      -0.733  -2.011   5.152  0.00  0.00    +0.027 A 
ATOM     27  C   UNL     1      -0.243  -1.269   6.190  0.00  0.00    +0.019 A 
ATOM     28  C   UNL     1      -0.846  -0.068   6.543  0.00  0.00    +0.019 A 
ATOM     29  C   UNL     1      -1.945   0.397   5.854  0.00  0.00    +0.048 A 
ATOM     30  C   UNL     1      -2.461  -0.341   4.795  0.00  0.00    +0.136 A 
ATOM     31  O   UNL     1      -3.498  -0.149   3.956  0.00  0.00    -0.448 OA
ATOM     32 BR   UNL     1       1.265  -1.881   7.153  0.00  0.00    -0.050 Br
ATOM     33  C   UNL     1      -2.367  -3.358   2.559  0.00  0.00    +0.048 C 
ENDBRANCH  21  23
ENDBRANCH  20  21
ENDBRANCH  19  20
ENDBRANCH   2  19
TORSDOF 7
