REMARK  Name = ZINC38529225
REMARK  4 active torsions:
REMARK  status: ('A' for Active; 'I' for Inactive)
REMARK    1  A    between atoms: C_1  and  C_2
REMARK    2  A    between atoms: C_5  and  C_8
REMARK    3  A    between atoms: C_10  and  N_16
REMARK    4  A    between atoms: N_14  and  C_15
REMARK                            x       y       z     vdW  Elec       q    Type
REMARK                         _______ _______ _______ _____ _____    ______ ____
ROOT
ATOM      1  C   UNL     1       0.059  -4.275  -0.021  0.00  0.00    +0.152 C 
ATOM      2  C   UNL     1      -1.342  -4.839   0.290  0.00  0.00    +0.178 C 
ATOM      3  C   UNL     1      -1.138  -5.625   1.566  0.00  0.00    +0.132 C 
ATOM      4  N   UNL     1       0.077  -5.551   1.927  0.00  0.00    -0.194 NA
ATOM      5  N   UNL     1       0.888  -4.790   1.081  0.00  0.00    -0.249 N 
ATOM      6  C   UNL     1       2.321  -4.544   1.260  0.00  0.00    +0.152 C 
ENDROOT
BRANCH   2   7
ATOM      7  N   UNL     1      -1.796  -5.717  -0.791  0.00  0.00    -0.233 N 
ATOM      8  C   UNL     1      -2.916  -5.551  -1.570  0.00  0.00    +0.090 A 
ATOM      9  C   UNL     1      -3.927  -4.596  -1.618  0.00  0.00    +0.029 A 
ATOM     10  C   UNL     1      -4.933  -4.717  -2.535  0.00  0.00    +0.002 A 
ATOM     11  C   UNL     1      -4.956  -5.787  -3.421  0.00  0.00    +0.002 A 
ATOM     12  C   UNL     1      -3.977  -6.736  -3.394  0.00  0.00    +0.032 A 
ATOM     13  C   UNL     1      -2.934  -6.635  -2.464  0.00  0.00    +0.113 A 
ATOM     14  N   UNL     1      -1.854  -7.398  -2.203  0.00  0.00    -0.129 NA
ATOM     15  N   UNL     1      -1.169  -6.888  -1.241  0.00  0.00    -0.064 NA
ENDBRANCH   2   7
BRANCH   1  20
ATOM     16  C   UNL     1      -0.018   1.503   0.010  0.00  0.00    +0.044 C 
ATOM     17  C   UNL     1       0.002  -0.004   0.002  0.00  0.00    -0.050 A 
ATOM     18  C   UNL     1       0.006  -0.689  -1.199  0.00  0.00    +0.004 A 
ATOM     19  C   UNL     1       0.025  -2.071  -1.206  0.00  0.00    +0.006 A 
ATOM     20  C   UNL     1       0.040  -2.768  -0.013  0.00  0.00    -0.023 A 
ATOM     21  C   UNL     1       0.037  -2.084   1.188  0.00  0.00    +0.006 A 
ATOM     22  C   UNL     1       0.023  -0.702   1.195  0.00  0.00    +0.004 A 
ENDBRANCH   1  20
TORSDOF 2
