REMARK  Name = ZINC38673662
REMARK  5 active torsions:
REMARK  status: ('A' for Active; 'I' for Inactive)
REMARK    1  A    between atoms: C_7  and  C_15
REMARK    2  A    between atoms: N_17  and  C_18
REMARK    3  A    between atoms: C_18  and  C_19
REMARK    4  A    between atoms: C_19  and  C_21
REMARK    5  A    between atoms: C_19  and  N_26
REMARK                            x       y       z     vdW  Elec       q    Type
REMARK                         _______ _______ _______ _____ _____    ______ ____
ROOT
ATOM      1  C   UNL     1       1.806  -2.712   4.072  0.00  0.00    +0.225 C 
ATOM      2  O   UNL     1       1.285  -1.914   3.322  0.00  0.00    -0.275 OA
ATOM      3  N   UNL     1       1.552  -4.029   3.937  0.00  0.00    -0.316 N 
ATOM      4  H   UNL     1       1.969  -4.667   4.537  0.00  0.00    +0.149 HD
ENDROOT
BRANCH   1  11
ATOM      5  C   UNL     1       3.746   1.220   4.027  0.00  0.00    +0.001 A 
ATOM      6  C   UNL     1       3.068   2.024   4.925  0.00  0.00    +0.004 A 
ATOM      7  C   UNL     1       2.280   1.452   5.904  0.00  0.00    +0.046 A 
ATOM      8  C   UNL     1       2.166   0.069   5.988  0.00  0.00    +0.133 A 
ATOM      9  C   UNL     1       2.846  -0.733   5.087  0.00  0.00    +0.011 A 
ATOM     10  C   UNL     1       3.636  -0.154   4.109  0.00  0.00    +0.008 A 
ATOM     11  C   UNL     1       2.737  -2.232   5.155  0.00  0.00    +0.142 C 
ATOM     12  C   UNL     1       2.205  -2.664   6.495  0.00  0.00    +0.011 A 
ATOM     13  C   UNL     1       2.365  -3.979   6.895  0.00  0.00    +0.008 A 
ATOM     14  C   UNL     1       1.883  -4.396   8.121  0.00  0.00    +0.001 A 
ATOM     15  C   UNL     1       1.237  -3.500   8.952  0.00  0.00    +0.004 A 
ATOM     16  C   UNL     1       1.075  -2.187   8.558  0.00  0.00    +0.046 A 
ATOM     17  C   UNL     1       1.559  -1.764   7.325  0.00  0.00    +0.133 A 
ATOM     18  O   UNL     1       1.387  -0.472   6.955  0.00  0.00    -0.455 OA
ENDBRANCH   1  11
BRANCH   3  19
ATOM     19  C   UNL     1       0.647  -4.496   2.884  0.00  0.00    +0.093 C 
BRANCH  19  20
ATOM     20  C   UNL     1       0.627  -6.026   2.870  0.00  0.00    -0.020 C 
BRANCH  20  21
ATOM     21  N   UNL     1      -0.227  -6.494   1.770  0.00  0.00    +0.385 N 
ATOM     22  C   UNL     1      -0.307  -7.966   1.828  0.00  0.00    -0.078 C 
ATOM     23  C   UNL     1      -1.585  -8.398   1.151  0.00  0.00    -0.019 C 
ATOM     24  C   UNL     1      -1.340  -8.787  -0.319  0.00  0.00    -0.002 C 
ATOM     25  C   UNL     1      -0.354  -7.824  -1.010  0.00  0.00    -0.002 C 
ATOM     26  C   UNL     1      -0.601  -6.384  -0.637  0.00  0.00    -0.019 C 
ATOM     27  C   UNL     1       0.292  -6.015   0.566  0.00  0.00    -0.078 C 
ATOM     28  H   UNL     1      -1.153  -6.115   1.896  0.00  0.00    -0.081 HD
ENDBRANCH  20  21
BRANCH  20  29
ATOM     29  C   UNL     1       0.081  -6.532   4.180  0.00  0.00    -0.052 A 
ATOM     30  C   UNL     1       0.935  -6.977   5.171  0.00  0.00    +0.009 A 
ATOM     31  C   UNL     1       0.411  -7.426   6.338  0.00  0.00    +0.045 A 
ATOM     32  S   UNL     1      -1.340  -7.228   6.057  0.00  0.00    -0.105 S 
ATOM     33  C   UNL     1      -1.256  -6.554   4.406  0.00  0.00    +0.047 A 
ENDBRANCH  20  29
ENDBRANCH  19  20
ENDBRANCH   3  19
TORSDOF 5
