REMARK  Name = ZINC34696632
REMARK  8 active torsions:
REMARK  status: ('A' for Active; 'I' for Inactive)
REMARK    1  A    between atoms: C_1  and  C_2
REMARK    2  A    between atoms: C_4  and  C_17
REMARK    3  A    between atoms: C_5  and  C_16
REMARK    4  A    between atoms: N_6  and  C_7
REMARK    5  A    between atoms: C_10  and  C_13
REMARK    6  A    between atoms: C_13  and  C_14
REMARK    7  A    between atoms: C_13  and  C_15
REMARK    8  A    between atoms: C_27  and  C_29
REMARK                            x       y       z     vdW  Elec       q    Type
REMARK                         _______ _______ _______ _____ _____    ______ ____
ROOT
ATOM      1  C   UNL     1       0.041  -3.340  -1.427  0.00  0.00    +0.026 C 
ATOM      2  C   UNL     1      -0.649  -3.368  -2.621  0.00  0.00    +0.081 C 
ATOM      3  C   UNL     1      -0.760  -4.610  -3.435  0.00  0.00    +0.152 C 
ATOM      4  N   UNL     1      -0.815  -5.807  -2.913  0.00  0.00    -0.283 NA
ATOM      5  N   UNL     1      -0.801  -4.368  -4.825  0.00  0.00    -0.152 N 
ATOM      6  C   UNL     1      -1.226  -3.124  -5.242  0.00  0.00    +0.181 C 
ATOM      7  N   UNL     1      -1.513  -2.088  -4.495  0.00  0.00    -0.152 NA
ATOM      8  C   UNL     1      -1.326  -2.164  -3.160  0.00  0.00    +0.273 C 
ATOM      9  O   UNL     1      -1.698  -1.268  -2.419  0.00  0.00    -0.268 OA
ATOM     10  S   UNL     1      -1.249  -3.312  -7.005  0.00  0.00    -0.038 S 
ATOM     11  C   UNL     1      -0.603  -4.977  -7.072  0.00  0.00    +0.103 C 
ATOM     12  N   UNL     1      -0.464  -5.270  -5.811  0.00  0.00    -0.169 NA
ATOM     13  H   UNL     1      -0.886  -6.585  -3.489  0.00  0.00    +0.188 HD
ENDROOT
BRANCH   1  17
ATOM     14  C   UNL     1       0.908   1.558  -0.546  0.00  0.00    +0.064 C 
ATOM     15  C   UNL     1       0.651   0.082  -0.384  0.00  0.00    +0.022 A 
ATOM     16  C   UNL     1       0.488  -0.794  -1.389  0.00  0.00    +0.031 A 
ATOM     17  C   UNL     1       0.264  -2.106  -0.765  0.00  0.00    -0.003 A 
ATOM     18  C   UNL     1       0.315  -1.889   0.602  0.00  0.00    +0.028 A 
ATOM     19  N   UNL     1       0.553  -0.578   0.809  0.00  0.00    -0.317 N 
ATOM     20  C   UNL     1       0.142  -2.937   1.671  0.00  0.00    +0.064 C 
BRANCH  19  21
ATOM     21  C   UNL     1       0.677   0.023   2.069  0.00  0.00    +0.047 A 
ATOM     22  C   UNL     1       1.739  -0.313   2.898  0.00  0.00    +0.026 A 
ATOM     23  C   UNL     1       1.859   0.281   4.139  0.00  0.00    +0.006 A 
ATOM     24  C   UNL     1       0.923   1.209   4.556  0.00  0.00    -0.045 A 
ATOM     25  C   UNL     1      -0.136   1.546   3.733  0.00  0.00    +0.006 A 
ATOM     26  C   UNL     1      -0.258   0.960   2.489  0.00  0.00    +0.026 A 
BRANCH  24  27
ATOM     27  C   UNL     1       1.057   1.855   5.911  0.00  0.00    +0.013 C 
ATOM     28  C   UNL     1       1.186   3.371   5.744  0.00  0.00    +0.012 C 
ATOM     29  C   UNL     1      -0.182   1.539   6.752  0.00  0.00    +0.012 C 
ENDBRANCH  24  27
ENDBRANCH  19  21
ENDBRANCH   1  17
BRANCH  11  30
ATOM     30  C   UNL     1      -0.298  -5.825  -8.279  0.00  0.00    +0.046 C 
ATOM     31  C   UNL     1      -0.370  -7.304  -7.895  0.00  0.00    +0.010 C 
ATOM     32  C   UNL     1      -0.060  -8.166  -9.121  0.00  0.00    +0.001 C 
ATOM     33  C   UNL     1       1.345  -7.839  -9.632  0.00  0.00    +0.000 C 
ATOM     34  C   UNL     1       1.417  -6.360 -10.016  0.00  0.00    +0.001 C 
ATOM     35  C   UNL     1       1.107  -5.499  -8.790  0.00  0.00    +0.010 C 
ENDBRANCH  11  30
TORSDOF 4
