REMARK  Name = ZINC04221629
REMARK  12 active torsions:
REMARK  status: ('A' for Active; 'I' for Inactive)
REMARK    1  A    between atoms: C_1  and  C_2
REMARK    2  A    between atoms: C_5  and  O_11
REMARK    3  A    between atoms: O_11  and  C_12
REMARK    4  A    between atoms: C_15  and  C_23
REMARK    5  A    between atoms: C_17  and  O_22
REMARK    6  A    between atoms: C_19  and  O_21
REMARK    7  A    between atoms: N_25  and  C_26
REMARK    8  A    between atoms: C_26  and  C_28
REMARK    9  A    between atoms: C_26  and  C_37
REMARK   10  A    between atoms: C_28  and  C_29
REMARK   11  A    between atoms: C_32  and  O_35
REMARK   12  A    between atoms: O_35  and  C_36
REMARK                            x       y       z     vdW  Elec       q    Type
REMARK                         _______ _______ _______ _____ _____    ______ ____
ROOT
ATOM      1  C   UNL     1      -2.671  -1.270  -6.201  0.00  0.00    +0.228 C 
ATOM      2  C   UNL     1      -1.390  -1.497  -5.453  0.00  0.00    +0.028 C 
ATOM      3  C   UNL     1      -1.314  -1.590  -4.143  0.00  0.00    +0.016 C 
ATOM      4  C   UNL     1      -2.501  -1.495  -3.229  0.00  0.00    +0.074 C 
ATOM      5  C   UNL     1      -3.682  -0.857  -3.967  0.00  0.00    +0.151 C 
ATOM      6  C   UNL     1      -3.869  -1.587  -5.303  0.00  0.00    +0.188 C 
ENDROOT
BRANCH   3   7
ATOM      7  C   UNL     1       0.010  -1.805  -3.539  0.00  0.00    +0.241 C 
ATOM      8  O   UNL     1       0.994  -1.891  -4.248  0.00  0.00    -0.271 OA
ATOM      9  N   UNL     1       0.132  -1.905  -2.201  0.00  0.00    -0.300 N 
ATOM     10  H   UNL     1      -0.654  -1.836  -1.636  0.00  0.00    +0.150 HD
BRANCH   9  11
ATOM     11  C   UNL     1       1.450  -2.119  -1.599  0.00  0.00    +0.163 C 
BRANCH  11  12
ATOM     12  C   UNL     1       1.767  -3.592  -1.594  0.00  0.00    +0.231 C 
ATOM     13  O   UNL     1       0.970  -4.386  -2.048  0.00  0.00    -0.274 OA
ATOM     14  N   UNL     1       2.936  -4.029  -1.085  0.00  0.00    -0.328 N 
ATOM     15  H   UNL     1       3.574  -3.394  -0.722  0.00  0.00    +0.145 HD
ATOM     16  H   UNL     1       3.140  -4.977  -1.081  0.00  0.00    +0.145 HD
ENDBRANCH  11  12
BRANCH  11  17
ATOM     17  C   UNL     1       1.447  -1.593  -0.163  0.00  0.00    +0.067 C 
BRANCH  17  18
ATOM     18  C   UNL     1       1.252  -0.099  -0.175  0.00  0.00    -0.045 A 
ATOM     19  C   UNL     1      -0.024   0.431  -0.128  0.00  0.00    +0.007 A 
ATOM     20  C   UNL     1      -0.205   1.801  -0.139  0.00  0.00    +0.046 A 
ATOM     21  C   UNL     1       0.894   2.644  -0.198  0.00  0.00    +0.120 A 
ATOM     22  C   UNL     1       2.174   2.110  -0.245  0.00  0.00    +0.046 A 
ATOM     23  C   UNL     1       2.349   0.740  -0.234  0.00  0.00    +0.007 A 
BRANCH  21  24
ATOM     24  O   UNL     1       0.719   3.992  -0.209  0.00  0.00    -0.495 OA
ATOM     25  C   UNL     1       1.896   4.799  -0.272  0.00  0.00    +0.277 C 
ENDBRANCH  21  24
ENDBRANCH  17  18
ENDBRANCH  11  17
ENDBRANCH   9  11
ENDBRANCH   3   7
BRANCH   6  26
ATOM     26  O   UNL     1      -5.072  -1.142  -5.933  0.00  0.00    -0.385 OA
ATOM     27  H   UNL     1      -5.872  -1.312  -5.417  0.00  0.00    +0.210 HD
ENDBRANCH   6  26
BRANCH   5  28
ATOM     28  O   UNL     1      -3.412   0.526  -4.209  0.00  0.00    -0.389 OA
ATOM     29  H   UNL     1      -3.283   1.048  -3.405  0.00  0.00    +0.210 HD
ENDBRANCH   5  28
BRANCH   1  30
ATOM     30  O   UNL     1      -2.705  -2.117  -7.352  0.00  0.00    -0.481 OA
BRANCH  30  35
ATOM     31  C   UNL     1      -0.527  -0.051 -12.114  0.00  0.00    +0.044 C 
ATOM     32  C   UNL     1      -1.111  -0.604 -10.839  0.00  0.00    -0.046 A 
ATOM     33  C   UNL     1      -0.352  -1.439 -10.041  0.00  0.00    +0.022 A 
ATOM     34  C   UNL     1      -0.884  -1.948  -8.872  0.00  0.00    +0.060 A 
ATOM     35  C   UNL     1      -2.180  -1.618  -8.501  0.00  0.00    +0.139 A 
ATOM     36  C   UNL     1      -2.943  -0.782  -9.307  0.00  0.00    -0.001 A 
ATOM     37  C   UNL     1      -2.404  -0.271 -10.473  0.00  0.00    -0.038 A 
ATOM     38  C   UNL     1      -3.423   0.611 -11.163  0.00  0.00    +0.036 C 
ATOM     39  C   UNL     1      -4.782   0.226 -10.531  0.00  0.00    +0.009 C 
ATOM     40  C   UNL     1      -4.361  -0.281  -9.135  0.00  0.00    +0.039 C 
ATOM     41 BR   UNL     1       0.151  -3.092  -7.779  0.00  0.00    -0.047 Br
ENDBRANCH  30  35
ENDBRANCH   1  30
TORSDOF 10
