REMARK  Name = ZINC33122754
REMARK  9 active torsions:
REMARK  status: ('A' for Active; 'I' for Inactive)
REMARK    1  A    between atoms: C_1  and  C_2
REMARK    2  A    between atoms: C_2  and  S_3
REMARK    3  A    between atoms: S_3  and  N_6
REMARK    4  A    between atoms: N_6  and  C_7
REMARK    5  A    between atoms: C_10  and  C_13
REMARK    6  A    between atoms: C_15  and  C_18
REMARK    7  A    between atoms: N_23  and  C_25
REMARK    8  A    between atoms: C_28  and  C_32
REMARK    9  A    between atoms: C_29  and  C_31
REMARK                            x       y       z     vdW  Elec       q    Type
REMARK                         _______ _______ _______ _____ _____    ______ ____
ROOT
ATOM      1  C   UNL     1      -3.078   3.812   0.284  0.00  0.00    +0.202 A 
ATOM      2  N   UNL     1      -4.274   3.224   0.511  0.00  0.00    -0.191 NA
ATOM      3  C   UNL     1      -5.136   4.206   0.608  0.00  0.00    +0.233 A 
ATOM      4  O   UNL     1      -4.455   5.345   0.442  0.00  0.00    -0.337 OA
ATOM      5  N   UNL     1      -3.280   5.104   0.263  0.00  0.00    -0.056 NA
ENDROOT
BRANCH   1   9
ATOM      6  C   UNL     1       0.650   1.831  -0.242  0.00  0.00    +0.048 A 
ATOM      7  C   UNL     1      -0.505   1.090  -0.015  0.00  0.00    +0.025 A 
ATOM      8  C   UNL     1      -1.714   1.729   0.150  0.00  0.00    +0.013 A 
ATOM      9  C   UNL     1      -1.778   3.121   0.101  0.00  0.00    +0.023 A 
ATOM     10  C   UNL     1      -0.619   3.863  -0.127  0.00  0.00    +0.013 A 
ATOM     11  C   UNL     1       0.587   3.219  -0.298  0.00  0.00    +0.025 A 
BRANCH   6  12
ATOM     12  N   UNL     1       1.871   1.182  -0.415  0.00  0.00    -0.221 N 
ATOM     13  H   UNL     1       2.167   0.374   0.270  0.00  0.00    +0.173 HD
BRANCH  12  14
ATOM     14  S   UNL     1       2.877   1.626  -1.653  0.00  0.00    +0.043 S 
ATOM     15  O   UNL     1       3.071   3.023  -1.479  0.00  0.00    -0.155 OA
ATOM     16  O   UNL     1       3.974   0.727  -1.570  0.00  0.00    -0.155 OA
BRANCH  14  18
ATOM     17  C   UNL     1       2.807   1.572  -4.387  0.00  0.00    +0.030 C 
ATOM     18  C   UNL     1       1.924   1.312  -3.165  0.00  0.00    +0.185 C 
ENDBRANCH  14  18
ENDBRANCH  12  14
ENDBRANCH   6  12
ENDBRANCH   1   9
BRANCH   3  19
ATOM     19  C   UNL     1      -6.615   4.077   0.861  0.00  0.00    +0.104 C 
ATOM     20  C   UNL     1      -7.027   4.836   2.144  0.00  0.00    +0.111 C 
ATOM     21  C   UNL     1      -8.382   5.420   1.811  0.00  0.00    +0.221 C 
ATOM     22  O   UNL     1      -9.172   5.848   2.625  0.00  0.00    -0.275 OA
ATOM     23  N   UNL     1      -8.583   5.395   0.482  0.00  0.00    -0.271 N 
ATOM     24  C   UNL     1      -7.428   4.822  -0.220  0.00  0.00    +0.127 C 
BRANCH  23  25
ATOM     25  C   UNL     1      -9.743   5.855  -0.149  0.00  0.00    +0.037 A 
ATOM     26  C   UNL     1     -10.833   6.262   0.608  0.00  0.00    +0.024 A 
ATOM     27  C   UNL     1     -11.975   6.721  -0.018  0.00  0.00    +0.005 A 
ATOM     28  C   UNL     1     -12.038   6.764  -1.399  0.00  0.00    -0.047 A 
ATOM     29  C   UNL     1     -10.957   6.354  -2.157  0.00  0.00    -0.046 A 
ATOM     30  C   UNL     1      -9.809   5.899  -1.536  0.00  0.00    +0.027 A 
ATOM     31  C   UNL     1     -11.029   6.403  -3.661  0.00  0.00    +0.044 C 
ATOM     32  C   UNL     1     -13.288   7.259  -2.080  0.00  0.00    +0.044 C 
ENDBRANCH  23  25
ENDBRANCH   3  19
TORSDOF 6
