REMARK  Name = ZINC35270159
REMARK  5 active torsions:
REMARK  status: ('A' for Active; 'I' for Inactive)
REMARK    1  A    between atoms: C_3  and  C_6
REMARK    2  A    between atoms: C_15  and  O_32
REMARK    3  A    between atoms: C_17  and  O_31
REMARK    4  A    between atoms: C_19  and  O_22
REMARK    5  A    between atoms: O_22  and  C_23
REMARK                            x       y       z     vdW  Elec       q    Type
REMARK                         _______ _______ _______ _____ _____    ______ ____
ROOT
ATOM      1  C   UNL     1       3.599   0.625  -0.029  0.00  0.00    +0.319 C 
ATOM      2  O   UNL     1       4.102   1.282   1.136  0.00  0.00    -0.342 OA
ATOM      3  C   UNL     1       5.530   1.276   1.232  0.00  0.00    +0.197 C 
ATOM      4  C   UNL     1       6.022  -0.174   1.214  0.00  0.00    +0.179 C 
ATOM      5  C   UNL     1       5.469  -0.871  -0.033  0.00  0.00    +0.184 C 
ATOM      6  O   UNL     1       4.044  -0.734  -0.042  0.00  0.00    -0.336 OA
ATOM      7  C   UNL     1       6.059  -0.213  -1.284  0.00  0.00    +0.180 C 
ATOM      8  C   UNL     1       7.588  -0.266  -1.208  0.00  0.00    +0.214 C 
ATOM      9  C   UNL     1       8.049   0.427   0.077  0.00  0.00    +0.339 C 
ATOM     10  O   UNL     1       7.449  -0.199   1.188  0.00  0.00    -0.331 OA
ENDROOT
BRANCH   1  13
ATOM     11  C   UNL     1      -0.016   1.341   0.009  0.00  0.00    +0.041 A 
ATOM     12  C   UNL     1       1.331   1.769  -0.001  0.00  0.00    +0.050 A 
ATOM     13  C   UNL     1       2.092   0.660  -0.014  0.00  0.00    +0.161 A 
ATOM     14  O   UNL     1       1.282  -0.411  -0.012  0.00  0.00    -0.463 OA
ATOM     15  C   UNL     1       0.002  -0.004   0.002  0.00  0.00    +0.195 A 
ENDBRANCH   1  13
BRANCH   8  16
ATOM     16  O   UNL     1       8.019  -1.628  -1.200  0.00  0.00    -0.383 OA
ATOM     17  H   UNL     1       8.979  -1.736  -1.153  0.00  0.00    +0.210 HD
ENDBRANCH   8  16
BRANCH   7  18
ATOM     18  O   UNL     1       5.613  -0.913  -2.447  0.00  0.00    -0.386 OA
ATOM     19  H   UNL     1       5.949  -0.549  -3.278  0.00  0.00    +0.210 HD
ENDBRANCH   7  18
BRANCH   9  20
ATOM     20  O   UNL     1       9.472   0.342   0.181  0.00  0.00    -0.460 OA
BRANCH  20  21
ATOM     21  C   UNL     1      10.056   1.001   1.216  0.00  0.00    +0.138 A 
ATOM     22  C   UNL     1       9.274   1.710   2.117  0.00  0.00    +0.048 A 
ATOM     23  C   UNL     1       9.870   2.379   3.169  0.00  0.00    +0.019 A 
ATOM     24  C   UNL     1      11.244   2.342   3.325  0.00  0.00    +0.019 A 
ATOM     25  C   UNL     1      12.025   1.636   2.429  0.00  0.00    +0.034 A 
ATOM     26  C   UNL     1      11.433   0.961   1.377  0.00  0.00    +0.061 A 
ATOM     27 BR   UNL     1      12.501  -0.011   0.156  0.00  0.00    -0.046 Br
ATOM     28 BR   UNL     1      12.055   3.258   4.767  0.00  0.00    -0.050 Br
ENDBRANCH  20  21
ENDBRANCH   9  20
TORSDOF 5
