REMARK  Name = ZINC45282220
REMARK  10 active torsions:
REMARK  status: ('A' for Active; 'I' for Inactive)
REMARK    1  A    between atoms: C_1  and  C_2
REMARK    2  A    between atoms: C_5  and  N_9
REMARK    3  A    between atoms: C_6  and  C_8
REMARK    4  A    between atoms: C_12  and  C_15
REMARK    5  A    between atoms: C_15  and  O_16
REMARK    6  A    between atoms: O_16  and  C_17
REMARK    7  A    between atoms: C_17  and  C_19
REMARK    8  A    between atoms: C_28  and  N_31
REMARK    9  A    between atoms: C_32  and  C_34
REMARK   10  A    between atoms: C_35  and  C_37
REMARK                            x       y       z     vdW  Elec       q    Type
REMARK                         _______ _______ _______ _____ _____    ______ ____
ROOT
ATOM      1  C   UNL     1       2.958  -8.128  -0.067  0.00  0.00    +0.288 C 
ENDROOT
BRANCH   1   5
ATOM      2  N   UNL     1       0.059  -4.171  -0.021  0.00  0.00    -0.219 N 
ATOM      3  C   UNL     1       1.274  -4.850  -0.031  0.00  0.00    +0.172 A 
ATOM      4  N   UNL     1       1.484  -6.149  -0.044  0.00  0.00    -0.226 NA
ATOM      5  C   UNL     1       2.708  -6.642  -0.052  0.00  0.00    +0.088 A 
ATOM      6  C   UNL     1       3.731  -5.752  -0.046  0.00  0.00    +0.075 A 
ATOM      7  S   UNL     1       2.830  -4.210  -0.036  0.00  0.00    -0.060 S 
ATOM      8  C   UNL     1      -1.098  -4.861  -0.019  0.00  0.00    +0.223 C 
ATOM      9  O   UNL     1      -1.082  -6.074  -0.025  0.00  0.00    -0.275 OA
ATOM     10  C   UNL     1      -2.414  -4.125  -0.008  0.00  0.00    +0.110 C 
BRANCH   2  15
ATOM     11  C   UNL     1      -0.018   1.503   0.010  0.00  0.00    +0.044 C 
ATOM     12  C   UNL     1       0.002  -0.004   0.002  0.00  0.00    -0.050 A 
ATOM     13  C   UNL     1       0.006  -0.688  -1.200  0.00  0.00    +0.005 A 
ATOM     14  C   UNL     1       0.025  -2.068  -1.211  0.00  0.00    +0.024 A 
ATOM     15  C   UNL     1       0.041  -2.771  -0.013  0.00  0.00    +0.046 A 
ATOM     16  C   UNL     1       0.037  -2.082   1.192  0.00  0.00    -0.028 A 
ATOM     17  C   UNL     1       0.023  -0.700   1.196  0.00  0.00    +0.008 A 
ATOM     18  C   UNL     1       0.054  -2.840   2.494  0.00  0.00    +0.046 C 
ENDBRANCH   2  15
ENDBRANCH   1   5
BRANCH   1  19
ATOM     19  O   UNL     1       4.366  -8.374  -0.073  0.00  0.00    -0.458 OA
BRANCH  19  20
ATOM     20  C   UNL     1       4.760  -9.657  -0.086  0.00  0.00    +0.314 C 
ATOM     21  O   UNL     1       3.937 -10.542  -0.093  0.00  0.00    -0.250 OA
BRANCH  20  22
ATOM     22  C   UNL     1       6.229  -9.994  -0.093  0.00  0.00    +0.070 C 
ATOM     23  C   UNL     1       6.885  -9.393  -1.338  0.00  0.00    +0.021 C 
ATOM     24  C   UNL     1       8.376  -9.735  -1.345  0.00  0.00    -0.008 C 
ATOM     25  C   UNL     1       9.037  -9.158  -0.091  0.00  0.00    +0.007 C 
ATOM     26  C   UNL     1       8.382  -9.759   1.154  0.00  0.00    -0.008 C 
ATOM     27  C   UNL     1       6.890  -9.417   1.161  0.00  0.00    +0.021 C 
ATOM     28  C   UNL     1       8.556 -11.279   1.139  0.00  0.00    +0.029 C 
ATOM     29  C   UNL     1       7.895 -11.856  -0.115  0.00  0.00    +0.036 C 
ATOM     30  C   UNL     1       8.550 -11.255  -1.360  0.00  0.00    +0.029 C 
ATOM     31  C   UNL     1       6.404 -11.514  -0.108  0.00  0.00    +0.043 C 
BRANCH  29  32
ATOM     32  N   UNL     1       8.062 -13.311  -0.129  0.00  0.00    -0.310 N 
ATOM     33  C   UNL     1       9.298 -13.848  -0.137  0.00  0.00    +0.210 C 
ATOM     34  O   UNL     1      10.273 -13.125  -0.133  0.00  0.00    -0.276 OA
ATOM     35  C   UNL     1       9.470 -15.345  -0.152  0.00  0.00    +0.109 C 
ATOM     36  H   UNL     1       7.283 -13.889  -0.133  0.00  0.00    +0.149 HD
ENDBRANCH  29  32
ENDBRANCH  20  22
ENDBRANCH  19  20
ENDBRANCH   1  19
TORSDOF 6
