REMARK  Name = ZINC67393226
REMARK  8 active torsions:
REMARK  status: ('A' for Active; 'I' for Inactive)
REMARK    1  A    between atoms: C_1  and  C_2
REMARK    2  A    between atoms: C_2  and  C_3
REMARK    3  A    between atoms: C_3  and  N_4
REMARK    4  A    between atoms: C_7  and  C_10
REMARK    5  A    between atoms: C_10  and  N_11
REMARK    6  A    between atoms: C_12  and  C_14
REMARK    7  A    between atoms: C_20  and  N_27
REMARK    8  A    between atoms: C_24  and  C_26
REMARK                            x       y       z     vdW  Elec       q    Type
REMARK                         _______ _______ _______ _____ _____    ______ ____
ROOT
ATOM      1  C   UNL     1       4.982  -7.381  -2.978  0.00  0.00    +0.306 C 
ATOM      2  O   UNL     1       4.293  -8.000  -2.194  0.00  0.00    -0.265 OA
ATOM      3  N   UNL     1       6.071  -7.960  -3.522  0.00  0.00    -0.260 N 
ATOM      4  C   UNL     1       6.436  -9.297  -3.349  0.00  0.00    +0.040 A 
ATOM      5  C   UNL     1       5.802 -10.300  -2.613  0.00  0.00    +0.026 A 
ATOM      6  C   UNL     1       6.332 -11.572  -2.570  0.00  0.00    +0.034 A 
ATOM      7  C   UNL     1       7.497 -11.864  -3.255  0.00  0.00    +0.127 A 
ATOM      8  C   UNL     1       8.131 -10.876  -3.986  0.00  0.00    +0.038 A 
ATOM      9  C   UNL     1       7.604  -9.600  -4.032  0.00  0.00    -0.022 A 
ATOM     10  C   UNL     1       8.084  -8.353  -4.741  0.00  0.00    +0.059 C 
ATOM     11  C   UNL     1       7.039  -7.282  -4.388  0.00  0.00    +0.083 C 
ATOM     12  C   UNL     1       7.703  -6.126  -3.637  0.00  0.00    +0.029 C 
ENDROOT
BRANCH   1  14
ATOM     13  N   UNL     1       3.608  -5.356  -2.708  0.00  0.00    -0.307 N 
ATOM     14  C   UNL     1       4.625  -5.976  -3.339  0.00  0.00    +0.300 C 
ATOM     15  O   UNL     1       5.250  -5.393  -4.200  0.00  0.00    -0.265 OA
ATOM     16  H   UNL     1       3.108  -5.822  -2.020  0.00  0.00    +0.149 HD
BRANCH  13  17
ATOM     17  C   UNL     1       3.257  -3.979  -3.062  0.00  0.00    +0.106 C 
BRANCH  17  21
ATOM     18  N   UNL     1       1.282  -1.438  -1.313  0.00  0.00    +0.380 N 
ATOM     19  C   UNL     1       2.295  -1.935  -0.347  0.00  0.00    -0.079 C 
ATOM     20  C   UNL     1       2.498  -3.418  -0.724  0.00  0.00    -0.016 C 
ATOM     21  C   UNL     1       2.078  -3.516  -2.205  0.00  0.00    -0.012 C 
ATOM     22  C   UNL     1       1.656  -2.084  -2.598  0.00  0.00    -0.074 C 
ATOM     23  H   UNL     1       0.355  -1.722  -1.032  0.00  0.00    -0.082 HD
BRANCH  18  24
ATOM     24  C   UNL     1       1.358   0.024  -1.432  0.00  0.00    -0.079 C 
BRANCH  24  26
ATOM     25  C   UNL     1       0.929   2.190  -0.264  0.00  0.00    +0.002 C 
ATOM     26  C   UNL     1       0.850   0.667  -0.140  0.00  0.00    -0.022 C 
ENDBRANCH  24  26
ENDBRANCH  18  24
ENDBRANCH  17  21
ENDBRANCH  13  17
ENDBRANCH   1  14
BRANCH   7  27
ATOM     27  N   UNL     1       8.065 -13.230  -3.206  0.00  0.00    +0.056 N 
ATOM     28  O   UNL     1       7.509 -14.092  -2.566  0.00  0.00    -0.126 OA
ATOM     29  O   UNL     1       9.083 -13.484  -3.806  0.00  0.00    -0.126 OA
ENDBRANCH   7  27
TORSDOF 6
