REMARK  Name = ZINC39495560
REMARK  10 active torsions:
REMARK  status: ('A' for Active; 'I' for Inactive)
REMARK    1  A    between atoms: C_1  and  O_2
REMARK    2  A    between atoms: O_2  and  C_3
REMARK    3  A    between atoms: C_4  and  C_24
REMARK    4  A    between atoms: C_7  and  C_16
REMARK    5  A    between atoms: C_8  and  C_9
REMARK    6  A    between atoms: C_14  and  O_15
REMARK    7  A    between atoms: C_16  and  C_18
REMARK    8  A    between atoms: C_16  and  N_21
REMARK    9  A    between atoms: C_18  and  C_19
REMARK   10  A    between atoms: C_29  and  O_30
REMARK                            x       y       z     vdW  Elec       q    Type
REMARK                         _______ _______ _______ _____ _____    ______ ____
ROOT
ATOM      1  C   UNL     1      -1.262  -0.523   0.114  0.00  0.00    +0.136 A 
ATOM      2  C   UNL     1      -1.748  -0.872   1.376  0.00  0.00    +0.028 A 
ATOM      3  C   UNL     1      -2.907  -1.637   1.485  0.00  0.00    +0.012 A 
ATOM      4  C   UNL     1      -3.576  -2.050   0.349  0.00  0.00    +0.007 A 
ATOM      5  C   UNL     1      -3.103  -1.709  -0.902  0.00  0.00    -0.015 A 
ATOM      6  C   UNL     1      -1.947  -0.940  -1.029  0.00  0.00    +0.033 A 
ENDROOT
BRANCH   6   7
ATOM      7  C   UNL     1      -1.444  -0.570  -2.374  0.00  0.00    +0.027 A 
ATOM      8  C   UNL     1      -0.550  -1.404  -3.041  0.00  0.00    +0.012 A 
ATOM      9  C   UNL     1      -0.085  -1.055  -4.292  0.00  0.00    +0.001 A 
ATOM     10  C   UNL     1      -0.503   0.121  -4.888  0.00  0.00    +0.004 A 
ATOM     11  C   UNL     1      -1.390   0.957  -4.236  0.00  0.00    +0.046 A 
ATOM     12  C   UNL     1      -1.870   0.616  -2.981  0.00  0.00    +0.125 A 
BRANCH  12  13
ATOM     13  O   UNL     1      -2.746   1.433  -2.341  0.00  0.00    -0.506 OA
ATOM     14  H   UNL     1      -2.325   2.102  -1.784  0.00  0.00    +0.292 HD
ENDBRANCH  12  13
ENDBRANCH   6   7
BRANCH   2  15
ATOM     15  C   UNL     1      -1.031  -0.430   2.597  0.00  0.00    +0.027 A 
ATOM     16  C   UNL     1      -1.628   0.477   3.470  0.00  0.00    +0.012 A 
ATOM     17  C   UNL     1      -0.957   0.885   4.604  0.00  0.00    +0.001 A 
ATOM     18  C   UNL     1       0.308   0.397   4.879  0.00  0.00    +0.004 A 
ATOM     19  C   UNL     1       0.910  -0.503   4.020  0.00  0.00    +0.046 A 
ATOM     20  C   UNL     1       0.245  -0.926   2.880  0.00  0.00    +0.125 A 
BRANCH  20  21
ATOM     21  O   UNL     1       0.834  -1.815   2.038  0.00  0.00    -0.506 OA
ATOM     22  H   UNL     1       1.364  -1.405   1.341  0.00  0.00    +0.292 HD
ENDBRANCH  20  21
ENDBRANCH   2  15
BRANCH   1  24
ATOM     23  C   UNL     1      -0.277   1.640   0.106  0.00  0.00    +0.277 C 
ATOM     24  O   UNL     1      -0.132   0.222  -0.001  0.00  0.00    -0.494 OA
ENDBRANCH   1  24
BRANCH   5  25
ATOM     25  C   UNL     1      -3.840  -2.166  -2.135  0.00  0.00    +0.110 C 
BRANCH  25  26
ATOM     26  N   UNL     1      -5.248  -2.401  -1.802  0.00  0.00    -0.311 N 
ATOM     27  C   UNL     1      -6.189  -2.320  -2.763  0.00  0.00    +0.326 C 
ATOM     28  O   UNL     1      -5.872  -2.052  -3.903  0.00  0.00    -0.280 OA
ATOM     29  H   UNL     1      -5.502  -2.614  -0.891  0.00  0.00    +0.149 HD
ENDBRANCH  25  26
BRANCH  25  30
ATOM     30  C   UNL     1      -3.215  -3.463  -2.652  0.00  0.00    +0.097 C 
BRANCH  30  31
ATOM     31  C   UNL     1      -3.872  -3.854  -3.951  0.00  0.00    +0.225 C 
ATOM     32  O   UNL     1      -3.198  -4.041  -4.935  0.00  0.00    -0.301 OA
ENDBRANCH  30  31
ENDBRANCH  25  30
ENDBRANCH   5  25
TORSDOF 9
