REMARK  Name = ZINC03145435
REMARK  5 active torsions:
REMARK  status: ('A' for Active; 'I' for Inactive)
REMARK    1  A    between atoms: C_3  and  O_22
REMARK    2  A    between atoms: C_6  and  C_7
REMARK    3  A    between atoms: C_12  and  O_21
REMARK    4  A    between atoms: C_16  and  N_20
REMARK    5  A    between atoms: C_17  and  C_18
REMARK                            x       y       z     vdW  Elec       q    Type
REMARK                         _______ _______ _______ _____ _____    ______ ____
ROOT
ATOM      1  C   UNL     1      -3.700   1.604   0.028  0.00  0.00    +0.098 C 
ATOM      2  C   UNL     1      -3.550   3.042   0.448  0.00  0.00    +0.008 A 
ATOM      3  C   UNL     1      -4.666   3.751   0.859  0.00  0.00    +0.012 A 
ATOM      4  C   UNL     1      -4.547   5.071   1.247  0.00  0.00    +0.046 A 
ATOM      5  C   UNL     1      -3.306   5.691   1.226  0.00  0.00    +0.120 A 
ATOM      6  C   UNL     1      -2.188   4.985   0.814  0.00  0.00    +0.092 A 
ATOM      7  C   UNL     1      -2.309   3.657   0.423  0.00  0.00    +0.138 A 
ATOM      8  O   UNL     1      -1.204   2.979   0.029  0.00  0.00    -0.441 OA
ATOM      9  C   UNL     1      -1.209   1.636   0.017  0.00  0.00    +0.199 C 
ATOM     10  C   UNL     1      -2.360   0.923   0.018  0.00  0.00    +0.098 C 
ENDROOT
BRANCH   1  16
ATOM     11  C   UNL     1      -3.639   2.131  -2.417  0.00  0.00    +0.008 A 
ATOM     12  C   UNL     1      -4.184   2.074  -3.686  0.00  0.00    +0.046 A 
ATOM     13  C   UNL     1      -5.401   1.441  -3.889  0.00  0.00    +0.117 A 
ATOM     14  C   UNL     1      -6.065   0.860  -2.818  0.00  0.00    +0.046 A 
ATOM     15  C   UNL     1      -5.513   0.913  -1.553  0.00  0.00    +0.008 A 
ATOM     16  C   UNL     1      -4.300   1.546  -1.353  0.00  0.00    -0.034 A 
BRANCH  13  17
ATOM     17  O   UNL     1      -5.942   1.389  -5.134  0.00  0.00    -0.507 OA
ATOM     18  H   UNL     1      -6.520   2.136  -5.343  0.00  0.00    +0.292 HD
ENDBRANCH  13  17
ENDBRANCH   1  16
BRANCH   9  19
ATOM     19  N   UNL     1      -0.011   0.966   0.007  0.00  0.00    -0.328 N 
ATOM     20  H   UNL     1       0.002  -0.004   0.002  0.00  0.00    +0.145 HD
ATOM     21  H   UNL     1       0.822   1.462   0.002  0.00  0.00    +0.145 HD
ENDBRANCH   9  19
BRANCH  10  22
ATOM     22  C   UNL     1      -2.300  -0.507   0.011  0.00  0.00    +0.101 C 
ATOM     23  N   UNL     1      -2.252  -1.642   0.004  0.00  0.00    -0.191 NA
ENDBRANCH  10  22
BRANCH   5  24
ATOM     24  O   UNL     1      -3.187   6.990   1.608  0.00  0.00    -0.507 OA
ATOM     25  H   UNL     1      -3.009   7.107   2.551  0.00  0.00    +0.292 HD
ENDBRANCH   5  24
TORSDOF 5
