REMARK  Name = ZINC49382161
REMARK  4 active torsions:
REMARK  status: ('A' for Active; 'I' for Inactive)
REMARK    1  A    between atoms: C_7  and  N_12
REMARK    2  A    between atoms: C_13  and  C_15
REMARK    3  A    between atoms: C_15  and  N_16
REMARK    4  A    between atoms: N_19  and  C_22
REMARK                            x       y       z     vdW  Elec       q    Type
REMARK                         _______ _______ _______ _____ _____    ______ ____
ROOT
ATOM      1  N   UNL     1       1.058  -2.799   1.222  0.00  0.00    -0.299 N 
ATOM      2  C   UNL     1       0.808  -4.123   1.197  0.00  0.00    +0.231 C 
ATOM      3  O   UNL     1       1.014  -4.760   0.185  0.00  0.00    -0.274 OA
ATOM      4  H   UNL     1       0.893  -2.289   2.031  0.00  0.00    +0.150 HD
ENDROOT
BRANCH   1  11
ATOM      5  C   UNL     1      -0.005   1.392   0.069  0.00  0.00    +0.000 A 
ATOM      6  C   UNL     1       1.185   2.097   0.078  0.00  0.00    +0.002 A 
ATOM      7  C   UNL     1       2.391   1.429   0.071  0.00  0.00    +0.023 A 
ATOM      8  C   UNL     1       2.420   0.036   0.054  0.00  0.00    +0.039 A 
ATOM      9  C   UNL     1       1.218  -0.661   0.045  0.00  0.00    +0.003 A 
ATOM     10  C   UNL     1       0.015   0.009   0.052  0.00  0.00    +0.008 A 
ATOM     11  C   UNL     1       1.578  -2.128   0.028  0.00  0.00    +0.192 C 
ATOM     12  C   UNL     1       3.092  -2.136   0.028  0.00  0.00    +0.242 C 
ATOM     13  O   UNL     1       3.807  -3.116   0.017  0.00  0.00    -0.273 OA
ATOM     14  N   UNL     1       3.494  -0.854   0.043  0.00  0.00    -0.283 N 
ATOM     15  H   UNL     1       4.424  -0.580   0.047  0.00  0.00    +0.155 HD
ENDBRANCH   1  11
BRANCH   2  16
ATOM     16  C   UNL     1       0.273  -4.812   2.425  0.00  0.00    +0.205 C 
BRANCH  16  17
ATOM     17  N   UNL     1       0.087  -6.238   2.144  0.00  0.00    -0.275 N 
ATOM     18  C   UNL     1      -1.139  -6.848   1.609  0.00  0.00    +0.129 C 
ATOM     19  C   UNL     1      -0.793  -8.346   1.508  0.00  0.00    +0.134 C 
ATOM     20  N   UNL     1       0.592  -8.421   1.997  0.00  0.00    -0.254 N 
ATOM     21  C   UNL     1       1.010  -7.192   2.327  0.00  0.00    +0.310 C 
ATOM     22  O   UNL     1       2.124  -6.963   2.757  0.00  0.00    -0.252 OA
BRANCH  20  23
ATOM     23  C   UNL     1       1.355  -9.590   2.096  0.00  0.00    +0.039 A 
ATOM     24  C   UNL     1       2.691  -9.520   2.467  0.00  0.00    +0.023 A 
ATOM     25  C   UNL     1       3.442 -10.675   2.564  0.00  0.00    +0.003 A 
ATOM     26  C   UNL     1       2.864 -11.902   2.292  0.00  0.00    +0.020 A 
ATOM     27  C   UNL     1       1.533 -11.976   1.922  0.00  0.00    +0.043 A 
ATOM     28  C   UNL     1       0.775 -10.823   1.829  0.00  0.00    +0.043 A 
ATOM     29 CL   UNL     1       0.812 -13.518   1.581  0.00  0.00    -0.083 Cl
ENDBRANCH  20  23
ENDBRANCH  16  17
ENDBRANCH   2  16
TORSDOF 4
