REMARK  Name = ZINC59104985
REMARK  7 active torsions:
REMARK  status: ('A' for Active; 'I' for Inactive)
REMARK    1  A    between atoms: C_1  and  C_2
REMARK    2  A    between atoms: C_5  and  C_31
REMARK    3  A    between atoms: N_6  and  C_7
REMARK    4  A    between atoms: C_11  and  C_13
REMARK    5  A    between atoms: N_15  and  N_16
REMARK    6  A    between atoms: C_17  and  C_18
REMARK    7  A    between atoms: C_21  and  N_24
REMARK                            x       y       z     vdW  Elec       q    Type
REMARK                         _______ _______ _______ _____ _____    ______ ____
ROOT
ATOM      1  C   UNL     1      -2.188  -0.497   5.469  0.00  0.00    +0.265 C 
ATOM      2  O   UNL     1      -2.183  -0.104   6.620  0.00  0.00    -0.268 OA
ATOM      3  N   UNL     1      -3.235  -1.209   5.005  0.00  0.00    -0.203 N 
ATOM      4  H   UNL     1      -3.239  -1.523   4.087  0.00  0.00    +0.178 HD
ENDROOT
BRANCH   1   9
ATOM      5  C   UNL     1       0.023  -0.361   2.432  0.00  0.00    +0.047 A 
ATOM      6  C   UNL     1       1.099   0.373   2.917  0.00  0.00    +0.027 A 
ATOM      7  C   UNL     1       1.105   0.820   4.224  0.00  0.00    +0.023 A 
ATOM      8  C   UNL     1       0.039   0.541   5.059  0.00  0.00    +0.053 A 
ATOM      9  C   UNL     1      -1.047  -0.196   4.580  0.00  0.00    +0.059 A 
ATOM     10  C   UNL     1      -1.052  -0.643   3.258  0.00  0.00    +0.040 A 
ATOM     11 CL   UNL     1       0.051   1.105   6.701  0.00  0.00    -0.083 Cl
BRANCH   5  17
ATOM     12  C   UNL     1      -0.034   1.489  -0.015  0.00  0.00    +0.064 C 
ATOM     13  C   UNL     1      -0.001  -0.018  -0.006  0.00  0.00    +0.021 A 
ATOM     14  C   UNL     1       0.015  -0.814  -1.094  0.00  0.00    +0.023 A 
ATOM     15  C   UNL     1       0.045  -2.149  -0.641  0.00  0.00    +0.023 A 
ATOM     16  C   UNL     1       0.046  -2.118   0.707  0.00  0.00    +0.021 A 
ATOM     17  N   UNL     1       0.024  -0.812   1.104  0.00  0.00    -0.318 N 
ATOM     18  C   UNL     1       0.074  -3.319   1.617  0.00  0.00    +0.064 C 
ENDBRANCH   5  17
ENDBRANCH   1   9
BRANCH   3  19
ATOM     19  N   UNL     1      -4.317  -1.494   5.848  0.00  0.00    -0.187 NA
ATOM     20  C   UNL     1      -5.325  -2.179   5.400  0.00  0.00    +0.138 C 
BRANCH  20  21
ATOM     21  C   UNL     1      -6.463  -2.480   6.287  0.00  0.00    -0.005 A 
ATOM     22  C   UNL     1      -6.462  -2.023   7.608  0.00  0.00    +0.011 A 
ATOM     23  C   UNL     1      -7.527  -2.306   8.434  0.00  0.00    +0.024 A 
ATOM     24  C   UNL     1      -8.604  -3.044   7.954  0.00  0.00    +0.030 A 
ATOM     25  C   UNL     1      -8.609  -3.501   6.640  0.00  0.00    +0.024 A 
ATOM     26  C   UNL     1      -7.549  -3.217   5.807  0.00  0.00    +0.011 A 
BRANCH  24  27
ATOM     27  N   UNL     1      -9.681  -3.328   8.793  0.00  0.00    -0.330 N 
ATOM     28  C   UNL     1     -10.879  -4.001   8.272  0.00  0.00    +0.105 C 
ATOM     29  C   UNL     1     -11.166  -5.234   9.134  0.00  0.00    +0.019 C 
ATOM     30  C   UNL     1     -11.271  -4.813  10.602  0.00  0.00    +0.003 C 
ATOM     31  C   UNL     1      -9.941  -4.205  11.056  0.00  0.00    +0.019 C 
ATOM     32  C   UNL     1      -9.638  -2.966  10.216  0.00  0.00    +0.105 C 
ENDBRANCH  24  27
ENDBRANCH  20  21
ENDBRANCH   3  19
TORSDOF 5
