REMARK  Name = ZINC39468842
REMARK  2 active torsions:
REMARK  status: ('A' for Active; 'I' for Inactive)
REMARK    1  A    between atoms: C_3  and  C_6
REMARK    2  A    between atoms: C_10  and  C_12
REMARK                            x       y       z     vdW  Elec       q    Type
REMARK                         _______ _______ _______ _____ _____    ______ ____
ROOT
ATOM      1  C   UNL     1       4.742  -0.001  -1.267  0.00  0.00    +0.178 C 
ATOM      2  N   UNL     1       3.447  -0.717  -1.304  0.00  0.00    -0.298 N 
ATOM      3  C   UNL     1       3.325  -1.872  -0.550  0.00  0.00    +0.177 C 
ATOM      4  N   UNL     1       4.369  -2.789  -0.576  0.00  0.00    -0.284 N 
ATOM      5  C   UNL     1       5.726  -2.235  -0.422  0.00  0.00    +0.254 C 
ATOM      6  N   UNL     1       5.780  -1.038  -1.290  0.00  0.00    -0.275 N 
ATOM      7  C   UNL     1       6.916  -1.143  -2.090  0.00  0.00    +0.059 A 
ATOM      8  C   UNL     1       7.508  -0.235  -2.962  0.00  0.00    +0.074 A 
ATOM      9  C   UNL     1       8.642  -0.591  -3.670  0.00  0.00    +0.164 A 
ATOM     10  C   UNL     1       9.196  -1.853  -3.509  0.00  0.00    +0.164 A 
ATOM     11  C   UNL     1       8.618  -2.759  -2.638  0.00  0.00    +0.074 A 
ATOM     12  C   UNL     1       7.480  -2.407  -1.922  0.00  0.00    +0.055 A 
ATOM     13  N   UNL     1       6.740  -3.148  -0.950  0.00  0.00    -0.309 N 
ATOM     14  O   UNL     1      10.315  -2.192  -4.215  0.00  0.00    -0.488 OA
ATOM     15  C   UNL     1      10.146  -2.332  -5.627  0.00  0.00    +0.232 C 
ATOM     16  C   UNL     1      10.255  -0.982  -6.319  0.00  0.00    +0.082 C 
ATOM     17  C   UNL     1       9.136  -0.034  -5.919  0.00  0.00    +0.232 C 
ATOM     18  O   UNL     1       9.222   0.296  -4.531  0.00  0.00    -0.488 OA
ATOM     19  N   UNL     1       2.259  -2.093   0.166  0.00  0.00    -0.273 NA
ATOM     20  H   UNL     1       2.708  -0.387  -1.839  0.00  0.00    +0.150 HD
ATOM     21  H   UNL     1       6.874  -4.072  -0.688  0.00  0.00    +0.149 HD
ATOM     22  H   UNL     1       2.187  -2.906   0.690  0.00  0.00    +0.189 HD
ATOM     23  H   UNL     1       4.213  -3.739  -0.690  0.00  0.00    +0.152 HD
ENDROOT
BRANCH   1  28
ATOM     24  C   UNL     1       6.209   1.491   0.109  0.00  0.00    +0.089 C 
ATOM     25  N   UNL     1       6.766   1.014   1.194  0.00  0.00    -0.153 NA
ATOM     26  N   UNL     1       5.944   0.099   1.844  0.00  0.00    -0.161 NA
ATOM     27  C   UNL     1       4.817  -0.076   1.233  0.00  0.00    +0.121 C 
ATOM     28  C   UNL     1       4.851   0.825   0.016  0.00  0.00    +0.122 C 
BRANCH  24  31
ATOM     29  C   UNL     1       8.281   3.892  -1.814  0.00  0.00    +0.008 A 
ATOM     30  C   UNL     1       8.037   2.988  -0.808  0.00  0.00    +0.017 A 
ATOM     31  C   UNL     1       6.761   2.438  -0.789  0.00  0.00    +0.036 A 
ATOM     32  S   UNL     1       5.998   3.235  -2.190  0.00  0.00    -0.095 S 
ATOM     33  C   UNL     1       7.292   4.180  -2.696  0.00  0.00    +0.046 A 
ENDBRANCH  24  31
ENDBRANCH   1  28
TORSDOF 2
