REMARK  Name = ZINC08093275
REMARK  7 active torsions:
REMARK  status: ('A' for Active; 'I' for Inactive)
REMARK    1  A    between atoms: C_1  and  C_2
REMARK    2  A    between atoms: C_5  and  C_14
REMARK    3  A    between atoms: C_12  and  C_13
REMARK    4  A    between atoms: C_14  and  N_50
REMARK    5  A    between atoms: C_15  and  N_50
REMARK    6  A    between atoms: C_16  and  C_17
REMARK    7  A    between atoms: C_16  and  N_50
REMARK                            x       y       z     vdW  Elec       q    Type
REMARK                         _______ _______ _______ _____ _____    ______ ____
ROOT
ATOM      1  C   UNL     1       1.498   2.419   4.774  0.00  0.00    -0.042 C 
ENDROOT
BRANCH   1   6
ATOM      2  C   UNL     1       0.109   1.227  -0.145  0.00  0.00    +0.044 C 
ATOM      3  C   UNL     1      -0.635   1.759   1.053  0.00  0.00    -0.047 A 
ATOM      4  C   UNL     1       0.036   1.971   2.237  0.00  0.00    +0.015 A 
ATOM      5  C   UNL     1      -0.658   2.464   3.345  0.00  0.00    +0.019 A 
ATOM      6  C   UNL     1       0.025   2.701   4.621  0.00  0.00    -0.047 A 
ATOM      7  C   UNL     1      -0.704   3.180   5.660  0.00  0.00    +0.094 A 
ATOM      8  C   UNL     1      -2.082   3.436   5.490  0.00  0.00    +0.337 A 
ATOM      9  O   UNL     1      -2.726   3.866   6.430  0.00  0.00    -0.245 OA
ATOM     10  O   UNL     1      -2.701   3.217   4.319  0.00  0.00    -0.422 OA
ATOM     11  C   UNL     1      -2.033   2.741   3.247  0.00  0.00    +0.140 A 
ATOM     12  C   UNL     1      -2.689   2.520   2.043  0.00  0.00    +0.050 A 
ATOM     13  C   UNL     1      -1.990   2.038   0.956  0.00  0.00    -0.044 A 
ATOM     14  C   UNL     1      -2.708   1.806  -0.349  0.00  0.00    +0.044 C 
ENDBRANCH   1   6
BRANCH   1  16
ATOM     15  C   UNL     1       2.069   4.763   4.979  0.00  0.00    -0.096 C 
ATOM     16  N   UNL     1       2.262   3.535   4.178  0.00  0.00    +0.383 N 
ATOM     17  H   UNL     1       1.920   3.702   3.225  0.00  0.00    -0.082 HD
BRANCH  16  18
ATOM     18  C   UNL     1       3.698   3.191   4.120  0.00  0.00    -0.030 C 
BRANCH  18  19
ATOM     19  C   UNL     1       3.927   2.243   2.940  0.00  0.00    +0.194 C 
ATOM     20  C   UNL     1       5.395   1.798   2.912  0.00  0.00    +0.271 C 
ATOM     21  O   UNL     1       5.577   0.926   1.791  0.00  0.00    -0.485 OA
ATOM     22  C   UNL     1       5.042   1.332   0.607  0.00  0.00    +0.162 A 
ATOM     23  C   UNL     1       5.471   0.741  -0.572  0.00  0.00    +0.049 A 
ATOM     24  C   UNL     1       4.933   1.138  -1.782  0.00  0.00    +0.004 A 
ATOM     25  C   UNL     1       3.967   2.126  -1.820  0.00  0.00    +0.004 A 
ATOM     26  C   UNL     1       3.536   2.720  -0.649  0.00  0.00    +0.049 A 
ATOM     27  C   UNL     1       4.072   2.326   0.568  0.00  0.00    +0.162 A 
ATOM     28  O   UNL     1       3.640   2.923   1.713  0.00  0.00    -0.484 OA
ENDBRANCH  18  19
ENDBRANCH  16  18
ENDBRANCH   1  16
TORSDOF 4
