REMARK  Name = ZINC38667064
REMARK  11 active torsions:
REMARK  status: ('A' for Active; 'I' for Inactive)
REMARK    1  A    between atoms: C_1  and  C_2
REMARK    2  A    between atoms: C_4  and  N_36
REMARK    3  A    between atoms: C_7  and  N_8
REMARK    4  A    between atoms: C_9  and  C_11
REMARK    5  A    between atoms: N_13  and  C_14
REMARK    6  A    between atoms: C_14  and  C_15
REMARK    7  A    between atoms: C_15  and  C_17
REMARK    8  A    between atoms: C_15  and  N_26
REMARK    9  A    between atoms: C_20  and  N_23
REMARK   10  A    between atoms: N_23  and  C_24
REMARK   11  A    between atoms: N_23  and  C_25
REMARK                            x       y       z     vdW  Elec       q    Type
REMARK                         _______ _______ _______ _____ _____    ______ ____
ROOT
ATOM      1  C   UNL     1       0.304  -0.645   8.672  0.00  0.00    +0.104 C 
ENDROOT
BRANCH   1   2
ATOM      2  N   UNL     1       1.447  -1.550   8.495  0.00  0.00    -0.289 NA
ATOM      3  C   UNL     1       1.458  -2.127   7.141  0.00  0.00    +0.090 C 
ATOM      4  C   UNL     1       2.831  -2.751   6.890  0.00  0.00    +0.051 C 
ATOM      5  C   UNL     1       3.199  -3.661   8.033  0.00  0.00    -0.042 A 
ATOM      6  C   UNL     1       4.216  -4.585   7.843  0.00  0.00    +0.004 A 
ATOM      7  C   UNL     1       4.587  -5.435   8.865  0.00  0.00    +0.000 A 
ATOM      8  C   UNL     1       3.941  -5.365  10.085  0.00  0.00    +0.000 A 
ATOM      9  C   UNL     1       2.928  -4.447  10.276  0.00  0.00    +0.005 A 
ATOM     10  C   UNL     1       2.552  -3.594   9.248  0.00  0.00    -0.030 A 
ATOM     11  C   UNL     1       1.433  -2.617   9.500  0.00  0.00    +0.120 C 
ENDBRANCH   1   2
BRANCH   1  12
ATOM     12  C   UNL     1       0.382   0.002  10.031  0.00  0.00    -0.029 A 
ATOM     13  C   UNL     1       1.603   0.421  10.526  0.00  0.00    +0.007 A 
ATOM     14  C   UNL     1       1.678   1.014  11.771  0.00  0.00    +0.023 A 
ATOM     15  C   UNL     1       0.525   1.190  12.526  0.00  0.00    +0.029 A 
ATOM     16  C   UNL     1      -0.700   0.768  12.025  0.00  0.00    +0.023 A 
ATOM     17  C   UNL     1      -0.769   0.181  10.777  0.00  0.00    +0.007 A 
BRANCH  15  18
ATOM     18  N   UNL     1       0.598   1.790  13.785  0.00  0.00    -0.336 N 
ATOM     19  C   UNL     1       1.891   2.234  14.312  0.00  0.00    +0.129 C 
ATOM     20  C   UNL     1      -0.619   1.974  14.580  0.00  0.00    +0.129 C 
ENDBRANCH  15  18
ENDBRANCH   1  12
BRANCH   1  21
ATOM     21  C   UNL     1       0.337   0.436   7.590  0.00  0.00    +0.128 C 
BRANCH  21  24
ATOM     22  C   UNL     1      -1.059   2.286   6.838  0.00  0.00    +0.299 C 
ATOM     23  O   UNL     1      -0.308   2.431   5.895  0.00  0.00    -0.265 OA
ATOM     24  N   UNL     1      -0.825   1.316   7.744  0.00  0.00    -0.306 N 
ATOM     25  H   UNL     1      -1.425   1.200   8.497  0.00  0.00    +0.149 HD
BRANCH  22  27
ATOM     26  N   UNL     1      -2.477   4.154   6.089  0.00  0.00    -0.278 N 
ATOM     27  C   UNL     1      -2.243   3.184   6.995  0.00  0.00    +0.303 C 
ATOM     28  O   UNL     1      -2.993   3.039   7.937  0.00  0.00    -0.265 OA
ATOM     29  H   UNL     1      -1.920   4.224   5.298  0.00  0.00    +0.155 HD
BRANCH  26  36
ATOM     30  C   UNL     1      -2.123   6.834   5.201  0.00  0.00    +0.046 C 
ATOM     31  C   UNL     1      -3.392   6.377   5.872  0.00  0.00    -0.027 A 
ATOM     32  C   UNL     1      -4.430   7.268   6.067  0.00  0.00    +0.038 A 
ATOM     33  C   UNL     1      -5.596   6.849   6.682  0.00  0.00    +0.127 A 
ATOM     34  C   UNL     1      -5.726   5.539   7.105  0.00  0.00    +0.034 A 
ATOM     35  C   UNL     1      -4.693   4.644   6.914  0.00  0.00    +0.026 A 
ATOM     36  C   UNL     1      -3.523   5.059   6.290  0.00  0.00    +0.037 A 
BRANCH  33  37
ATOM     37  N   UNL     1      -6.706   7.807   6.889  0.00  0.00    +0.056 N 
ATOM     38  O   UNL     1      -6.593   8.952   6.521  0.00  0.00    -0.126 OA
ATOM     39  O   UNL     1      -7.725   7.443   7.428  0.00  0.00    -0.126 OA
ENDBRANCH  33  37
ENDBRANCH  26  36
ENDBRANCH  22  27
ENDBRANCH  21  24
ENDBRANCH   1  21
TORSDOF 8
