REMARK  Name = ZINC40267040
REMARK  9 active torsions:
REMARK  status: ('A' for Active; 'I' for Inactive)
REMARK    1  A    between atoms: C_1  and  O_2
REMARK    2  A    between atoms: O_2  and  C_3
REMARK    3  A    between atoms: C_3  and  C_5
REMARK    4  A    between atoms: C_5  and  C_6
REMARK    5  A    between atoms: C_6  and  C_7
REMARK    6  A    between atoms: C_7  and  C_8
REMARK    7  A    between atoms: C_8  and  C_9
REMARK    8  A    between atoms: C_9  and  N_10
REMARK    9  A    between atoms: C_22  and  C_24
REMARK                            x       y       z     vdW  Elec       q    Type
REMARK                         _______ _______ _______ _____ _____    ______ ____
ROOT
ATOM      1  N   UNL     1      -4.893  -9.143   0.089  0.00  0.00    -0.299 N 
ATOM      2  C   UNL     1      -5.741  -8.098   0.030  0.00  0.00    +0.303 C 
ATOM      3  O   UNL     1      -5.312  -6.962   0.101  0.00  0.00    -0.253 OA
ATOM      4  N   UNL     1      -7.065  -8.311  -0.108  0.00  0.00    -0.273 N 
ATOM      5  C   UNL     1      -7.993  -7.186  -0.295  0.00  0.00    +0.116 C 
ATOM      6  C   UNL     1      -8.943  -7.113   0.908  0.00  0.00    +0.074 C 
ATOM      7  C   UNL     1      -9.434  -8.501   1.223  0.00  0.00    +0.040 A 
ATOM      8  C   UNL     1      -8.851  -9.642   0.796  0.00  0.00    +0.062 A 
ATOM      9  N   UNL     1      -9.554 -10.671   1.271  0.00  0.00    -0.348 N 
ATOM     10  C   UNL     1     -10.556 -10.216   1.977  0.00  0.00    +0.171 A 
ATOM     11  N   UNL     1     -10.515  -8.863   1.969  0.00  0.00    -0.349 N 
ATOM     12  H   UNL     1     -11.137  -8.265   2.411  0.00  0.00    +0.166 HD
ATOM     13  C   UNL     1      -7.617  -9.677  -0.081  0.00  0.00    +0.156 C 
ATOM     14  H   UNL     1      -5.240 -10.049   0.106  0.00  0.00    +0.150 HD
ATOM     15  H   UNL     1      -9.354 -11.608   1.118  0.00  0.00    +0.167 HD
ENDROOT
BRANCH  13  16
ATOM     16  C   UNL     1      -7.987 -10.109  -1.477  0.00  0.00    -0.021 A 
ATOM     17  C   UNL     1      -8.977  -9.436  -2.168  0.00  0.00    +0.007 A 
ATOM     18  C   UNL     1      -9.317  -9.831  -3.448  0.00  0.00    +0.020 A 
ATOM     19  C   UNL     1      -8.665 -10.900  -4.038  0.00  0.00    +0.041 A 
ATOM     20  C   UNL     1      -7.674 -11.573  -3.345  0.00  0.00    +0.020 A 
ATOM     21  C   UNL     1      -7.331 -11.173  -2.067  0.00  0.00    +0.007 A 
ATOM     22 CL   UNL     1      -9.092 -11.397  -5.645  0.00  0.00    -0.084 Cl
ENDBRANCH  13  16
BRANCH   1  23
ATOM     23  C   UNL     1      -3.447  -8.912   0.130  0.00  0.00    +0.106 C 
BRANCH  23  24
ATOM     24  C   UNL     1      -2.718 -10.256   0.195  0.00  0.00    +0.019 C 
BRANCH  24  25
ATOM     25  C   UNL     1      -1.207 -10.014   0.237  0.00  0.00    +0.002 C 
BRANCH  25  26
ATOM     26  C   UNL     1      -0.478 -11.358   0.301  0.00  0.00    +0.011 C 
BRANCH  26  27
ATOM     27  C   UNL     1       1.032 -11.117   0.343  0.00  0.00    +0.120 C 
BRANCH  27  28
ATOM     28  C   UNL     1       1.751 -12.440   0.407  0.00  0.00    +0.307 C 
ATOM     29  O   UNL     1       1.120 -13.470   0.417  0.00  0.00    -0.251 OA
BRANCH  28  31
ATOM     30  C   UNL     1       3.707 -13.762   0.511  0.00  0.00    +0.280 C 
ATOM     31  O   UNL     1       3.092 -12.474   0.452  0.00  0.00    -0.468 OA
ENDBRANCH  28  31
ENDBRANCH  27  28
ENDBRANCH  26  27
ENDBRANCH  25  26
ENDBRANCH  24  25
ENDBRANCH  23  24
ENDBRANCH   1  23
TORSDOF 8
