REMARK  Name = ZINC08711541
REMARK  6 active torsions:
REMARK  status: ('A' for Active; 'I' for Inactive)
REMARK    1  A    between atoms: C_1  and  C_2
REMARK    2  A    between atoms: C_5  and  C_8
REMARK    3  A    between atoms: C_11  and  C_13
REMARK    4  A    between atoms: C_11  and  O_17
REMARK    5  A    between atoms: C_20  and  C_23
REMARK    6  A    between atoms: C_27  and  N_29
REMARK                            x       y       z     vdW  Elec       q    Type
REMARK                         _______ _______ _______ _____ _____    ______ ____
ROOT
ATOM      1  C   UNL     1      -2.914  -5.718  -0.004  0.00  0.00    +0.071 C 
ATOM      2  N   UNL     1      -2.051  -4.731  -0.006  0.00  0.00    -0.179 NA
ATOM      3  N   UNL     1      -0.818  -5.063  -0.019  0.00  0.00    -0.160 N 
ATOM      4  C   UNL     1      -0.674  -6.527  -0.033  0.00  0.00    +0.256 C 
ATOM      5  C   UNL     1      -2.138  -7.021  -0.017  0.00  0.00    +0.124 C 
ATOM      6  C   UNL     1       0.205  -4.197  -0.023  0.00  0.00    +0.184 A 
ATOM      7  N   UNL     1       0.163  -2.861  -0.011  0.00  0.00    -0.223 NA
ATOM      8  C   UNL     1       1.256  -2.158  -0.022  0.00  0.00    +0.080 A 
ATOM      9  C   UNL     1       2.529  -2.906  -0.038  0.00  0.00    +0.077 A 
ATOM     10  S   UNL     1       1.955  -4.546  -0.041  0.00  0.00    -0.058 S 
ENDROOT
BRANCH   1  15
ATOM     11  C   UNL     1      -8.632  -5.199   0.045  0.00  0.00    +0.044 C 
ATOM     12  C   UNL     1      -7.131  -5.335   0.033  0.00  0.00    -0.050 A 
ATOM     13  C   UNL     1      -6.336  -4.199   0.032  0.00  0.00    +0.004 A 
ATOM     14  C   UNL     1      -4.965  -4.312   0.020  0.00  0.00    +0.010 A 
ATOM     15  C   UNL     1      -4.370  -5.586   0.009  0.00  0.00    -0.002 A 
ATOM     16  C   UNL     1      -5.185  -6.732   0.005  0.00  0.00    +0.010 A 
ATOM     17  C   UNL     1      -6.554  -6.596   0.022  0.00  0.00    +0.004 A 
ENDBRANCH   1  15
BRANCH   8  18
ATOM     18  C   UNL     1       1.227  -0.684  -0.013  0.00  0.00    +0.003 A 
ATOM     19  C   UNL     1       0.002  -0.004   0.002  0.00  0.00    +0.010 A 
ATOM     20  C   UNL     1      -0.017   1.373   0.010  0.00  0.00    +0.003 A 
ATOM     21  C   UNL     1       1.172   2.086   0.002  0.00  0.00    +0.033 A 
ATOM     22  C   UNL     1       2.387   1.422  -0.013  0.00  0.00    +0.127 A 
ATOM     23  C   UNL     1       2.423   0.044  -0.021  0.00  0.00    +0.042 A 
BRANCH  22  24
ATOM     24  N   UNL     1       3.650   2.193  -0.022  0.00  0.00    +0.056 N 
ATOM     25  O   UNL     1       4.806   1.563  -0.037  0.00  0.00    -0.126 OA
ATOM     26  O   UNL     1       3.618   3.510  -0.014  0.00  0.00    -0.126 OA
ENDBRANCH  22  24
ENDBRANCH   8  18
BRANCH   4  27
ATOM     27  C   UNL     1       0.070  -7.010   1.213  0.00  0.00    +0.438 C 
ATOM     28  F   UNL     1      -0.627  -6.608   2.358  0.00  0.00    -0.166 F 
ATOM     29  F   UNL     1       0.163  -8.406   1.189  0.00  0.00    -0.166 F 
ATOM     30  F   UNL     1       1.356  -6.457   1.232  0.00  0.00    -0.166 F 
ENDBRANCH   4  27
BRANCH   4  31
ATOM     31  O   UNL     1      -0.006  -6.957  -1.221  0.00  0.00    -0.363 OA
ATOM     32  H   UNL     1       0.892  -6.612  -1.314  0.00  0.00    +0.212 HD
ENDBRANCH   4  31
TORSDOF 5
