REMARK  Name = ZINC40369839
REMARK  5 active torsions:
REMARK  status: ('A' for Active; 'I' for Inactive)
REMARK    1  A    between atoms: C_1  and  C_2
REMARK    2  A    between atoms: C_2  and  C_4
REMARK    3  A    between atoms: C_2  and  N_8
REMARK    4  A    between atoms: N_5  and  O_6
REMARK    5  A    between atoms: C_9  and  C_11
REMARK                            x       y       z     vdW  Elec       q    Type
REMARK                         _______ _______ _______ _____ _____    ______ ____
ROOT
ATOM      1  N   UNL     1       0.688  -0.476  -1.203  0.00  0.00    -0.302 N 
ATOM      2  C   UNL     1       2.031  -0.587  -1.215  0.00  0.00    +0.245 C 
ATOM      3  O   UNL     1       2.673  -0.295  -0.225  0.00  0.00    -0.270 OA
ATOM      4  H   UNL     1       0.175  -0.710  -1.993  0.00  0.00    +0.150 HD
ENDROOT
BRANCH   2   5
ATOM      5  C   UNL     1       2.723  -1.064  -2.431  0.00  0.00    +0.039 A 
ATOM      6  C   UNL     1       1.988  -1.395  -3.571  0.00  0.00    +0.033 A 
ATOM      7  C   UNL     1       2.640  -1.840  -4.704  0.00  0.00    +0.043 A 
ATOM      8  C   UNL     1       4.020  -1.958  -4.711  0.00  0.00    +0.040 A 
ATOM      9  C   UNL     1       4.754  -1.631  -3.583  0.00  0.00    +0.043 A 
ATOM     10  C   UNL     1       4.114  -1.179  -2.446  0.00  0.00    +0.033 A 
ATOM     11 CL   UNL     1       6.483  -1.783  -3.602  0.00  0.00    -0.083 Cl
ATOM     12 CL   UNL     1       1.729  -2.252  -6.122  0.00  0.00    -0.083 Cl
ENDBRANCH   2   5
BRANCH   1  14
ATOM     13  C   UNL     1      -0.019   1.526   0.010  0.00  0.00    +0.036 C 
ATOM     14  C   UNL     1       0.002  -0.004   0.002  0.00  0.00    +0.137 C 
BRANCH  14  15
ATOM     15  C   UNL     1      -1.412  -0.526   0.013  0.00  0.00    +0.152 C 
ATOM     16  N   UNL     1      -2.041  -0.664   1.133  0.00  0.00    -0.075 NA
ATOM     17  N   UNL     1      -2.033  -0.855  -1.171  0.00  0.00    -0.342 N 
ATOM     18  H   UNL     1      -1.561  -0.751  -2.012  0.00  0.00    +0.144 HD
ATOM     19  H   UNL     1      -2.943  -1.191  -1.165  0.00  0.00    +0.144 HD
BRANCH  16  20
ATOM     20  O   UNL     1      -3.369  -1.154   1.143  0.00  0.00    -0.408 OA
ATOM     21  H   UNL     1      -3.756  -1.222   2.026  0.00  0.00    +0.328 HD
ENDBRANCH  16  20
ENDBRANCH  14  15
ENDBRANCH   1  14
TORSDOF 4
