REMARK  Name = ZINC12917922
REMARK  10 active torsions:
REMARK  status: ('A' for Active; 'I' for Inactive)
REMARK    1  A    between atoms: C_1  and  C_2
REMARK    2  A    between atoms: C_2  and  C_3
REMARK    3  A    between atoms: C_3  and  C_4
REMARK    4  A    between atoms: C_4  and  C_5
REMARK    5  A    between atoms: C_5  and  N_6
REMARK    6  A    between atoms: C_7  and  C_9
REMARK    7  A    between atoms: C_9  and  N_51
REMARK    8  A    between atoms: C_12  and  N_15
REMARK    9  A    between atoms: N_15  and  S_16
REMARK   10  A    between atoms: S_16  and  C_19
REMARK                            x       y       z     vdW  Elec       q    Type
REMARK                         _______ _______ _______ _____ _____    ______ ____
ROOT
ATOM      1  C   UNL     1      -1.293   5.163  -3.112  0.00  0.00    -0.077 C 
ATOM      2  C   UNL     1      -0.940   3.695  -2.861  0.00  0.00    +0.002 C 
ATOM      3  C   UNL     1      -1.194   3.359  -1.389  0.00  0.00    +0.073 C 
ATOM      4  C   UNL     1      -2.658   3.652  -1.051  0.00  0.00    +0.002 C 
ATOM      5  C   UNL     1      -2.962   5.122  -1.355  0.00  0.00    -0.077 C 
ATOM      6  N   UNL     1      -2.721   5.374  -2.791  0.00  0.00    +0.385 N 
ATOM      7  H   UNL     1      -3.287   4.720  -3.344  0.00  0.00    -0.081 HD
ENDROOT
BRANCH   3   8
ATOM      8  N   UNL     1      -0.913   1.940  -1.155  0.00  0.00    -0.187 NA
ATOM      9  H   UNL     1      -1.110   1.287  -1.844  0.00  0.00    +0.148 HD
BRANCH   8  10
ATOM     10  S   UNL     1      -0.259   1.452   0.286  0.00  0.00    +0.065 S 
ATOM     11  O   UNL     1      -0.132   0.038   0.216  0.00  0.00    -0.153 OA
ATOM     12  O   UNL     1       0.850   2.304   0.538  0.00  0.00    -0.153 OA
BRANCH  10  13
ATOM     13  C   UNL     1      -1.450   1.789   1.540  0.00  0.00    +0.142 A 
ATOM     14  C   UNL     1      -2.442   0.995   2.011  0.00  0.00    +0.036 A 
ATOM     15  C   UNL     1      -3.267   1.474   3.011  0.00  0.00    +0.010 A 
ATOM     16  C   UNL     1      -3.059   2.725   3.491  0.00  0.00    +0.047 A 
ATOM     17  S   UNL     1      -1.658   3.264   2.525  0.00  0.00    -0.077 S 
ENDBRANCH  10  13
ENDBRANCH   8  10
ENDBRANCH   3   8
BRANCH   6  18
ATOM     18  C   UNL     1      -3.116   6.756  -3.134  0.00  0.00    +0.019 C 
BRANCH  18  20
ATOM     19  N   UNL     1      -3.300   8.122  -5.188  0.00  0.00    -0.317 N 
ATOM     20  C   UNL     1      -3.082   6.913  -4.632  0.00  0.00    +0.196 C 
ATOM     21  O   UNL     1      -2.860   5.952  -5.338  0.00  0.00    -0.278 OA
ATOM     22  H   UNL     1      -3.478   8.890  -4.624  0.00  0.00    +0.149 HD
BRANCH  19  23
ATOM     23  C   UNL     1      -3.267   8.274  -6.645  0.00  0.00    +0.104 C 
BRANCH  23  24
ATOM     24  C   UNL     1      -3.543   9.734  -7.011  0.00  0.00    +0.019 C 
BRANCH  24  25
ATOM     25  C   UNL     1      -3.509   9.893  -8.532  0.00  0.00    +0.001 C 
BRANCH  25  27
ATOM     26  C   UNL     1      -3.752  11.512 -10.419  0.00  0.00    +0.004 C 
ATOM     27  C   UNL     1      -3.786  11.353  -8.898  0.00  0.00    -0.003 C 
ENDBRANCH  25  27
ENDBRANCH  24  25
ENDBRANCH  23  24
ENDBRANCH  19  23
ENDBRANCH  18  20
ENDBRANCH   6  18
TORSDOF 9
