REMARK  Name = ZINC04163582
REMARK  7 active torsions:
REMARK  status: ('A' for Active; 'I' for Inactive)
REMARK    1  A    between atoms: C_1  and  C_2
REMARK    2  A    between atoms: C_4  and  O_9
REMARK    3  A    between atoms: O_9  and  C_10
REMARK    4  A    between atoms: C_10  and  C_11
REMARK    5  A    between atoms: C_14  and  C_24
REMARK    6  A    between atoms: C_14  and  O_28
REMARK    7  A    between atoms: C_16  and  C_18
REMARK                            x       y       z     vdW  Elec       q    Type
REMARK                         _______ _______ _______ _____ _____    ______ ____
ROOT
ATOM      1  C   UNL     1       1.488   3.186   0.005  0.00  0.00    +0.275 C 
ATOM      2  O   UNL     1       2.630   3.593  -0.004  0.00  0.00    -0.270 OA
ATOM      3  N   UNL     1       1.245   1.860   0.000  0.00  0.00    -0.149 N 
ATOM      4  C   UNL     1       2.267   0.801  -0.015  0.00  0.00    +0.256 C 
ATOM      5  C   UNL     1       1.432  -0.496  -0.014  0.00  0.00    +0.119 C 
ATOM      6  C   UNL     1       0.002  -0.004   0.002  0.00  0.00    +0.045 C 
ATOM      7  N   UNL     1      -0.015   1.266   0.009  0.00  0.00    -0.183 NA
ENDROOT
BRANCH   6   8
ATOM      8  C   UNL     1      -1.219  -0.888   0.009  0.00  0.00    +0.035 C 
ATOM      9  C   UNL     1      -1.287  -1.673  -1.303  0.00  0.00    +0.009 C 
ATOM     10  C   UNL     1      -2.526  -2.570  -1.296  0.00  0.00    +0.001 C 
ATOM     11  C   UNL     1      -3.780  -1.706  -1.154  0.00  0.00    +0.000 C 
ATOM     12  C   UNL     1      -3.712  -0.920   0.158  0.00  0.00    +0.001 C 
ATOM     13  C   UNL     1      -2.473  -0.023   0.151  0.00  0.00    +0.009 C 
ENDBRANCH   6   8
BRANCH   4  14
ATOM     14  C   UNL     1       3.123   0.890  -1.280  0.00  0.00    +0.438 C 
ATOM     15  F   UNL     1       2.294   0.885  -2.406  0.00  0.00    -0.166 F 
ATOM     16  F   UNL     1       3.869   2.073  -1.255  0.00  0.00    -0.166 F 
ATOM     17  F   UNL     1       3.990  -0.207  -1.335  0.00  0.00    -0.166 F 
ENDBRANCH   4  14
BRANCH   4  18
ATOM     18  O   UNL     1       3.087   0.873   1.153  0.00  0.00    -0.363 OA
ATOM     19  H   UNL     1       3.632   1.670   1.202  0.00  0.00    +0.212 HD
ENDBRANCH   4  18
BRANCH   1  20
ATOM     20  C   UNL     1       0.340   4.162   0.022  0.00  0.00    +0.326 C 
BRANCH  20  21
ATOM     21  O   UNL     1       0.850   5.497   0.024  0.00  0.00    -0.483 OA
BRANCH  21  25
ATOM     22  C   UNL     1      -0.101  10.284   0.059  0.00  0.00    +0.045 C 
ATOM     23  C   UNL     1      -0.563   8.850   0.056  0.00  0.00    -0.029 A 
ATOM     24  C   UNL     1       0.365   7.826   0.041  0.00  0.00    +0.050 A 
ATOM     25  C   UNL     1      -0.061   6.506   0.038  0.00  0.00    +0.122 A 
ATOM     26  C   UNL     1      -1.418   6.216   0.045  0.00  0.00    +0.047 A 
ATOM     27  C   UNL     1      -2.342   7.243   0.064  0.00  0.00    +0.024 A 
ATOM     28  C   UNL     1      -1.915   8.559   0.068  0.00  0.00    +0.044 A 
ATOM     29 CL   UNL     1      -3.079   9.848   0.086  0.00  0.00    -0.083 Cl
ENDBRANCH  21  25
ENDBRANCH  20  21
ENDBRANCH   1  20
TORSDOF 6
