REMARK  Name = ZINC09513659
REMARK  9 active torsions:
REMARK  status: ('A' for Active; 'I' for Inactive)
REMARK    1  A    between atoms: C_1  and  O_2
REMARK    2  A    between atoms: O_2  and  C_3
REMARK    3  A    between atoms: C_6  and  C_9
REMARK    4  A    between atoms: C_9  and  C_11
REMARK    5  A    between atoms: C_9  and  N_55
REMARK    6  A    between atoms: C_18  and  C_20
REMARK    7  A    between atoms: C_20  and  S_21
REMARK    8  A    between atoms: S_21  and  C_22
REMARK    9  A    between atoms: N_26  and  C_27
REMARK                            x       y       z     vdW  Elec       q    Type
REMARK                         _______ _______ _______ _____ _____    ______ ____
ROOT
ATOM      1  C   UNL     1      -1.294   0.443  -4.473  0.00  0.00    -0.057 C 
ATOM      2  C   UNL     1      -1.075   1.644  -3.547  0.00  0.00    +0.089 C 
ATOM      3  N   UNL     1      -0.273   1.206  -2.395  0.00  0.00    -0.304 N 
ATOM      4  C   UNL     1       0.981   0.483  -2.655  0.00  0.00    +0.089 C 
ATOM      5  C   UNL     1       0.678  -0.678  -3.615  0.00  0.00    -0.057 C 
ATOM      6  C   UNL     1      -0.674   1.465  -1.135  0.00  0.00    +0.226 C 
ATOM      7  O   UNL     1      -1.708   2.067  -0.939  0.00  0.00    -0.275 OA
ATOM      8  N   UNL     1       0.022  -0.133  -4.824  0.00  0.00    +0.395 N 
ATOM      9  H   UNL     1       0.614   0.607  -5.218  0.00  0.00    -0.079 HD
ENDROOT
BRANCH   8  10
ATOM     10  C   UNL     1      -0.147  -1.201  -5.831  0.00  0.00    +0.068 C 
BRANCH  10  14
ATOM     11  C   UNL     1      -1.820   0.499  -9.377  0.00  0.00    +0.120 A 
ATOM     12  C   UNL     1      -2.316  -0.697  -8.878  0.00  0.00    +0.046 A 
ATOM     13  C   UNL     1      -1.774  -1.244  -7.732  0.00  0.00    +0.006 A 
ATOM     14  C   UNL     1      -0.736  -0.602  -7.082  0.00  0.00    -0.047 A 
ATOM     15  C   UNL     1      -0.243   0.593  -7.574  0.00  0.00    +0.006 A 
ATOM     16  C   UNL     1      -0.778   1.141  -8.723  0.00  0.00    +0.046 A 
BRANCH  11  18
ATOM     17  C   UNL     1      -1.791   2.272 -10.961  0.00  0.00    +0.277 C 
ATOM     18  O   UNL     1      -2.352   1.039 -10.505  0.00  0.00    -0.495 OA
ENDBRANCH  11  18
ENDBRANCH  10  14
BRANCH  10  19
ATOM     19  C   UNL     1       1.171  -1.780  -6.139  0.00  0.00    +0.052 C 
ATOM     20  N   UNL     1       2.188  -2.227  -6.376  0.00  0.00    -0.198 NA
ENDBRANCH  10  19
ENDBRANCH   8  10
BRANCH   6  21
ATOM     21  C   UNL     1       0.164   1.007   0.032  0.00  0.00    +0.173 C 
BRANCH  21  22
ATOM     22  S   UNL     1      -0.634   1.502   1.579  0.00  0.00    -0.075 S 
BRANCH  22  23
ATOM     23  C   UNL     1       0.524   0.858   2.740  0.00  0.00    +0.214 A 
ATOM     24  N   UNL     1       1.635   0.211   2.460  0.00  0.00    -0.101 NA
ATOM     25  N   UNL     1       2.247  -0.119   3.540  0.00  0.00    -0.022 NA
ATOM     26  N   UNL     1       1.588   0.284   4.572  0.00  0.00    -0.038 NA
ATOM     27  N   UNL     1       0.442   0.942   4.092  0.00  0.00    -0.187 N 
BRANCH  27  28
ATOM     28  C   UNL     1      -0.570   1.551   4.848  0.00  0.00    +0.070 A 
ATOM     29  C   UNL     1      -1.190   2.702   4.381  0.00  0.00    +0.029 A 
ATOM     30  C   UNL     1      -2.190   3.297   5.125  0.00  0.00    +0.022 A 
ATOM     31  C   UNL     1      -2.567   2.752   6.340  0.00  0.00    +0.041 A 
ATOM     32  C   UNL     1      -1.947   1.608   6.811  0.00  0.00    +0.022 A 
ATOM     33  C   UNL     1      -0.950   1.006   6.068  0.00  0.00    +0.029 A 
ATOM     34 CL   UNL     1      -3.820   3.506   7.277  0.00  0.00    -0.084 Cl
ENDBRANCH  27  28
ENDBRANCH  22  23
ENDBRANCH  21  22
ENDBRANCH   6  21
TORSDOF 8
