REMARK  Name = ZINC65507325
REMARK  3 active torsions:
REMARK  status: ('A' for Active; 'I' for Inactive)
REMARK    1  A    between atoms: N_14  and  C_15
REMARK    2  A    between atoms: C_15  and  C_16
REMARK    3  A    between atoms: C_16  and  C_17
REMARK                            x       y       z     vdW  Elec       q    Type
REMARK                         _______ _______ _______ _____ _____    ______ ____
ROOT
ATOM      1  C   UNL     1      -0.007   1.299  -0.208  0.00  0.00    +0.224 A 
ATOM      2  N   UNL     1       1.111   2.004  -0.208  0.00  0.00    -0.220 NA
ATOM      3  C   UNL     1       2.295   1.448  -0.013  0.00  0.00    +0.130 A 
ATOM      4  C   UNL     1       2.374   0.044   0.204  0.00  0.00    +0.051 A 
ATOM      5  C   UNL     1       3.555  -0.784   0.438  0.00  0.00    -0.022 A 
ATOM      6  C   UNL     1       3.353  -2.107   0.616  0.00  0.00    +0.009 A 
ATOM      7  S   UNL     1       1.601  -2.328   0.486  0.00  0.00    -0.072 S 
ATOM      8  C   UNL     1       1.141  -0.640   0.190  0.00  0.00    +0.114 A 
ATOM      9  N   UNL     1       0.003  -0.005  -0.012  0.00  0.00    -0.228 NA
ATOM     10  C   UNL     1       4.403  -3.145   0.866  0.00  0.00    +0.124 C 
ATOM     11  N   UNL     1       5.717  -2.562   0.535  0.00  0.00    -0.311 NA
ATOM     12  C   UNL     1       5.875  -1.248   1.173  0.00  0.00    +0.086 C 
ATOM     13  C   UNL     1       4.973  -0.219   0.488  0.00  0.00    +0.052 C 
ATOM     14  N   UNL     1       3.442   2.221  -0.020  0.00  0.00    -0.328 N 
ATOM     15  H   UNL     1       6.466  -3.185   0.799  0.00  0.00    +0.122 HD
ATOM     16  H   UNL     1       4.313   1.798   0.043  0.00  0.00    +0.147 HD
ENDROOT
BRANCH  14  17
ATOM     17  C   UNL     1       3.342   3.679  -0.121  0.00  0.00    +0.105 C 
BRANCH  17  18
ATOM     18  C   UNL     1       4.745   4.288  -0.107  0.00  0.00    +0.052 C 
BRANCH  18  19
ATOM     19  C   UNL     1       4.641   5.811  -0.213  0.00  0.00    +0.157 C 
ATOM     20  C   UNL     1       6.005   6.447  -0.143  0.00  0.00    -0.021 C 
ATOM     21  C   UNL     1       6.153   7.074  -1.315  0.00  0.00    +0.064 C 
ATOM     22  C   UNL     1       7.396   7.857  -1.679  0.00  0.00    +0.057 C 
ATOM     23  C   UNL     1       8.178   8.154  -0.395  0.00  0.00    +0.006 C 
ATOM     24  C   UNL     1       8.368   6.862   0.405  0.00  0.00    +0.005 C 
ATOM     25  C   UNL     1       7.013   6.413   0.968  0.00  0.00    +0.035 C 
ATOM     26  N   UNL     1       5.052   6.894  -2.078  0.00  0.00    -0.158 NA
ATOM     27  N   UNL     1       4.162   6.211  -1.550  0.00  0.00    -0.180 NA
ENDBRANCH  18  19
ENDBRANCH  17  18
ENDBRANCH  14  17
TORSDOF 3
