REMARK  Name = ZINC33751028
REMARK  7 active torsions:
REMARK  status: ('A' for Active; 'I' for Inactive)
REMARK    1  A    between atoms: C_2  and  C_3
REMARK    2  A    between atoms: C_3  and  C_4
REMARK    3  A    between atoms: C_4  and  N_5
REMARK    4  A    between atoms: C_10  and  C_23
REMARK    5  A    between atoms: C_13  and  C_18
REMARK    6  A    between atoms: C_13  and  C_20
REMARK    7  A    between atoms: C_18  and  O_19
REMARK                            x       y       z     vdW  Elec       q    Type
REMARK                         _______ _______ _______ _____ _____    ______ ____
ROOT
ATOM      1  N   UNL     1       1.229   2.262   0.104  0.00  0.00    -0.241 N 
ATOM      2  C   UNL     1       0.215   1.337   0.097  0.00  0.00    +0.224 C 
ATOM      3  O   UNL     1       0.319   0.129   0.108  0.00  0.00    -0.275 OA
ATOM      4  C   UNL     1      -1.000   2.109   0.065  0.00  0.00    +0.077 C 
ATOM      5  C   UNL     1      -2.446   1.991   0.274  0.00  0.00    -0.025 C 
ATOM      6  N   UNL     1      -2.930   3.403   0.415  0.00  0.00    +0.397 N 
ATOM      7  C   UNL     1      -1.729   4.299   0.383  0.00  0.00    +0.071 C 
ATOM      8  C   UNL     1      -0.604   3.400   0.876  0.00  0.00    +0.088 C 
ATOM      9  C   UNL     1       0.787   3.531   0.347  0.00  0.00    +0.225 C 
ATOM     10  O   UNL     1       1.401   4.561   0.169  0.00  0.00    -0.275 OA
ATOM     11  H   UNL     1      -3.610   3.643  -0.416  0.00  0.00    -0.083 HD
ATOM     12  H   UNL     1      -3.466   3.514   1.370  0.00  0.00    -0.083 HD
ENDROOT
BRANCH   5  13
ATOM     13  C   UNL     1      -2.740   1.208   1.528  0.00  0.00    -0.039 A 
ATOM     14  C   UNL     1      -3.010   1.871   2.710  0.00  0.00    +0.023 A 
ATOM     15  C   UNL     1      -3.280   1.153   3.861  0.00  0.00    +0.043 A 
ATOM     16  C   UNL     1      -3.280  -0.230   3.830  0.00  0.00    +0.041 A 
ATOM     17  C   UNL     1      -3.011  -0.894   2.647  0.00  0.00    +0.061 A 
ATOM     18  C   UNL     1      -2.746  -0.175   1.494  0.00  0.00    +0.061 A 
ATOM     19 CL   UNL     1      -2.415  -1.008   0.008  0.00  0.00    -0.082 Cl
ATOM     20 CL   UNL     1      -3.011  -2.630   2.607  0.00  0.00    -0.082 Cl
ATOM     21 CL   UNL     1      -3.618   1.988   5.345  0.00  0.00    -0.083 Cl
ENDBRANCH   5  13
BRANCH   7  22
ATOM     22  C   UNL     1      -1.917   5.472   1.311  0.00  0.00    +0.348 C 
ATOM     23  O   UNL     1      -0.997   5.855   1.994  0.00  0.00    -0.248 OA
ATOM     24  O   UNL     1      -3.106   6.091   1.379  0.00  0.00    -0.248 OA
ENDBRANCH   7  22
BRANCH   1  25
ATOM     25  C   UNL     1       2.636   1.924  -0.126  0.00  0.00    +0.120 C 
BRANCH  25  26
ATOM     26  C   UNL     1       2.945   2.014  -1.621  0.00  0.00    +0.046 C 
BRANCH  26  28
ATOM     27  C   UNL     1       4.708   0.715  -2.700  0.00  0.00    +0.004 C 
ATOM     28  C   UNL     1       4.392   1.667  -1.857  0.00  0.00    -0.033 C 
ENDBRANCH  26  28
ENDBRANCH  25  26
ENDBRANCH   1  25
BRANCH   7  29
ATOM     29  C   UNL     1      -1.452   4.778  -1.043  0.00  0.00    +0.155 C 
BRANCH  29  30
ATOM     30  O   UNL     1      -2.527   5.609  -1.485  0.00  0.00    -0.396 OA
ATOM     31  H   UNL     1      -2.504   6.049  -2.493  0.00  0.00    +0.209 HD
ENDBRANCH  29  30
ENDBRANCH   7  29
TORSDOF 7
