REMARK  Name = ZINC67505687
REMARK  7 active torsions:
REMARK  status: ('A' for Active; 'I' for Inactive)
REMARK    1  A    between atoms: C_1  and  O_2
REMARK    2  A    between atoms: O_2  and  C_3
REMARK    3  A    between atoms: C_10  and  C_12
REMARK    4  A    between atoms: C_12  and  N_13
REMARK    5  A    between atoms: N_13  and  C_14
REMARK    6  A    between atoms: C_14  and  C_16
REMARK    7  A    between atoms: C_14  and  C_23
REMARK                            x       y       z     vdW  Elec       q    Type
REMARK                         _______ _______ _______ _____ _____    ______ ____
ROOT
ATOM      1  N   UNL     1      -1.133  -5.961   0.635  0.00  0.00    +0.390 N 
ATOM      2  H   UNL     1      -1.093  -6.078   1.636  0.00  0.00    -0.084 HD
ATOM      3  H   UNL     1      -1.832  -5.271   0.405  0.00  0.00    -0.084 HD
ENDROOT
BRANCH   1   4
ATOM      4  C   UNL     1       0.177  -5.514   0.141  0.00  0.00    -0.006 C 
BRANCH   4  12
ATOM      5  C   UNL     1       0.626  -0.619   1.042  0.00  0.00    +0.163 A 
ATOM      6  C   UNL     1       1.201   0.136   2.049  0.00  0.00    +0.049 A 
ATOM      7  C   UNL     1       1.841  -0.479   3.115  0.00  0.00    +0.004 A 
ATOM      8  C   UNL     1       1.912  -1.853   3.184  0.00  0.00    +0.012 A 
ATOM      9  C   UNL     1       1.336  -2.627   2.176  0.00  0.00    +0.024 A 
ATOM     10  C   UNL     1       0.683  -2.010   1.099  0.00  0.00    +0.176 A 
ATOM     11  O   UNL     1       0.224  -2.990   0.293  0.00  0.00    -0.458 OA
ATOM     12  C   UNL     1       0.536  -4.200   0.787  0.00  0.00    +0.090 A 
ATOM     13  C   UNL     1       1.222  -4.070   1.930  0.00  0.00    +0.051 A 
BRANCH   5  15
ATOM     14  C   UNL     1      -0.017   1.425   0.010  0.00  0.00    +0.277 C 
ATOM     15  O   UNL     1       0.002  -0.004   0.002  0.00  0.00    -0.491 OA
ENDBRANCH   5  15
ENDBRANCH   4  12
ENDBRANCH   1   4
BRANCH   1  16
ATOM     16  C   UNL     1      -1.482  -7.241   0.006  0.00  0.00    -0.011 C 
BRANCH  16  17
ATOM     17  C   UNL     1      -2.877  -7.639   0.417  0.00  0.00    -0.059 A 
ATOM     18  C   UNL     1      -3.300  -7.429   1.716  0.00  0.00    +0.005 A 
ATOM     19  C   UNL     1      -4.578  -7.793   2.094  0.00  0.00    +0.038 A 
ATOM     20  C   UNL     1      -5.436  -8.367   1.171  0.00  0.00    +0.123 A 
ATOM     21  C   UNL     1      -5.011  -8.576  -0.130  0.00  0.00    +0.038 A 
ATOM     22  C   UNL     1      -3.734  -8.207  -0.507  0.00  0.00    +0.005 A 
ATOM     23  F   UNL     1      -6.686  -8.723   1.540  0.00  0.00    -0.205 F 
ENDBRANCH  16  17
BRANCH  16  24
ATOM     24  C   UNL     1      -0.492  -8.318   0.455  0.00  0.00    +0.109 C 
ATOM     25  C   UNL     1      -0.778  -9.637  -0.294  0.00  0.00    +0.032 C 
ATOM     26  C   UNL     1      -0.553 -10.701   0.815  0.00  0.00    +0.030 C 
ATOM     27  C   UNL     1      -1.055  -9.934   2.064  0.00  0.00    +0.160 C 
ATOM     28  O   UNL     1      -0.650  -8.569   1.856  0.00  0.00    -0.378 OA
ENDBRANCH  16  24
ENDBRANCH   1  16
TORSDOF 6
