REMARK  Name = ZINC11859866
REMARK  6 active torsions:
REMARK  status: ('A' for Active; 'I' for Inactive)
REMARK    1  A    between atoms: C_1  and  C_2
REMARK    2  A    between atoms: C_2  and  C_27
REMARK    3  A    between atoms: C_7  and  C_26
REMARK    4  A    between atoms: N_9  and  N_10
REMARK    5  A    between atoms: C_15  and  C_18
REMARK    6  A    between atoms: C_18  and  C_19
REMARK                            x       y       z     vdW  Elec       q    Type
REMARK                         _______ _______ _______ _____ _____    ______ ____
ROOT
ATOM      1  N   UNL     1       1.231  -0.032   4.103  0.00  0.00    -0.127 NA
ATOM      2  C   UNL     1       2.077  -1.016   4.316  0.00  0.00    +0.183 C 
ATOM      3  N   UNL     1       2.586  -1.914   3.401  0.00  0.00    -0.263 N 
ATOM      4  C   UNL     1       3.441  -2.863   3.742  0.00  0.00    +0.233 C 
ATOM      5  O   UNL     1       3.890  -3.647   2.933  0.00  0.00    -0.274 OA
ATOM      6  C   UNL     1       3.822  -2.913   5.213  0.00  0.00    +0.149 C 
ATOM      7  S   UNL     1       2.832  -1.508   5.858  0.00  0.00    -0.075 S 
ATOM      8  H   UNL     1       2.309  -1.845   2.474  0.00  0.00    +0.157 HD
ENDROOT
BRANCH   1  16
ATOM      9  C   UNL     1       0.560   3.779   1.597  0.00  0.00    +0.012 C 
ATOM     10  C   UNL     1      -0.820   3.136   1.445  0.00  0.00    -0.021 C 
ATOM     11  C   UNL     1      -1.586   3.092   2.815  0.00  0.00    +0.001 C 
ATOM     12  C   UNL     1      -2.801   2.191   2.436  0.00  0.00    +0.005 C 
ATOM     13  C   UNL     1      -2.225   1.164   1.405  0.00  0.00    +0.013 C 
ATOM     14  C   UNL     1      -0.729   1.579   1.267  0.00  0.00    +0.013 C 
ATOM     15  C   UNL     1      -0.091   1.172   2.603  0.00  0.00    +0.048 C 
ATOM     16  N   UNL     1       0.742   0.204   2.812  0.00  0.00    -0.156 NA
ATOM     17  C   UNL     1      -0.646   2.150   3.628  0.00  0.00    +0.057 C 
ATOM     18  C   UNL     1      -0.013   1.086   0.008  0.00  0.00    +0.018 C 
ATOM     19  C   UNL     1      -1.636   3.796   0.332  0.00  0.00    +0.012 C 
ENDBRANCH   1  16
BRANCH   6  20
ATOM     20  C   UNL     1       5.320  -2.671   5.406  0.00  0.00    +0.120 C 
BRANCH  20  21
ATOM     21  C   UNL     1       5.642  -2.667   6.879  0.00  0.00    +0.222 C 
ATOM     22  O   UNL     1       4.761  -2.840   7.692  0.00  0.00    -0.275 OA
ATOM     23  N   UNL     1       6.910  -2.470   7.290  0.00  0.00    -0.240 N 
ATOM     24  C   UNL     1       7.199  -2.466   8.607  0.00  0.00    +0.303 C 
ATOM     25  O   UNL     1       6.315  -2.640   9.423  0.00  0.00    -0.253 OA
ATOM     26  N   UNL     1       8.467  -2.269   9.019  0.00  0.00    -0.313 N 
ATOM     27  H   UNL     1       7.616  -2.331   6.639  0.00  0.00    +0.159 HD
ATOM     28  H   UNL     1       9.172  -2.131   8.367  0.00  0.00    +0.146 HD
ATOM     29  H   UNL     1       8.674  -2.267   9.966  0.00  0.00    +0.146 HD
ENDBRANCH  20  21
ENDBRANCH   6  20
TORSDOF 3
