REMARK  Name = ZINC20633815
REMARK  7 active torsions:
REMARK  status: ('A' for Active; 'I' for Inactive)
REMARK    1  A    between atoms: C_1  and  C_2
REMARK    2  A    between atoms: N_11  and  C_15
REMARK    3  A    between atoms: C_15  and  N_16
REMARK    4  A    between atoms: N_19  and  C_22
REMARK    5  A    between atoms: C_22  and  C_23
REMARK    6  A    between atoms: N_25  and  C_26
REMARK    7  A    between atoms: C_31  and  C_32
REMARK                            x       y       z     vdW  Elec       q    Type
REMARK                         _______ _______ _______ _____ _____    ______ ____
ROOT
ATOM      1  N   UNL     1       4.870  -0.050   0.934  0.00  0.00    -0.290 NA
ATOM      2  C   UNL     1       4.816   0.723  -0.314  0.00  0.00    +0.067 C 
ATOM      3  C   UNL     1       3.678   1.743  -0.230  0.00  0.00    -0.063 C 
ATOM      4  N   UNL     1       2.409   1.039   0.006  0.00  0.00    +0.387 N 
ATOM      5  C   UNL     1       2.464   0.266   1.254  0.00  0.00    -0.063 C 
ATOM      6  C   UNL     1       3.602  -0.754   1.170  0.00  0.00    +0.067 C 
ATOM      7  H   UNL     1       2.253   0.334  -0.824  0.00  0.00    -0.081 HD
ENDROOT
BRANCH   1   8
ATOM      8  C   UNL     1       5.999  -0.990   0.923  0.00  0.00    +0.204 C 
BRANCH   8  18
ATOM      9  C   UNL     1       9.185  -2.750   3.455  0.00  0.00    +0.010 C 
ATOM     10  C   UNL     1       8.800  -1.802   4.593  0.00  0.00    +0.018 C 
ATOM     11  C   UNL     1       9.797  -0.642   4.648  0.00  0.00    +0.006 C 
ATOM     12  C   UNL     1       9.399   0.317   5.773  0.00  0.00    +0.000 C 
ATOM     13  C   UNL     1       7.999   0.871   5.500  0.00  0.00    +0.003 C 
ATOM     14  C   UNL     1       6.996  -0.283   5.449  0.00  0.00    +0.035 C 
ATOM     15  C   UNL     1       7.396  -1.260   4.348  0.00  0.00    +0.115 C 
ATOM     16  C   UNL     1       7.321  -0.594   2.993  0.00  0.00    +0.248 C 
ATOM     17  O   UNL     1       7.955   0.366   2.611  0.00  0.00    -0.273 OA
ATOM     18  N   UNL     1       6.397  -1.292   2.300  0.00  0.00    -0.211 N 
ATOM     19  C   UNL     1       5.894  -2.299   3.025  0.00  0.00    +0.310 C 
ATOM     20  O   UNL     1       5.049  -3.071   2.615  0.00  0.00    -0.252 OA
ATOM     21  N   UNL     1       6.428  -2.360   4.260  0.00  0.00    -0.285 N 
ATOM     22  H   UNL     1       6.274  -3.028   5.120  0.00  0.00    +0.151 HD
ENDBRANCH   8  18
ENDBRANCH   1   8
BRANCH   4  23
ATOM     23  C   UNL     1       1.280   1.979   0.017  0.00  0.00    +0.019 C 
BRANCH  23  24
ATOM     24  C   UNL     1      -0.015   1.208   0.014  0.00  0.00    +0.201 C 
ATOM     25  O   UNL     1       0.001  -0.004   0.004  0.00  0.00    -0.278 OA
ATOM     26  N   UNL     1      -1.191   1.867   0.018  0.00  0.00    -0.287 N 
ATOM     27  H   UNL     1      -1.207   2.963   0.102  0.00  0.00    +0.155 HD
BRANCH  26  28
ATOM     28  C   UNL     1      -2.391   1.155  -0.086  0.00  0.00    +0.045 A 
ATOM     29  C   UNL     1      -2.510  -0.099   0.499  0.00  0.00    +0.024 A 
ATOM     30  C   UNL     1      -3.697  -0.796   0.399  0.00  0.00    +0.002 A 
ATOM     31  C   UNL     1      -4.764  -0.252  -0.292  0.00  0.00    +0.001 A 
ATOM     32  C   UNL     1      -4.648   0.994  -0.880  0.00  0.00    +0.014 A 
ATOM     33  C   UNL     1      -3.464   1.699  -0.779  0.00  0.00    +0.076 A 
BRANCH  33  34
ATOM     34  C   UNL     1      -3.338   3.057  -1.421  0.00  0.00    +0.419 C 
ATOM     35  F   UNL     1      -4.540   3.386  -2.055  0.00  0.00    -0.166 F 
ATOM     36  F   UNL     1      -3.051   4.011  -0.439  0.00  0.00    -0.166 F 
ATOM     37  F   UNL     1      -2.305   3.032  -2.364  0.00  0.00    -0.166 F 
ENDBRANCH  33  34
ENDBRANCH  26  28
ENDBRANCH  23  24
ENDBRANCH   4  23
TORSDOF 6
