REMARK  Name = ZINC20681455
REMARK  6 active torsions:
REMARK  status: ('A' for Active; 'I' for Inactive)
REMARK    1  A    between atoms: C_1  and  C_2
REMARK    2  A    between atoms: C_2  and  O_3
REMARK    3  A    between atoms: O_3  and  C_4
REMARK    4  A    between atoms: C_17  and  C_20
REMARK    5  A    between atoms: C_23  and  O_27
REMARK    6  A    between atoms: C_25  and  O_26
REMARK                            x       y       z     vdW  Elec       q    Type
REMARK                         _______ _______ _______ _____ _____    ______ ____
ROOT
ATOM      1  C   UNL     1      -0.881  -2.144   0.625  0.00  0.00    +0.121 A 
ATOM      2  C   UNL     1       0.118  -2.772  -0.105  0.00  0.00    +0.047 A 
ATOM      3  C   UNL     1       1.060  -2.020  -0.776  0.00  0.00    +0.027 A 
ATOM      4  C   UNL     1       1.019  -0.632  -0.725  0.00  0.00    +0.032 A 
ATOM      5  C   UNL     1       0.002  -0.004   0.002  0.00  0.00    -0.016 A 
ATOM      6  C   UNL     1      -0.934  -0.760   0.674  0.00  0.00    +0.051 A 
ATOM      7  C   UNL     1      -0.018   1.475   0.010  0.00  0.00    +0.049 C 
ATOM      8  C   UNL     1      -0.629   2.245   1.123  0.00  0.00    -0.023 C 
ATOM      9  C   UNL     1       0.026   3.393   1.255  0.00  0.00    -0.030 C 
ATOM     10  C   UNL     1       1.169   3.461   0.240  0.00  0.00    +0.033 C 
ATOM     11  C   UNL     1       1.458   1.973  -0.001  0.00  0.00    +0.029 C 
ATOM     12  C   UNL     1       2.006   1.587  -1.364  0.00  0.00    +0.108 C 
ATOM     13  N   UNL     1       2.011   0.108  -1.385  0.00  0.00    -0.336 N 
ATOM     14  H   UNL     1       2.803  -0.431  -1.926  0.00  0.00    +0.147 HD
ENDROOT
BRANCH  12  15
ATOM     15  C   UNL     1       3.407   2.115  -1.531  0.00  0.00    +0.015 A 
ATOM     16  C   UNL     1       4.489   1.300  -1.259  0.00  0.00    +0.012 A 
ATOM     17  C   UNL     1       5.775   1.781  -1.416  0.00  0.00    +0.046 A 
ATOM     18  C   UNL     1       5.983   3.087  -1.837  0.00  0.00    +0.120 A 
ATOM     19  C   UNL     1       4.899   3.908  -2.105  0.00  0.00    +0.091 A 
ATOM     20  C   UNL     1       3.609   3.422  -1.952  0.00  0.00    +0.125 A 
BRANCH  20  21
ATOM     21  O   UNL     1       2.544   4.225  -2.214  0.00  0.00    -0.506 OA
ATOM     22  H   UNL     1       2.705   5.260  -2.548  0.00  0.00    +0.292 HD
ENDBRANCH  20  21
BRANCH  18  23
ATOM     23  O   UNL     1       7.248   3.560  -1.987  0.00  0.00    -0.507 OA
ATOM     24  H   UNL     1       7.412   4.596  -2.320  0.00  0.00    +0.292 HD
ENDBRANCH  18  23
ENDBRANCH  12  15
BRANCH   1  25
ATOM     25  O   UNL     1      -1.806  -2.886   1.291  0.00  0.00    -0.492 OA
BRANCH  25  27
ATOM     26  C   UNL     1      -2.809  -4.966   2.004  0.00  0.00    +0.048 C 
ATOM     27  C   UNL     1      -1.690  -4.307   1.195  0.00  0.00    +0.225 C 
ENDBRANCH  25  27
ENDBRANCH   1  25
TORSDOF 5
