REMARK  Name = ZINC17086028
REMARK  9 active torsions:
REMARK  status: ('A' for Active; 'I' for Inactive)
REMARK    1  A    between atoms: C_1  and  C_2
REMARK    2  A    between atoms: C_5  and  C_8
REMARK    3  A    between atoms: C_8  and  O_10
REMARK    4  A    between atoms: O_10  and  C_11
REMARK    5  A    between atoms: C_14  and  C_17
REMARK    6  A    between atoms: C_26  and  C_30
REMARK    7  A    between atoms: C_30  and  C_31
REMARK    8  A    between atoms: C_30  and  C_32
REMARK    9  A    between atoms: C_30  and  C_33
REMARK                            x       y       z     vdW  Elec       q    Type
REMARK                         _______ _______ _______ _____ _____    ______ ____
ROOT
ATOM      1  C   UNL     1       3.864   2.997  -0.532  0.00  0.00    +0.190 C 
ATOM      2  N   UNL     1       3.742   1.627  -0.001  0.00  0.00    -0.316 N 
ATOM      3  C   UNL     1       2.486   1.077  -0.000  0.00  0.00    +0.080 A 
ATOM      4  C   UNL     1       1.314   1.849  -0.006  0.00  0.00    +0.068 A 
ATOM      5  C   UNL     1       0.065   1.105   0.004  0.00  0.00    -0.023 A 
ATOM      6  C   UNL     1       0.186  -0.241   0.013  0.00  0.00    -0.004 A 
ATOM      7  S   UNL     1       1.934  -0.543   0.012  0.00  0.00    -0.078 S 
ATOM      8  C   UNL     1      -0.921  -1.249   0.022  0.00  0.00    +0.046 C 
ATOM      9  C   UNL     1      -2.228  -0.538  -0.357  0.00  0.00    -0.000 C 
ATOM     10  C   UNL     1      -2.348   0.745   0.471  0.00  0.00    +0.009 C 
ATOM     11  C   UNL     1      -1.309   1.765   0.009  0.00  0.00    +0.037 C 
ATOM     12  C   UNL     1       1.466   3.322  -0.012  0.00  0.00    +0.248 C 
ATOM     13  O   UNL     1       0.504   4.059   0.108  0.00  0.00    -0.270 OA
ATOM     14  N   UNL     1       2.714   3.814  -0.155  0.00  0.00    -0.289 N 
ATOM     15  H   UNL     1       4.633   1.099   0.369  0.00  0.00    +0.149 HD
ATOM     16  H   UNL     1       2.842   4.891   0.028  0.00  0.00    +0.151 HD
ENDROOT
BRANCH   1  20
ATOM     17  C   UNL     1       4.127   2.829  -4.794  0.00  0.00    +0.132 A 
ATOM     18  C   UNL     1       3.555   3.932  -4.176  0.00  0.00    +0.047 A 
ATOM     19  C   UNL     1       3.471   3.983  -2.798  0.00  0.00    +0.010 A 
ATOM     20  C   UNL     1       3.956   2.938  -2.035  0.00  0.00    -0.009 A 
ATOM     21  C   UNL     1       4.532   1.840  -2.648  0.00  0.00    +0.010 A 
ATOM     22  C   UNL     1       4.614   1.781  -4.026  0.00  0.00    +0.047 A 
BRANCH  17  23
ATOM     23  O   UNL     1       4.212   2.776  -6.149  0.00  0.00    -0.422 OA
BRANCH  23  24
ATOM     24  C   UNL     1       5.064   3.634  -6.743  0.00  0.00    +0.344 C 
ATOM     25  O   UNL     1       5.791   4.334  -6.067  0.00  0.00    -0.245 OA
BRANCH  24  30
ATOM     26  C   UNL     1       5.265   3.979 -12.483  0.00  0.00    +0.044 C 
ATOM     27  C   UNL     1       5.212   3.889 -10.979  0.00  0.00    -0.050 A 
ATOM     28  C   UNL     1       6.041   4.688 -10.212  0.00  0.00    +0.004 A 
ATOM     29  C   UNL     1       5.998   4.610  -8.835  0.00  0.00    +0.015 A 
ATOM     30  C   UNL     1       5.116   3.722  -8.217  0.00  0.00    +0.059 A 
ATOM     31  C   UNL     1       4.286   2.915  -8.997  0.00  0.00    +0.015 A 
ATOM     32  C   UNL     1       4.335   3.007 -10.373  0.00  0.00    +0.004 A 
ENDBRANCH  24  30
ENDBRANCH  23  24
ENDBRANCH  17  23
ENDBRANCH   1  20
BRANCH   9  33
ATOM     33  C   UNL     1      -3.416  -1.454  -0.059  0.00  0.00    -0.035 C 
ATOM     34  C   UNL     1      -3.437  -1.794   1.433  0.00  0.00    +0.011 C 
ATOM     35  C   UNL     1      -4.716  -0.743  -0.438  0.00  0.00    +0.011 C 
ATOM     36  C   UNL     1      -3.283  -2.743  -0.874  0.00  0.00    +0.011 C 
ENDBRANCH   9  33
TORSDOF 5
