REMARK  Name = ZINC39327140
REMARK  13 active torsions:
REMARK  status: ('A' for Active; 'I' for Inactive)
REMARK    1  A    between atoms: C_1  and  C_2
REMARK    2  A    between atoms: C_3  and  C_35
REMARK    3  A    between atoms: C_4  and  C_25
REMARK    4  A    between atoms: C_6  and  C_23
REMARK    5  A    between atoms: C_7  and  S_9
REMARK    6  A    between atoms: S_9  and  C_10
REMARK    7  A    between atoms: C_10  and  C_11
REMARK    8  A    between atoms: C_11  and  C_13
REMARK    9  A    between atoms: C_28  and  C_31
REMARK   10  A    between atoms: C_31  and  O_33
REMARK   11  A    between atoms: O_33  and  C_34
REMARK   12  A    between atoms: C_35  and  O_37
REMARK   13  A    between atoms: O_37  and  C_38
REMARK                            x       y       z     vdW  Elec       q    Type
REMARK                         _______ _______ _______ _____ _____    ______ ____
ROOT
ATOM      1  C   UNL     1      -0.018   1.503   0.010  0.00  0.00    +0.061 C 
ATOM      2  C   UNL     1       0.002  -0.004   0.002  0.00  0.00    +0.016 C 
ATOM      3  C   UNL     1      -1.159  -0.681   0.004  0.00  0.00    +0.066 C 
ATOM      4  C   UNL     1      -1.197  -2.183   0.005  0.00  0.00    +0.100 C 
ATOM      5  C   UNL     1       0.137  -2.751  -0.388  0.00  0.00    +0.069 C 
ATOM      6  C   UNL     1       1.262  -1.987  -0.375  0.00  0.00    +0.080 C 
ATOM      7  N   UNL     1       1.201  -0.661  -0.013  0.00  0.00    -0.312 N 
ATOM      8  H   UNL     1       2.013  -0.192   0.236  0.00  0.00    +0.152 HD
ENDROOT
BRANCH   4   9
ATOM      9  C   UNL     1      -1.554  -2.668   1.387  0.00  0.00    -0.035 A 
ATOM     10  C   UNL     1      -0.745  -2.343   2.461  0.00  0.00    +0.005 A 
ATOM     11  C   UNL     1      -1.067  -2.784   3.728  0.00  0.00    +0.015 A 
ATOM     12  C   UNL     1      -2.210  -3.561   3.925  0.00  0.00    +0.059 A 
ATOM     13  C   UNL     1      -3.021  -3.885   2.836  0.00  0.00    +0.015 A 
ATOM     14  C   UNL     1      -2.692  -3.433   1.575  0.00  0.00    +0.005 A 
BRANCH  12  15
ATOM     15  C   UNL     1      -2.560  -4.037   5.279  0.00  0.00    +0.339 C 
ATOM     16  O   UNL     1      -1.852  -3.753   6.224  0.00  0.00    -0.245 OA
BRANCH  15  17
ATOM     17  O   UNL     1      -3.664  -4.786   5.465  0.00  0.00    -0.464 OA
ATOM     18  C   UNL     1      -3.942  -5.212   6.800  0.00  0.00    +0.280 C 
ENDBRANCH  15  17
ENDBRANCH  12  15
ENDBRANCH   4   9
BRANCH   5  19
ATOM     19  C   UNL     1       0.226  -4.125  -0.783  0.00  0.00    +0.098 C 
ATOM     20  N   UNL     1       0.297  -5.215  -1.097  0.00  0.00    -0.191 NA
ENDBRANCH   5  19
BRANCH   3  21
ATOM     21  C   UNL     1      -2.375   0.038   0.005  0.00  0.00    +0.337 C 
ATOM     22  O   UNL     1      -2.363   1.255   0.004  0.00  0.00    -0.245 OA
BRANCH  21  23
ATOM     23  O   UNL     1      -3.551  -0.625   0.007  0.00  0.00    -0.465 OA
ATOM     24  C   UNL     1      -4.741   0.166   0.008  0.00  0.00    +0.280 C 
ENDBRANCH  21  23
ENDBRANCH   3  21
BRANCH   6  25
ATOM     25  S   UNL     1       2.808  -2.697  -0.833  0.00  0.00    -0.102 S 
BRANCH  25  26
ATOM     26  C   UNL     1       3.986  -1.329  -0.667  0.00  0.00    +0.150 C 
BRANCH  26  27
ATOM     27  C   UNL     1       5.367  -1.808  -1.034  0.00  0.00    +0.150 C 
ATOM     28  O   UNL     1       5.539  -2.954  -1.372  0.00  0.00    -0.296 OA
BRANCH  27  29
ATOM     29  C   UNL     1       6.535  -0.856  -0.978  0.00  0.00    +0.031 C 
ATOM     30  C   UNL     1       6.284   0.315  -1.930  0.00  0.00    +0.018 C 
ATOM     31  C   UNL     1       7.469   1.281  -1.873  0.00  0.00    -0.010 C 
ATOM     32  C   UNL     1       8.745   0.548  -2.291  0.00  0.00    +0.007 C 
ATOM     33  C   UNL     1       8.996  -0.623  -1.339  0.00  0.00    -0.010 C 
ATOM     34  C   UNL     1       7.811  -1.589  -1.395  0.00  0.00    +0.018 C 
ATOM     35  C   UNL     1       9.155  -0.094   0.088  0.00  0.00    +0.007 C 
ATOM     36  C   UNL     1       7.879   0.639   0.506  0.00  0.00    -0.010 C 
ATOM     37  C   UNL     1       7.628   1.810  -0.447  0.00  0.00    +0.007 C 
ATOM     38  C   UNL     1       6.694  -0.327   0.449  0.00  0.00    +0.018 C 
ENDBRANCH  27  29
ENDBRANCH  26  27
ENDBRANCH  25  26
ENDBRANCH   6  25
TORSDOF 10
