REMARK  Name = ZINC14748493
REMARK  8 active torsions:
REMARK  status: ('A' for Active; 'I' for Inactive)
REMARK    1  A    between atoms: C_1  and  N_2
REMARK    2  A    between atoms: C_10  and  C_11
REMARK    3  A    between atoms: C_10  and  N_62
REMARK    4  A    between atoms: N_21  and  C_24
REMARK    5  A    between atoms: C_24  and  C_25
REMARK    6  A    between atoms: C_25  and  C_26
REMARK    7  A    between atoms: C_29  and  O_32
REMARK    8  A    between atoms: O_32  and  C_33
REMARK                            x       y       z     vdW  Elec       q    Type
REMARK                         _______ _______ _______ _____ _____    ______ ____
ROOT
ATOM      1  C   UNL     1      -4.561   0.767   4.099  0.00  0.00    +0.143 C 
ATOM      2  N   UNL     1      -3.605   0.676   2.993  0.00  0.00    -0.227 N 
ATOM      3  C   UNL     1      -2.935   1.730   2.481  0.00  0.00    +0.246 C 
ATOM      4  O   UNL     1      -3.006   2.887   2.836  0.00  0.00    -0.273 OA
ATOM      5  C   UNL     1      -2.077   1.163   1.374  0.00  0.00    +0.112 C 
ATOM      6  C   UNL     1      -0.599   1.397   1.671  0.00  0.00    +0.017 C 
ATOM      7  C   UNL     1       0.243   0.837   0.521  0.00  0.00    -0.076 C 
ATOM      8  C   UNL     1      -1.554   1.212  -1.063  0.00  0.00    -0.076 C 
ATOM      9  C   UNL     1      -2.457   1.784   0.034  0.00  0.00    +0.017 C 
ATOM     10  N   UNL     1      -2.384  -0.272   1.383  0.00  0.00    -0.271 N 
ATOM     11  C   UNL     1      -3.288  -0.462   2.363  0.00  0.00    +0.312 C 
ATOM     12  O   UNL     1      -3.762  -1.545   2.645  0.00  0.00    -0.252 OA
ATOM     13  N   UNL     1      -0.146   1.519  -0.732  0.00  0.00    +0.383 N 
ATOM     14  H   UNL     1      -0.048   2.533  -0.603  0.00  0.00    -0.081 HD
ENDROOT
BRANCH  13  15
ATOM     15  C   UNL     1       0.737   1.088  -1.836  0.00  0.00    -0.041 C 
BRANCH  15  16
ATOM     16  C   UNL     1       2.124   1.618  -1.581  0.00  0.00    -0.042 A 
ATOM     17  C   UNL     1       3.109   0.772  -1.103  0.00  0.00    +0.052 A 
ATOM     18  C   UNL     1       4.385   1.257  -0.869  0.00  0.00    +0.167 A 
ATOM     19  C   UNL     1       4.674   2.597  -1.115  0.00  0.00    +0.168 A 
ATOM     20  C   UNL     1       3.684   3.439  -1.593  0.00  0.00    +0.069 A 
ATOM     21  C   UNL     1       2.412   2.948  -1.830  0.00  0.00    +0.046 A 
ATOM     22 CL   UNL     1       1.175   4.003  -2.437  0.00  0.00    -0.083 Cl
ATOM     23  O   UNL     1       5.985   2.824  -0.808  0.00  0.00    -0.453 OA
ATOM     24  C   UNL     1       6.386   1.711   0.012  0.00  0.00    +0.466 C 
ATOM     25  O   UNL     1       5.515   0.644  -0.408  0.00  0.00    -0.453 OA
ENDBRANCH  15  16
ENDBRANCH  13  15
BRANCH  10  26
ATOM     26  C   UNL     1      -1.819  -1.296   0.500  0.00  0.00    +0.115 C 
BRANCH  26  27
ATOM     27  C   UNL     1      -0.957  -2.257   1.320  0.00  0.00    +0.054 C 
BRANCH  27  28
ATOM     28  C   UNL     1      -0.281  -3.238   0.397  0.00  0.00    -0.046 A 
ATOM     29  C   UNL     1      -0.902  -4.434   0.086  0.00  0.00    +0.007 A 
ATOM     30  C   UNL     1      -0.287  -5.332  -0.765  0.00  0.00    +0.046 A 
ATOM     31  C   UNL     1       0.960  -5.038  -1.298  0.00  0.00    +0.120 A 
ATOM     32  C   UNL     1       1.583  -3.840  -0.981  0.00  0.00    +0.046 A 
ATOM     33  C   UNL     1       0.961  -2.943  -0.134  0.00  0.00    +0.007 A 
BRANCH  31  34
ATOM     34  O   UNL     1       1.569  -5.922  -2.132  0.00  0.00    -0.495 OA
ATOM     35  C   UNL     1       0.869  -7.135  -2.415  0.00  0.00    +0.277 C 
ENDBRANCH  31  34
ENDBRANCH  27  28
ENDBRANCH  26  27
ENDBRANCH  10  26
TORSDOF 6
