REMARK  Name = ZINC39466615
REMARK  6 active torsions:
REMARK  status: ('A' for Active; 'I' for Inactive)
REMARK    1  A    between atoms: C_1  and  S_2
REMARK    2  A    between atoms: S_2  and  C_3
REMARK    3  A    between atoms: P_12  and  C_28
REMARK    4  A    between atoms: C_20  and  C_21
REMARK    5  A    between atoms: C_21  and  C_22
REMARK    6  A    between atoms: C_28  and  C_29
REMARK                            x       y       z     vdW  Elec       q    Type
REMARK                         _______ _______ _______ _____ _____    ______ ____
ROOT
ATOM      1  C   UNL     1       0.877  -0.427   1.472  0.00  0.00    +0.007 C 
ATOM      2  C   UNL     1       1.334   0.534   2.285  0.00  0.00    -0.008 C 
ATOM      3  C   UNL     1       2.068   0.160   3.544  0.00  0.00    +0.017 C 
ATOM      4  C   UNL     1       1.956   1.273   4.575  0.00  0.00    -0.003 C 
ATOM      5  C   UNL     1       2.098   0.725   6.002  0.00  0.00    -0.020 C 
ATOM      6  C   UNL     1       2.695   1.873   6.829  0.00  0.00    +0.156 C 
ATOM      7  O   UNL     1       2.844   1.476   8.201  0.00  0.00    -0.319 OA
ATOM      8  P   UNL     1       3.613   0.071   8.492  0.00  0.00    +0.262 P 
ATOM      9  O   UNL     1       3.255  -0.445   9.832  0.00  0.00    -0.274 OA
ATOM     10  N   UNL     1       3.075  -0.955   7.319  0.00  0.00    -0.291 NA
ATOM     11  N   UNL     1       2.943  -0.463   6.036  0.00  0.00    +0.397 N 
ATOM     12  C   UNL     1       2.357  -1.587   5.290  0.00  0.00    -0.046 C 
ATOM     13  C   UNL     1       1.464  -1.113   4.135  0.00  0.00    +0.005 C 
ATOM     14  C   UNL     1       1.383  -2.178   3.074  0.00  0.00    -0.020 C 
ATOM     15  C   UNL     1       1.106  -1.843   1.820  0.00  0.00    -0.034 C 
ATOM     16  H   UNL     1       2.865  -1.878   7.528  0.00  0.00    +0.111 HD
ATOM     17  H   UNL     1       3.851  -0.241   5.655  0.00  0.00    -0.055 HD
ENDROOT
BRANCH   1  19
ATOM     18  C   UNL     1      -0.022   1.810   0.012  0.00  0.00    +0.090 C 
ATOM     19  S   UNL     1       0.002  -0.004   0.002  0.00  0.00    -0.129 S 
ENDBRANCH   1  19
BRANCH  15  20
ATOM     20  C   UNL     1       1.031  -2.906   0.754  0.00  0.00    +0.071 C 
BRANCH  20  21
ATOM     21  C   UNL     1      -0.402  -3.335   0.572  0.00  0.00    -0.043 A 
ATOM     22  C   UNL     1      -0.915  -4.374   1.326  0.00  0.00    +0.004 A 
ATOM     23  C   UNL     1      -2.230  -4.766   1.159  0.00  0.00    +0.000 A 
ATOM     24  C   UNL     1      -3.032  -4.120   0.237  0.00  0.00    +0.000 A 
ATOM     25  C   UNL     1      -2.520  -3.080  -0.516  0.00  0.00    +0.000 A 
ATOM     26  C   UNL     1      -1.206  -2.685  -0.346  0.00  0.00    +0.004 A 
ENDBRANCH  20  21
ENDBRANCH  15  20
BRANCH   8  27
ATOM     27  C   UNL     1       5.417   0.298   8.363  0.00  0.00    +0.147 C 
BRANCH  27  28
ATOM     28  C   UNL     1       5.868   1.322   9.372  0.00  0.00    -0.037 A 
ATOM     29  C   UNL     1       5.903   2.661   9.029  0.00  0.00    +0.004 A 
ATOM     30  C   UNL     1       6.317   3.601   9.955  0.00  0.00    +0.000 A 
ATOM     31  C   UNL     1       6.695   3.202  11.223  0.00  0.00    +0.000 A 
ATOM     32  C   UNL     1       6.660   1.863  11.566  0.00  0.00    +0.000 A 
ATOM     33  C   UNL     1       6.242   0.924  10.642  0.00  0.00    +0.004 A 
ENDBRANCH  27  28
ENDBRANCH   8  27
TORSDOF 5
