REMARK  Name = ZINC05557729
REMARK  8 active torsions:
REMARK  status: ('A' for Active; 'I' for Inactive)
REMARK    1  A    between atoms: C_1  and  C_2
REMARK    2  A    between atoms: C_5  and  N_9
REMARK    3  A    between atoms: C_6  and  C_8
REMARK    4  A    between atoms: N_9  and  S_10
REMARK    5  A    between atoms: S_10  and  C_13
REMARK    6  A    between atoms: C_16  and  N_19
REMARK    7  A    between atoms: C_20  and  C_21
REMARK    8  A    between atoms: C_24  and  O_27
REMARK                            x       y       z     vdW  Elec       q    Type
REMARK                         _______ _______ _______ _____ _____    ______ ____
ROOT
ATOM      1  C   UNL     1       2.517  -4.719  -1.127  0.00  0.00    +0.109 A 
ATOM      2  C   UNL     1       3.104  -3.634  -1.754  0.00  0.00    +0.031 A 
ATOM      3  C   UNL     1       4.464  -3.425  -1.647  0.00  0.00    +0.029 A 
ATOM      4  C   UNL     1       5.246  -4.310  -0.902  0.00  0.00    +0.064 A 
ATOM      5  C   UNL     1       4.646  -5.402  -0.271  0.00  0.00    +0.029 A 
ATOM      6  C   UNL     1       3.285  -5.596  -0.383  0.00  0.00    +0.031 A 
ENDROOT
BRANCH   1   7
ATOM      7  S   UNL     1       0.780  -4.979  -1.271  0.00  0.00    +0.072 S 
ATOM      8  O   UNL     1       0.556  -6.363  -1.040  0.00  0.00    -0.150 OA
ATOM      9  O   UNL     1       0.369  -4.331  -2.467  0.00  0.00    -0.150 OA
BRANCH   7  10
ATOM     10  N   UNL     1       0.058  -4.167  -0.021  0.00  0.00    -0.216 N 
ATOM     11  H   UNL     1      -0.470  -4.653   0.632  0.00  0.00    +0.174 HD
BRANCH  10  16
ATOM     12  C   UNL     1       0.671   1.451   0.442  0.00  0.00    +0.044 C 
ATOM     13  C   UNL     1       0.508  -0.042   0.319  0.00  0.00    -0.050 A 
ATOM     14  C   UNL     1       0.416  -0.625  -0.932  0.00  0.00    +0.005 A 
ATOM     15  C   UNL     1       0.267  -1.993  -1.048  0.00  0.00    +0.025 A 
ATOM     16  C   UNL     1       0.209  -2.784   0.093  0.00  0.00    +0.051 A 
ATOM     17  C   UNL     1       0.302  -2.194   1.347  0.00  0.00    -0.028 A 
ATOM     18  C   UNL     1       0.457  -0.826   1.456  0.00  0.00    +0.008 A 
ATOM     19  C   UNL     1       0.239  -3.048   2.588  0.00  0.00    +0.046 C 
ENDBRANCH  10  16
ENDBRANCH   7  10
ENDBRANCH   1   7
BRANCH   4  20
ATOM     20  N   UNL     1       6.596  -4.108  -0.791  0.00  0.00    -0.255 NA
ATOM     21  C   UNL     1       7.178  -4.222   0.369  0.00  0.00    +0.119 C 
BRANCH  21  22
ATOM     22  C   UNL     1       8.629  -4.005   0.488  0.00  0.00    -0.007 A 
ATOM     23  C   UNL     1       9.383  -3.671  -0.641  0.00  0.00    +0.013 A 
ATOM     24  C   UNL     1      10.740  -3.469  -0.525  0.00  0.00    +0.046 A 
ATOM     25  C   UNL     1      11.360  -3.597   0.713  0.00  0.00    +0.117 A 
ATOM     26  C   UNL     1      10.615  -3.929   1.838  0.00  0.00    +0.046 A 
ATOM     27  C   UNL     1       9.257  -4.127   1.733  0.00  0.00    +0.013 A 
BRANCH  25  28
ATOM     28  O   UNL     1      12.699  -3.397   0.823  0.00  0.00    -0.507 OA
ATOM     29  H   UNL     1      12.945  -2.482   1.014  0.00  0.00    +0.292 HD
ENDBRANCH  25  28
ENDBRANCH  21  22
ENDBRANCH   4  20
TORSDOF 6
