REMARK  Name = ZINC66859899
REMARK  6 active torsions:
REMARK  status: ('A' for Active; 'I' for Inactive)
REMARK    1  A    between atoms: C_10  and  C_11
REMARK    2  A    between atoms: C_10  and  O_24
REMARK    3  A    between atoms: C_11  and  N_12
REMARK    4  A    between atoms: N_12  and  C_13
REMARK    5  A    between atoms: C_16  and  C_22
REMARK    6  A    between atoms: C_18  and  N_19
REMARK                            x       y       z     vdW  Elec       q    Type
REMARK                         _______ _______ _______ _____ _____    ______ ____
ROOT
ATOM      1  C   UNL     1       4.730   0.119   0.828  0.00  0.00    +0.141 C 
ENDROOT
BRANCH   1  11
ATOM      2  C   UNL     1       0.089   1.572  -0.196  0.00  0.00    +0.000 A 
ATOM      3  C   UNL     1       1.300   2.240  -0.181  0.00  0.00    +0.000 A 
ATOM      4  C   UNL     1       2.478   1.522  -0.161  0.00  0.00    +0.007 A 
ATOM      5  C   UNL     1       2.458   0.133  -0.155  0.00  0.00    -0.011 A 
ATOM      6  C   UNL     1       1.252  -0.531  -0.166  0.00  0.00    -0.041 A 
ATOM      7  C   UNL     1       0.068   0.193  -0.189  0.00  0.00    +0.004 A 
ATOM      8  C   UNL     1       1.155  -2.034  -0.144  0.00  0.00    +0.035 C 
ATOM      9  C   UNL     1       2.486  -2.665  -0.550  0.00  0.00    +0.008 C 
ATOM     10  C   UNL     1       3.598  -2.038   0.299  0.00  0.00    +0.041 C 
ATOM     11  C   UNL     1       3.781  -0.587  -0.142  0.00  0.00    +0.106 C 
BRANCH  11  12
ATOM     12  O   UNL     1       4.345  -0.561  -1.455  0.00  0.00    -0.382 OA
ATOM     13  H   UNL     1       4.506   0.329  -1.796  0.00  0.00    +0.211 HD
ENDBRANCH  11  12
ENDBRANCH   1  11
BRANCH   1  14
ATOM     14  N   UNL     1       5.979  -0.640   0.929  0.00  0.00    -0.339 N 
ATOM     15  H   UNL     1       6.122  -1.415   0.363  0.00  0.00    +0.146 HD
BRANCH  14  16
ATOM     16  C   UNL     1       6.960  -0.248   1.835  0.00  0.00    +0.058 A 
ATOM     17  C   UNL     1       6.706   0.788   2.729  0.00  0.00    +0.026 A 
ATOM     18  C   UNL     1       7.674   1.177   3.627  0.00  0.00    +0.021 A 
ATOM     19  C   UNL     1       8.914   0.531   3.640  0.00  0.00    +0.054 A 
ATOM     20  C   UNL     1       9.165  -0.509   2.741  0.00  0.00    +0.053 A 
ATOM     21  C   UNL     1       8.191  -0.898   1.849  0.00  0.00    +0.148 A 
BRANCH  21  22
ATOM     22  N   UNL     1       8.455  -2.003   0.901  0.00  0.00    +0.058 N 
ATOM     23  O   UNL     1       9.559  -2.490   0.832  0.00  0.00    -0.126 OA
ATOM     24  O   UNL     1       7.566  -2.418   0.195  0.00  0.00    -0.126 OA
ENDBRANCH  21  22
BRANCH  19  25
ATOM     25  C   UNL     1       9.923   0.934   4.572  0.00  0.00    +0.099 C 
ATOM     26  N   UNL     1      10.724   1.254   5.311  0.00  0.00    -0.191 NA
ENDBRANCH  19  25
ENDBRANCH  14  16
ENDBRANCH   1  14
TORSDOF 6
