REMARK  Name = ZINC63375660
REMARK  8 active torsions:
REMARK  status: ('A' for Active; 'I' for Inactive)
REMARK    1  A    between atoms: C_1  and  C_2
REMARK    2  A    between atoms: C_2  and  O_3
REMARK    3  A    between atoms: O_3  and  C_4
REMARK    4  A    between atoms: C_4  and  C_6
REMARK    5  A    between atoms: C_9  and  N_12
REMARK    6  A    between atoms: C_28  and  C_33
REMARK    7  A    between atoms: C_37  and  O_39
REMARK    8  A    between atoms: O_39  and  C_40
REMARK                            x       y       z     vdW  Elec       q    Type
REMARK                         _______ _______ _______ _____ _____    ______ ____
ROOT
ATOM      1  N   UNL     1       3.410  -3.981  -5.877  0.00  0.00    -0.193 N 
ATOM      2  C   UNL     1       3.669  -5.286  -6.100  0.00  0.00    +0.248 C 
ATOM      3  O   UNL     1       3.427  -6.217  -5.362  0.00  0.00    -0.273 OA
ATOM      4  C   UNL     1       4.324  -5.346  -7.463  0.00  0.00    +0.169 C 
ATOM      5  C   UNL     1       5.720  -5.982  -7.348  0.00  0.00    +0.065 C 
ATOM      6  C   UNL     1       6.513  -5.485  -8.534  0.00  0.00    -0.034 C 
ATOM      7  C   UNL     1       7.179  -6.153  -9.471  0.00  0.00    -0.001 A 
ATOM      8  C   UNL     1       7.464  -7.587  -9.633  0.00  0.00    +0.010 A 
ATOM      9  C   UNL     1       8.172  -7.936 -10.741  0.00  0.00    +0.001 A 
ATOM     10  C   UNL     1       8.618  -7.011 -11.691  0.00  0.00    +0.002 A 
ATOM     11  C   UNL     1       8.408  -5.673 -11.616  0.00  0.00    +0.026 A 
ATOM     12  C   UNL     1       7.682  -5.184 -10.492  0.00  0.00    +0.043 A 
ATOM     13  N   UNL     1       7.358  -3.969 -10.163  0.00  0.00    -0.375 N 
ATOM     14  C   UNL     1       6.663  -4.008  -8.875  0.00  0.00    +0.131 C 
ATOM     15  C   UNL     1       5.245  -3.427  -8.981  0.00  0.00    +0.135 C 
ATOM     16  N   UNL     1       4.473  -3.923  -7.829  0.00  0.00    -0.264 N 
ATOM     17  C   UNL     1       3.842  -3.212  -6.886  0.00  0.00    +0.317 C 
ATOM     18  O   UNL     1       3.682  -2.008  -6.938  0.00  0.00    -0.252 OA
ATOM     19  H   UNL     1       7.545  -3.172 -10.683  0.00  0.00    +0.160 HD
ENDROOT
BRANCH   1  23
ATOM     20  C   UNL     1       1.488  -2.523  -2.478  0.00  0.00    +0.059 A 
ATOM     21  C   UNL     1       2.017  -1.635  -3.419  0.00  0.00    +0.017 A 
ATOM     22  C   UNL     1       2.651  -2.120  -4.540  0.00  0.00    +0.025 A 
ATOM     23  C   UNL     1       2.765  -3.492  -4.738  0.00  0.00    +0.045 A 
ATOM     24  C   UNL     1       2.240  -4.379  -3.804  0.00  0.00    +0.025 A 
ATOM     25  C   UNL     1       1.610  -3.901  -2.676  0.00  0.00    +0.017 A 
BRANCH  20  26
ATOM     26  C   UNL     1       0.808  -2.007  -1.275  0.00  0.00    +0.339 C 
ATOM     27  O   UNL     1       0.353  -2.780  -0.455  0.00  0.00    -0.245 OA
BRANCH  26  28
ATOM     28  O   UNL     1       0.690  -0.678  -1.085  0.00  0.00    -0.461 OA
BRANCH  28  30
ATOM     29  C   UNL     1      -0.015   1.280   0.143  0.00  0.00    +0.048 C 
ATOM     30  C   UNL     1       0.020  -0.249   0.102  0.00  0.00    +0.229 C 
ENDBRANCH  28  30
ENDBRANCH  26  28
ENDBRANCH  20  26
ENDBRANCH   1  23
BRANCH  15  31
ATOM     31  C   UNL     1       4.592  -3.893 -10.256  0.00  0.00    -0.021 A 
ATOM     32  C   UNL     1       4.278  -5.229 -10.424  0.00  0.00    +0.006 A 
ATOM     33  C   UNL     1       3.679  -5.659 -11.593  0.00  0.00    +0.004 A 
ATOM     34  C   UNL     1       3.392  -4.755 -12.597  0.00  0.00    +0.045 A 
ATOM     35  C   UNL     1       3.705  -3.414 -12.431  0.00  0.00    +0.120 A 
ATOM     36  C   UNL     1       4.302  -2.983 -11.255  0.00  0.00    +0.051 A 
BRANCH  35  37
ATOM     37  O   UNL     1       3.424  -2.522 -13.418  0.00  0.00    -0.495 OA
ATOM     38  C   UNL     1       2.805  -3.035 -14.599  0.00  0.00    +0.277 C 
ENDBRANCH  35  37
ENDBRANCH  15  31
TORSDOF 6
