REMARK  Name = ZINC34828402
REMARK  14 active torsions:
REMARK  status: ('A' for Active; 'I' for Inactive)
REMARK    1  A    between atoms: C_1  and  C_2
REMARK    2  A    between atoms: C_2  and  C_3
REMARK    3  A    between atoms: C_3  and  C_5
REMARK    4  A    between atoms: C_3  and  N_6
REMARK    5  A    between atoms: N_6  and  C_7
REMARK    6  A    between atoms: C_7  and  C_8
REMARK    7  A    between atoms: N_10  and  C_11
REMARK    8  A    between atoms: N_10  and  C_19
REMARK    9  A    between atoms: C_11  and  C_12
REMARK   10  A    between atoms: C_19  and  C_20
REMARK   11  A    between atoms: C_21  and  C_25
REMARK   12  A    between atoms: C_26  and  C_28
REMARK   13  A    between atoms: C_28  and  O_29
REMARK   14  A    between atoms: O_29  and  C_30
REMARK                            x       y       z     vdW  Elec       q    Type
REMARK                         _______ _______ _______ _____ _____    ______ ____
ROOT
ATOM      1  C   UNL     1       1.185  -0.386  -4.503  0.00  0.00    +0.234 C 
ATOM      2  O   UNL     1       1.121  -1.587  -4.348  0.00  0.00    -0.274 OA
ATOM      3  N   UNL     1       1.885   0.123  -5.537  0.00  0.00    -0.291 N 
ENDROOT
BRANCH   1   4
ATOM      4  C   UNL     1       0.484   0.537  -3.541  0.00  0.00    +0.204 C 
BRANCH   4   5
ATOM      5  N   UNL     1      -0.077  -0.245  -2.436  0.00  0.00    -0.287 N 
ATOM      6  C   UNL     1      -1.280  -0.839  -2.573  0.00  0.00    +0.254 C 
ATOM      7  O   UNL     1      -1.855  -0.803  -3.640  0.00  0.00    -0.272 OA
BRANCH   5   8
ATOM      8  C   UNL     1       0.668  -0.382  -1.182  0.00  0.00    +0.073 C 
ATOM      9  C   UNL     1       1.032   1.007  -0.652  0.00  0.00    +0.028 C 
BRANCH   8  11
ATOM     10  C   UNL     1       1.583  -2.623  -1.798  0.00  0.00    +0.005 C 
ATOM     11  C   UNL     1       1.948  -1.183  -1.434  0.00  0.00    +0.019 C 
ENDBRANCH   8  11
ENDBRANCH   5   8
BRANCH   6  12
ATOM     12  C   UNL     1      -1.908  -1.547  -1.401  0.00  0.00    +0.324 C 
BRANCH  12  13
ATOM     13  O   UNL     1      -3.219  -1.990  -1.758  0.00  0.00    -0.483 OA
BRANCH  13  14
ATOM     14  C   UNL     1      -3.928  -2.652  -0.807  0.00  0.00    +0.121 A 
ATOM     15  C   UNL     1      -3.376  -2.865   0.448  0.00  0.00    +0.047 A 
ATOM     16  C   UNL     1      -4.098  -3.538   1.414  0.00  0.00    +0.023 A 
ATOM     17  C   UNL     1      -5.371  -4.000   1.131  0.00  0.00    +0.041 A 
ATOM     18  C   UNL     1      -5.924  -3.788  -0.120  0.00  0.00    +0.023 A 
ATOM     19  C   UNL     1      -5.207  -3.110  -1.086  0.00  0.00    +0.047 A 
ATOM     20 CL   UNL     1      -6.277  -4.846   2.347  0.00  0.00    -0.084 Cl
ENDBRANCH  13  14
ENDBRANCH  12  13
ENDBRANCH   6  12
ENDBRANCH   4   5
ENDBRANCH   1   4
BRANCH   3  21
ATOM     21  C   UNL     1       2.567  -0.774  -6.473  0.00  0.00    +0.143 C 
BRANCH  21  22
ATOM     22  C   UNL     1       1.679  -1.026  -7.664  0.00  0.00    -0.030 A 
ATOM     23  C   UNL     1       0.789  -2.084  -7.650  0.00  0.00    +0.008 A 
ATOM     24  C   UNL     1      -0.026  -2.317  -8.742  0.00  0.00    +0.038 A 
ATOM     25  C   UNL     1       0.049  -1.489  -9.850  0.00  0.00    +0.123 A 
ATOM     26  C   UNL     1       0.941  -0.430  -9.862  0.00  0.00    +0.038 A 
ATOM     27  C   UNL     1       1.751  -0.196  -8.767  0.00  0.00    +0.008 A 
ATOM     28  F   UNL     1      -0.747  -1.716 -10.918  0.00  0.00    -0.205 F 
ENDBRANCH  21  22
ENDBRANCH   3  21
BRANCH   3  29
ATOM     29  C   UNL     1       1.962   1.574  -5.724  0.00  0.00    +0.150 C 
BRANCH  29  30
ATOM     30  C   UNL     1       3.224   2.096  -5.086  0.00  0.00    +0.010 A 
ATOM     31  C   UNL     1       4.426   2.354  -5.657  0.00  0.00    -0.039 A 
ATOM     32  C   UNL     1       5.454   2.835  -4.868  0.00  0.00    +0.011 A 
ATOM     33  C   UNL     1       5.229   3.035  -3.546  0.00  0.00    +0.046 A 
ATOM     34  S   UNL     1       3.521   2.543  -3.383  0.00  0.00    -0.100 S 
ATOM     35  C   UNL     1       4.638   2.119  -7.131  0.00  0.00    +0.044 C 
ENDBRANCH  29  30
ENDBRANCH   3  29
TORSDOF 11
