REMARK  Name = ZINC59170461
REMARK  10 active torsions:
REMARK  status: ('A' for Active; 'I' for Inactive)
REMARK    1  A    between atoms: C_1  and  C_2
REMARK    2  A    between atoms: C_2  and  O_3
REMARK    3  A    between atoms: O_3  and  C_4
REMARK    4  A    between atoms: N_12  and  N_13
REMARK    5  A    between atoms: N_13  and  S_14
REMARK    6  A    between atoms: S_14  and  C_17
REMARK    7  A    between atoms: C_20  and  C_23
REMARK    8  A    between atoms: C_24  and  C_26
REMARK    9  A    between atoms: N_28  and  C_29
REMARK   10  A    between atoms: C_34  and  C_35
REMARK                            x       y       z     vdW  Elec       q    Type
REMARK                         _______ _______ _______ _____ _____    ______ ____
ROOT
ATOM      1  C   UNL     1      -2.435  -2.268   0.744  0.00  0.00    +0.163 A 
ATOM      2  C   UNL     1      -1.409  -3.167   0.497  0.00  0.00    +0.049 A 
ATOM      3  C   UNL     1      -1.691  -4.487   0.182  0.00  0.00    +0.004 A 
ATOM      4  C   UNL     1      -2.996  -4.923   0.109  0.00  0.00    +0.012 A 
ATOM      5  C   UNL     1      -4.042  -4.028   0.355  0.00  0.00    +0.022 A 
ATOM      6  C   UNL     1      -3.756  -2.692   0.682  0.00  0.00    +0.179 A 
ATOM      7  O   UNL     1      -4.772  -1.825   0.931  0.00  0.00    -0.434 OA
ATOM      8  C   UNL     1      -5.970  -2.093   0.334  0.00  0.00    +0.225 A 
ATOM      9  N   UNL     1      -6.698  -1.138  -0.171  0.00  0.00    -0.260 N 
ATOM     10  C   UNL     1      -6.415  -3.505   0.276  0.00  0.00    +0.099 A 
ATOM     11  C   UNL     1      -5.440  -4.470   0.280  0.00  0.00    +0.030 A 
ATOM     12  H   UNL     1      -7.507  -1.352  -0.662  0.00  0.00    +0.189 HD
ENDROOT
BRANCH  10  13
ATOM     13  C   UNL     1      -7.843  -3.857   0.207  0.00  0.00    +0.253 C 
ATOM     14  O   UNL     1      -8.683  -2.979   0.137  0.00  0.00    -0.270 OA
ATOM     15  N   UNL     1      -8.220  -5.151   0.220  0.00  0.00    -0.281 N 
ATOM     16  H   UNL     1      -7.557  -5.848   0.342  0.00  0.00    +0.155 HD
BRANCH  15  17
ATOM     17  C   UNL     1      -9.567  -5.488   0.057  0.00  0.00    +0.037 A 
ATOM     18  C   UNL     1     -10.448  -4.580  -0.518  0.00  0.00    +0.023 A 
ATOM     19  C   UNL     1     -11.777  -4.917  -0.677  0.00  0.00    +0.002 A 
ATOM     20  C   UNL     1     -12.233  -6.156  -0.265  0.00  0.00    +0.000 A 
ATOM     21  C   UNL     1     -11.359  -7.062   0.308  0.00  0.00    +0.005 A 
ATOM     22  C   UNL     1     -10.027  -6.733   0.465  0.00  0.00    -0.029 A 
ATOM     23  C   UNL     1      -9.074  -7.723   1.084  0.00  0.00    +0.045 C 
ENDBRANCH  15  17
ENDBRANCH  10  13
BRANCH   9  24
ATOM     24  N   UNL     1      -6.313   0.199  -0.004  0.00  0.00    -0.157 N 
ATOM     25  H   UNL     1      -5.468   0.411   0.423  0.00  0.00    +0.194 HD
BRANCH  24  26
ATOM     26  S   UNL     1      -7.301   1.418  -0.534  0.00  0.00    +0.085 S 
ATOM     27  O   UNL     1      -6.698   2.637  -0.125  0.00  0.00    -0.149 OA
ATOM     28  O   UNL     1      -7.601   1.135  -1.894  0.00  0.00    -0.149 OA
BRANCH  26  29
ATOM     29  C   UNL     1      -8.817   1.283   0.354  0.00  0.00    +0.110 A 
ATOM     30  C   UNL     1      -9.883   0.596  -0.197  0.00  0.00    +0.029 A 
ATOM     31  C   UNL     1     -11.072   0.490   0.500  0.00  0.00    +0.005 A 
ATOM     32  C   UNL     1     -11.195   1.072   1.748  0.00  0.00    -0.050 A 
ATOM     33  C   UNL     1     -10.130   1.758   2.299  0.00  0.00    +0.005 A 
ATOM     34  C   UNL     1      -8.939   1.860   1.604  0.00  0.00    +0.029 A 
ATOM     35  C   UNL     1     -12.492   0.958   2.507  0.00  0.00    +0.044 C 
ENDBRANCH  26  29
ENDBRANCH  24  26
ENDBRANCH   9  24
BRANCH   1  36
ATOM     36  O   UNL     1      -2.148  -0.975   1.052  0.00  0.00    -0.489 OA
BRANCH  36  38
ATOM     37  C   UNL     1      -0.643   0.872   1.457  0.00  0.00    +0.048 C 
ATOM     38  C   UNL     1      -0.767  -0.610   1.098  0.00  0.00    +0.226 C 
ENDBRANCH  36  38
ENDBRANCH   1  36
TORSDOF 7
