REMARK  Name = ZINC13643328
REMARK  9 active torsions:
REMARK  status: ('A' for Active; 'I' for Inactive)
REMARK    1  A    between atoms: C_1  and  C_2
REMARK    2  A    between atoms: C_5  and  C_27
REMARK    3  A    between atoms: C_8  and  C_26
REMARK    4  A    between atoms: C_10  and  C_24
REMARK    5  A    between atoms: C_13  and  C_15
REMARK    6  A    between atoms: C_18  and  O_23
REMARK    7  A    between atoms: C_19  and  O_21
REMARK    8  A    between atoms: O_21  and  C_22
REMARK    9  A    between atoms: C_24  and  O_25
REMARK                            x       y       z     vdW  Elec       q    Type
REMARK                         _______ _______ _______ _____ _____    ______ ____
ROOT
ATOM      1  C   UNL     1      -2.205   1.097  -0.967  0.00  0.00    +0.012 C 
ATOM      2  C   UNL     1      -1.317   1.756   0.091  0.00  0.00    +0.019 C 
ATOM      3  C   UNL     1       0.027   1.093   0.086  0.00  0.00    -0.024 C 
ATOM      4  C   UNL     1       1.158   1.720   0.054  0.00  0.00    -0.070 C 
ATOM      5  C   UNL     1       1.266   3.223  -0.003  0.00  0.00    +0.051 C 
ATOM      6  C   UNL     1      -0.021   3.833   0.572  0.00  0.00    +0.007 C 
ATOM      7  C   UNL     1      -1.203   3.245  -0.206  0.00  0.00    +0.026 C 
ATOM      8  C   UNL     1      -1.038   3.499  -1.699  0.00  0.00    +0.170 C 
ATOM      9  O   UNL     1       0.230   3.038  -2.160  0.00  0.00    -0.371 OA
ATOM     10  C   UNL     1       1.349   3.625  -1.486  0.00  0.00    +0.156 C 
ATOM     11  C   UNL     1       0.006   5.354   0.403  0.00  0.00    +0.009 C 
ATOM     12  C   UNL     1       2.428   0.910   0.073  0.00  0.00    +0.039 C 
ENDROOT
BRANCH  10  13
ATOM     13  C   UNL     1       2.633   3.111  -2.084  0.00  0.00    -0.015 A 
ATOM     14  C   UNL     1       2.661   1.870  -2.694  0.00  0.00    +0.010 A 
ATOM     15  C   UNL     1       3.837   1.394  -3.244  0.00  0.00    +0.049 A 
ATOM     16  C   UNL     1       4.990   2.160  -3.184  0.00  0.00    +0.158 A 
ATOM     17  C   UNL     1       4.961   3.408  -2.570  0.00  0.00    +0.162 A 
ATOM     18  C   UNL     1       3.778   3.882  -2.026  0.00  0.00    +0.055 A 
BRANCH  17  19
ATOM     19  O   UNL     1       6.090   4.163  -2.509  0.00  0.00    -0.491 OA
ATOM     20  C   UNL     1       5.987   5.434  -1.863  0.00  0.00    +0.277 C 
ENDBRANCH  17  19
BRANCH  16  21
ATOM     21  O   UNL     1       6.147   1.692  -3.724  0.00  0.00    -0.503 OA
ATOM     22  H   UNL     1       6.273   1.932  -4.653  0.00  0.00    +0.292 HD
ENDBRANCH  16  21
ENDBRANCH  10  13
BRANCH   7  23
ATOM     23  C   UNL     1      -2.490   3.924   0.268  0.00  0.00    +0.165 C 
BRANCH  23  24
ATOM     24  O   UNL     1      -3.604   3.382  -0.442  0.00  0.00    -0.394 OA
ATOM     25  H   UNL     1      -4.455   3.767  -0.192  0.00  0.00    +0.209 HD
ENDBRANCH  23  24
ENDBRANCH   7  23
TORSDOF 5
