REMARK  Name = ZINC63348496
REMARK  8 active torsions:
REMARK  status: ('A' for Active; 'I' for Inactive)
REMARK    1  A    between atoms: C_1  and  C_2
REMARK    2  A    between atoms: C_2  and  C_3
REMARK    3  A    between atoms: C_2  and  N_12
REMARK    4  A    between atoms: C_5  and  O_10
REMARK    5  A    between atoms: C_8  and  O_9
REMARK    6  A    between atoms: O_10  and  C_11
REMARK    7  A    between atoms: N_12  and  C_13
REMARK    8  A    between atoms: C_16  and  N_20
REMARK                            x       y       z     vdW  Elec       q    Type
REMARK                         _______ _______ _______ _____ _____    ______ ____
ROOT
ATOM      1  C   UNL     1      -0.083   1.524   0.018  0.00  0.00    +0.033 C 
ATOM      2  C   UNL     1       0.002  -0.004   0.002  0.00  0.00    +0.101 C 
ENDROOT
BRANCH   2   3
ATOM      3  C   UNL     1       0.867  -0.447  -1.150  0.00  0.00    +0.017 A 
ATOM      4  C   UNL     1       2.218  -0.658  -0.958  0.00  0.00    +0.054 A 
ATOM      5  C   UNL     1       3.014  -1.066  -2.018  0.00  0.00    +0.121 A 
ATOM      6  C   UNL     1       2.453  -1.262  -3.271  0.00  0.00    +0.049 A 
ATOM      7  C   UNL     1       1.101  -1.051  -3.463  0.00  0.00    +0.049 A 
ATOM      8  C   UNL     1       0.304  -0.648  -2.402  0.00  0.00    +0.122 A 
BRANCH   8   9
ATOM      9  O   UNL     1      -1.027  -0.446  -2.589  0.00  0.00    -0.506 OA
ATOM     10  H   UNL     1      -1.255   0.457  -2.850  0.00  0.00    +0.292 HD
ENDBRANCH   8   9
BRANCH   5  11
ATOM     11  O   UNL     1       4.345  -1.273  -1.829  0.00  0.00    -0.495 OA
ATOM     12  C   UNL     1       5.104  -1.693  -2.965  0.00  0.00    +0.277 C 
ENDBRANCH   5  11
ENDBRANCH   2   3
BRANCH   2  13
ATOM     13  N   UNL     1       0.587  -0.473   1.260  0.00  0.00    -0.335 N 
ATOM     14  H   UNL     1       1.540  -0.645   1.318  0.00  0.00    +0.147 HD
BRANCH  13  15
ATOM     15  C   UNL     1      -0.228  -0.674   2.379  0.00  0.00    +0.063 A 
ATOM     16  C   UNL     1      -1.593  -0.435   2.296  0.00  0.00    +0.028 A 
ATOM     17  C   UNL     1      -2.396  -0.635   3.403  0.00  0.00    +0.035 A 
ATOM     18  C   UNL     1      -1.843  -1.073   4.592  0.00  0.00    +0.129 A 
ATOM     19  C   UNL     1      -0.483  -1.312   4.679  0.00  0.00    +0.073 A 
ATOM     20  C   UNL     1       0.326  -1.120   3.574  0.00  0.00    +0.146 A 
ATOM     21  F   UNL     1       1.653  -1.359   3.657  0.00  0.00    -0.203 F 
BRANCH  18  22
ATOM     22  N   UNL     1      -2.707  -1.286   5.774  0.00  0.00    +0.057 N 
ATOM     23  O   UNL     1      -3.895  -1.077   5.700  0.00  0.00    -0.126 OA
ATOM     24  O   UNL     1      -2.224  -1.669   6.815  0.00  0.00    -0.126 OA
ENDBRANCH  18  22
ENDBRANCH  13  15
ENDBRANCH   2  13
TORSDOF 6
