REMARK  Name = ZINC16955713
REMARK  1 active torsions:
REMARK  status: ('A' for Active; 'I' for Inactive)
REMARK    1  A    between atoms: C_4  and  C_7
REMARK                            x       y       z     vdW  Elec       q    Type
REMARK                         _______ _______ _______ _____ _____    ______ ____
ROOT
ATOM      1  C   UNL     1       3.711  -0.707  -0.038  0.00  0.00    +0.149 C 
ATOM      2  C   UNL     1       3.791  -1.587  -1.288  0.00  0.00    +0.128 C 
ATOM      3  C   UNL     1       2.945  -2.821  -1.139  0.00  0.00    +0.222 C 
ATOM      4  O   UNL     1       2.368  -3.263  -2.110  0.00  0.00    -0.275 OA
ATOM      5  N   UNL     1       2.812  -3.450   0.050  0.00  0.00    -0.255 N 
ATOM      6  C   UNL     1       3.384  -2.850   1.166  0.00  0.00    +0.222 A 
ATOM      7  N   UNL     1       3.812  -1.559   1.146  0.00  0.00    -0.223 N 
ATOM      8  N   UNL     1       4.323  -1.281   2.411  0.00  0.00    -0.131 NA
ATOM      9  C   UNL     1       4.188  -2.379   3.122  0.00  0.00    +0.251 A 
ATOM     10  N   UNL     1       3.616  -3.331   2.356  0.00  0.00    -0.179 NA
ATOM     11  N   UNL     1       4.578  -2.534   4.459  0.00  0.00    -0.176 N 
ATOM     12  C   UNL     1       5.148  -1.540   5.192  0.00  0.00    +0.232 C 
ATOM     13  O   UNL     1       5.207  -0.364   4.904  0.00  0.00    -0.274 OA
ATOM     14  C   UNL     1       5.688  -2.193   6.424  0.00  0.00    +0.088 C 
ATOM     15  C   UNL     1       5.694  -1.427   7.729  0.00  0.00    +0.013 C 
ATOM     16  C   UNL     1       6.268  -2.389   8.790  0.00  0.00    +0.001 C 
ATOM     17  C   UNL     1       5.456  -3.676   8.886  0.00  0.00    +0.001 C 
ATOM     18  C   UNL     1       5.286  -4.358   7.516  0.00  0.00    +0.013 C 
ATOM     19  C   UNL     1       4.662  -3.353   6.588  0.00  0.00    +0.088 C 
ATOM     20  C   UNL     1       4.417  -3.693   5.154  0.00  0.00    +0.232 C 
ATOM     21  O   UNL     1       4.136  -4.782   4.701  0.00  0.00    -0.274 OA
ATOM     22  H   UNL     1       2.334  -4.290   0.122  0.00  0.00    +0.158 HD
ENDROOT
BRANCH   1  26
ATOM     23  C   UNL     1      -0.017   1.378   0.010  0.00  0.00    +0.000 A 
ATOM     24  C   UNL     1       1.171   2.086   0.002  0.00  0.00    +0.000 A 
ATOM     25  C   UNL     1       2.377   1.411  -0.013  0.00  0.00    +0.006 A 
ATOM     26  C   UNL     1       2.396   0.029  -0.020  0.00  0.00    -0.023 A 
ATOM     27  C   UNL     1       1.208  -0.679  -0.012  0.00  0.00    +0.006 A 
ATOM     28  C   UNL     1       0.002  -0.004   0.002  0.00  0.00    +0.000 A 
ENDBRANCH   1  26
TORSDOF 1
