REMARK  Name = ZINC17078238
REMARK  4 active torsions:
REMARK  status: ('A' for Active; 'I' for Inactive)
REMARK    1  A    between atoms: C_5  and  C_6
REMARK    2  A    between atoms: N_8  and  N_9
REMARK    3  A    between atoms: C_10  and  C_12
REMARK    4  A    between atoms: C_20  and  C_22
REMARK                            x       y       z     vdW  Elec       q    Type
REMARK                         _______ _______ _______ _____ _____    ______ ____
ROOT
ATOM      1  N   UNL     1      -3.533  -1.188   0.029  0.00  0.00    -0.234 N 
ATOM      2  C   UNL     1      -4.771  -0.656   0.043  0.00  0.00    +0.234 C 
ATOM      3  O   UNL     1      -4.914   0.548   0.052  0.00  0.00    -0.274 OA
ATOM      4  H   UNL     1      -3.419  -2.151   0.022  0.00  0.00    +0.173 HD
ENDROOT
BRANCH   2   5
ATOM      5  C   UNL     1      -5.978  -1.558   0.050  0.00  0.00    +0.098 C 
ATOM      6  C   UNL     1      -5.942  -2.452   1.296  0.00  0.00    +0.024 C 
ATOM      7  C   UNL     1      -5.939  -1.549   2.537  0.00  0.00    +0.009 C 
ATOM      8  C   UNL     1      -7.211  -0.698   2.554  0.00  0.00    +0.009 C 
ATOM      9  C   UNL     1      -8.067  -1.030   1.324  0.00  0.00    +0.026 C 
ATOM     10  C   UNL     1      -7.250  -0.707   0.067  0.00  0.00    +0.121 C 
ATOM     11  C   UNL     1      -8.332  -2.528   1.336  0.00  0.00    -0.027 C 
ATOM     12  C   UNL     1      -7.226  -3.268   1.321  0.00  0.00    -0.027 C 
BRANCH  10  13
ATOM     13  C   UNL     1      -8.074  -1.010  -1.159  0.00  0.00    +0.360 C 
ATOM     14  O   UNL     1      -7.683  -1.823  -1.963  0.00  0.00    -0.246 OA
ATOM     15  O   UNL     1      -9.241  -0.377  -1.357  0.00  0.00    -0.246 OA
ENDBRANCH  10  13
ENDBRANCH   2   5
BRANCH   1  18
ATOM     16  C   UNL     1      -1.172  -0.881   0.008  0.00  0.00    +0.295 C 
ATOM     17  O   UNL     1      -1.029  -2.090  -0.000  0.00  0.00    -0.265 OA
ATOM     18  N   UNL     1      -2.410  -0.349   0.023  0.00  0.00    -0.228 N 
ATOM     19  H   UNL     1      -2.525   0.614   0.029  0.00  0.00    +0.173 HD
BRANCH  16  24
ATOM     20  C   UNL     1       1.306  -0.409  -0.013  0.00  0.00    +0.056 A 
ATOM     21  C   UNL     1       2.091   0.754  -0.014  0.00  0.00    +0.058 A 
ATOM     22  C   UNL     1       1.241   1.807  -0.000  0.00  0.00    +0.171 A 
ATOM     23  O   UNL     1      -0.016   1.345   0.009  0.00  0.00    -0.444 OA
ATOM     24  C   UNL     1       0.002  -0.004   0.002  0.00  0.00    +0.192 A 
ATOM     25 BR   UNL     1       1.746   3.629   0.004  0.00  0.00    -0.008 Br
ENDBRANCH  16  24
ENDBRANCH   1  18
TORSDOF 4
