REMARK  Name = ZINC39834961
REMARK  7 active torsions:
REMARK  status: ('A' for Active; 'I' for Inactive)
REMARK    1  A    between atoms: C_1  and  C_2
REMARK    2  A    between atoms: C_5  and  N_8
REMARK    3  A    between atoms: N_10  and  C_29
REMARK    4  A    between atoms: C_11  and  C_14
REMARK    5  A    between atoms: C_17  and  S_20
REMARK    6  A    between atoms: S_20  and  N_23
REMARK    7  A    between atoms: C_29  and  C_30
REMARK                            x       y       z     vdW  Elec       q    Type
REMARK                         _______ _______ _______ _____ _____    ______ ____
ROOT
ATOM      1  N   UNL     1       0.370  -3.996   0.061  0.00  0.00    -0.295 N 
ATOM      2  C   UNL     1       0.272  -4.767   1.210  0.00  0.00    +0.143 A 
ATOM      3  N   UNL     1      -0.265  -5.962   1.370  0.00  0.00    -0.320 N 
ATOM      4  C   UNL     1      -0.271  -6.561   2.558  0.00  0.00    +0.058 A 
ATOM      5  C   UNL     1       0.289  -5.924   3.630  0.00  0.00    +0.074 A 
ATOM      6  S   UNL     1       0.845  -4.407   2.864  0.00  0.00    -0.062 S 
ATOM      7  H   UNL     1      -0.083  -4.275  -0.750  0.00  0.00    +0.154 HD
ENDROOT
BRANCH   1  12
ATOM      8  C   UNL     1       3.422   0.784   0.105  0.00  0.00    +0.044 C 
ATOM      9  C   UNL     1       2.611  -0.486   0.093  0.00  0.00    -0.050 A 
ATOM     10  C   UNL     1       2.942  -1.523   0.947  0.00  0.00    +0.005 A 
ATOM     11  C   UNL     1       2.200  -2.689   0.939  0.00  0.00    +0.023 A 
ATOM     12  C   UNL     1       1.122  -2.818   0.072  0.00  0.00    +0.033 A 
ATOM     13  C   UNL     1       0.793  -1.774  -0.783  0.00  0.00    +0.023 A 
ATOM     14  C   UNL     1       1.535  -0.610  -0.766  0.00  0.00    +0.005 A 
ENDBRANCH   1  12
BRANCH   4  15
ATOM     15  C   UNL     1      -0.879  -7.904   2.719  0.00  0.00    -0.001 A 
ATOM     16  C   UNL     1      -0.799  -8.836   1.686  0.00  0.00    +0.012 A 
ATOM     17  C   UNL     1      -1.366 -10.084   1.840  0.00  0.00    +0.029 A 
ATOM     18  C   UNL     1      -2.015 -10.411   3.018  0.00  0.00    +0.106 A 
ATOM     19  C   UNL     1      -2.099  -9.489   4.046  0.00  0.00    +0.029 A 
ATOM     20  C   UNL     1      -1.530  -8.240   3.905  0.00  0.00    +0.012 A 
BRANCH  18  21
ATOM     21  S   UNL     1      -2.738 -12.006   3.208  0.00  0.00    +0.061 S 
ATOM     22  O   UNL     1      -3.759 -11.875   4.188  0.00  0.00    -0.153 OA
ATOM     23  O   UNL     1      -2.998 -12.493   1.898  0.00  0.00    -0.153 OA
BRANCH  21  24
ATOM     24  N   UNL     1      -1.580 -12.994   3.859  0.00  0.00    -0.172 NA
ATOM     25  C   UNL     1      -0.661 -13.754   2.997  0.00  0.00    +0.137 C 
ATOM     26  C   UNL     1       0.773 -13.502   3.477  0.00  0.00    +0.177 C 
ATOM     27  O   UNL     1       0.853 -13.767   4.880  0.00  0.00    -0.377 OA
ATOM     28  C   UNL     1       0.033 -12.915   5.684  0.00  0.00    +0.177 C 
ATOM     29  C   UNL     1      -1.435 -13.133   5.317  0.00  0.00    +0.137 C 
ENDBRANCH  21  24
ENDBRANCH  18  21
ENDBRANCH   4  15
BRANCH   3  30
ATOM     30  C   UNL     1      -0.865  -6.642   0.219  0.00  0.00    +0.155 C 
BRANCH  30  31
ATOM     31  C   UNL     1       0.204  -6.873  -0.851  0.00  0.00    +0.138 C 
ATOM     32  C   UNL     1      -0.443  -7.479  -2.115  0.00  0.00    +0.035 C 
ATOM     33  C   UNL     1       0.625  -8.512  -2.569  0.00  0.00    +0.031 C 
ATOM     34  C   UNL     1       1.179  -8.982  -1.201  0.00  0.00    +0.160 C 
ATOM     35  O   UNL     1       1.178  -7.807  -0.371  0.00  0.00    -0.375 OA
ENDBRANCH  30  31
ENDBRANCH   3  30
TORSDOF 6
