REMARK  Name = ZINC09045635
REMARK  4 active torsions:
REMARK  status: ('A' for Active; 'I' for Inactive)
REMARK    1  A    between atoms: C_4  and  C_7
REMARK    2  A    between atoms: C_7  and  C_8
REMARK    3  A    between atoms: N_16  and  C_19
REMARK    4  A    between atoms: C_19  and  C_20
REMARK                            x       y       z     vdW  Elec       q    Type
REMARK                         _______ _______ _______ _____ _____    ______ ____
ROOT
ATOM      1  C   UNL     1      -7.668   0.485   0.077  0.00  0.00    -0.053 C 
ATOM      2  C   UNL     1      -6.559   1.493   0.444  0.00  0.00    +0.073 C 
ATOM      3  C   UNL     1      -6.653   2.603  -0.639  0.00  0.00    +0.088 C 
ATOM      4  C   UNL     1      -5.337   2.484  -1.374  0.00  0.00    +0.225 C 
ATOM      5  O   UNL     1      -4.988   3.180  -2.303  0.00  0.00    -0.275 OA
ATOM      6  N   UNL     1      -4.617   1.492  -0.839  0.00  0.00    -0.239 N 
ATOM      7  C   UNL     1      -5.210   0.862   0.182  0.00  0.00    +0.224 C 
ATOM      8  O   UNL     1      -4.739  -0.067   0.801  0.00  0.00    -0.275 OA
ATOM      9  C   UNL     1      -7.796   2.151  -1.556  0.00  0.00    +0.050 C 
ATOM     10  C   UNL     1      -9.083   2.847  -1.219  0.00  0.00    -0.028 A 
ATOM     11  C   UNL     1      -9.855   2.914  -0.080  0.00  0.00    +0.004 A 
ATOM     12  C   UNL     1     -11.021   3.659  -0.077  0.00  0.00    +0.000 A 
ATOM     13  C   UNL     1     -11.410   4.335  -1.219  0.00  0.00    +0.002 A 
ATOM     14  C   UNL     1     -10.640   4.271  -2.361  0.00  0.00    +0.023 A 
ATOM     15  C   UNL     1      -9.465   3.523  -2.374  0.00  0.00    +0.036 A 
ATOM     16  N   UNL     1      -8.532   3.305  -3.391  0.00  0.00    -0.286 N 
ATOM     17  C   UNL     1      -7.522   2.508  -2.992  0.00  0.00    +0.211 C 
ATOM     18  O   UNL     1      -6.575   2.150  -3.659  0.00  0.00    -0.277 OA
ATOM     19  H   UNL     1      -8.604   3.683  -4.281  0.00  0.00    +0.155 HD
ATOM     20  N   UNL     1      -7.899   0.717  -1.351  0.00  0.00    +0.394 N 
ATOM     21  H   UNL     1      -8.834   0.386  -1.617  0.00  0.00    -0.083 HD
ATOM     22  H   UNL     1      -7.191   0.226  -1.909  0.00  0.00    -0.083 HD
ENDROOT
BRANCH   1  23
ATOM     23  C   UNL     1      -7.196  -0.946   0.341  0.00  0.00    +0.020 C 
BRANCH  23  27
ATOM     24  C   UNL     1     -10.352  -3.678  -0.566  0.00  0.00    +0.000 A 
ATOM     25  C   UNL     1      -9.449  -3.314  -1.548  0.00  0.00    +0.000 A 
ATOM     26  C   UNL     1      -8.428  -2.430  -1.254  0.00  0.00    +0.003 A 
ATOM     27  C   UNL     1      -8.309  -1.910   0.021  0.00  0.00    -0.049 A 
ATOM     28  C   UNL     1      -9.209  -2.278   1.004  0.00  0.00    +0.003 A 
ATOM     29  C   UNL     1     -10.233  -3.159   0.709  0.00  0.00    +0.000 A 
ENDBRANCH  23  27
ENDBRANCH   1  23
BRANCH   6  30
ATOM     30  C   UNL     1      -3.289   1.120  -1.334  0.00  0.00    +0.148 C 
BRANCH  30  31
ATOM     31  C   UNL     1      -2.223   1.924  -0.587  0.00  0.00    +0.136 C 
ATOM     32  C   UNL     1      -0.833   1.634  -1.185  0.00  0.00    +0.035 C 
ATOM     33  C   UNL     1      -0.013   1.086   0.008  0.00  0.00    +0.031 C 
ATOM     34  C   UNL     1      -0.810   1.621   1.224  0.00  0.00    +0.160 C 
ATOM     35  O   UNL     1      -2.186   1.524   0.793  0.00  0.00    -0.375 OA
ENDBRANCH  30  31
ENDBRANCH   6  30
TORSDOF 4
