REMARK  Name = ZINC58903580
REMARK  5 active torsions:
REMARK  status: ('A' for Active; 'I' for Inactive)
REMARK    1  A    between atoms: C_1  and  C_2
REMARK    2  A    between atoms: N_5  and  C_7
REMARK    3  A    between atoms: C_14  and  N_31
REMARK    4  A    between atoms: C_15  and  C_28
REMARK    5  A    between atoms: C_16  and  C_18
REMARK                            x       y       z     vdW  Elec       q    Type
REMARK                         _______ _______ _______ _____ _____    ______ ____
ROOT
ATOM      1  C   UNL     1       0.514   1.530  -0.093  0.00  0.00    +0.068 C 
ATOM      2  C   UNL     1       0.295   0.039  -0.055  0.00  0.00    +0.068 A 
ATOM      3  C   UNL     1       0.169  -0.793  -1.159  0.00  0.00    +0.049 A 
ATOM      4  C   UNL     1      -0.018  -2.070  -0.708  0.00  0.00    +0.230 A 
ATOM      5  N   UNL     1      -0.007  -2.030   0.642  0.00  0.00    -0.200 N 
ATOM      6  N   UNL     1       0.195  -0.696   1.028  0.00  0.00    -0.168 NA
ATOM      7  O   UNL     1      -0.179  -3.127  -1.543  0.00  0.00    -0.423 OA
ATOM      8  C   UNL     1      -0.426  -2.863  -2.842  0.00  0.00    +0.195 C 
ATOM      9  C   UNL     1      -0.266  -1.644  -3.407  0.00  0.00    +0.083 C 
ATOM     10  C   UNL     1       0.216  -0.448  -2.625  0.00  0.00    +0.096 C 
ENDROOT
BRANCH  10  11
ATOM     11  C   UNL     1       1.631  -0.117  -3.024  0.00  0.00    -0.034 A 
ATOM     12  C   UNL     1       2.629  -1.078  -2.875  0.00  0.00    +0.005 A 
ATOM     13  C   UNL     1       3.916  -0.811  -3.225  0.00  0.00    +0.009 A 
ATOM     14  C   UNL     1       4.248   0.452  -3.747  0.00  0.00    -0.018 A 
ATOM     15  C   UNL     1       5.566   0.764  -4.120  0.00  0.00    +0.008 A 
ATOM     16  C   UNL     1       5.850   1.997  -4.621  0.00  0.00    +0.001 A 
ATOM     17  C   UNL     1       4.852   2.958  -4.771  0.00  0.00    +0.001 A 
ATOM     18  C   UNL     1       3.564   2.691  -4.420  0.00  0.00    +0.008 A 
ATOM     19  C   UNL     1       3.233   1.429  -3.898  0.00  0.00    -0.018 A 
ATOM     20  C   UNL     1       1.913   1.115  -3.530  0.00  0.00    +0.013 A 
ENDBRANCH  10  11
BRANCH   5  21
ATOM     21  C   UNL     1      -0.166  -3.125   1.503  0.00  0.00    +0.069 A 
ATOM     22  C   UNL     1      -1.012  -4.168   1.154  0.00  0.00    +0.028 A 
ATOM     23  C   UNL     1      -1.166  -5.246   2.004  0.00  0.00    +0.002 A 
ATOM     24  C   UNL     1      -0.477  -5.286   3.202  0.00  0.00    +0.000 A 
ATOM     25  C   UNL     1       0.367  -4.249   3.553  0.00  0.00    +0.002 A 
ATOM     26  C   UNL     1       0.529  -3.171   2.704  0.00  0.00    +0.028 A 
ENDBRANCH   5  21
BRANCH   9  27
ATOM     27  C   UNL     1      -0.558  -1.487  -4.772  0.00  0.00    +0.243 C 
ATOM     28  O   UNL     1      -1.613  -0.980  -5.114  0.00  0.00    -0.271 OA
ATOM     29  N   UNL     1       0.326  -1.897  -5.702  0.00  0.00    -0.325 N 
ATOM     30  H   UNL     1       1.165  -2.301  -5.430  0.00  0.00    +0.145 HD
ATOM     31  H   UNL     1       0.124  -1.789  -6.645  0.00  0.00    +0.145 HD
ENDBRANCH   9  27
BRANCH   8  32
ATOM     32  N   UNL     1      -0.865  -3.890  -3.636  0.00  0.00    -0.329 N 
ATOM     33  H   UNL     1      -0.906  -4.793  -3.283  0.00  0.00    +0.145 HD
ATOM     34  H   UNL     1      -1.135  -3.714  -4.551  0.00  0.00    +0.145 HD
ENDBRANCH   8  32
TORSDOF 4
