REMARK  Name = ZINC12275478
REMARK  11 active torsions:
REMARK  status: ('A' for Active; 'I' for Inactive)
REMARK    1  A    between atoms: C_1  and  C_2
REMARK    2  A    between atoms: C_2  and  O_3
REMARK    3  A    between atoms: O_3  and  C_4
REMARK    4  A    between atoms: C_7  and  C_10
REMARK    5  A    between atoms: C_10  and  O_33
REMARK    6  A    between atoms: C_14  and  C_31
REMARK    7  A    between atoms: C_15  and  C_21
REMARK    8  A    between atoms: C_24  and  O_27
REMARK    9  A    between atoms: O_27  and  C_28
REMARK   10  A    between atoms: C_28  and  C_29
REMARK   11  A    between atoms: C_28  and  C_30
REMARK                            x       y       z     vdW  Elec       q    Type
REMARK                         _______ _______ _______ _____ _____    ______ ____
ROOT
ATOM      1  C   UNL     1      -0.457   3.042  -0.563  0.00  0.00    +0.175 C 
ATOM      2  C   UNL     1      -0.692   1.523  -0.633  0.00  0.00    +0.136 C 
ATOM      3  S   UNL     1       1.019   0.885  -0.473  0.00  0.00    -0.104 S 
ATOM      4  C   UNL     1       1.886   2.423  -0.341  0.00  0.00    +0.087 C 
ATOM      5  C   UNL     1       3.212   2.623  -0.138  0.00  0.00    +0.065 C 
ATOM      6  C   UNL     1       3.708   4.043   0.016  0.00  0.00    +0.070 C 
ATOM      7  C   UNL     1       2.830   5.000  -0.784  0.00  0.00    +0.110 C 
ATOM      8  C   UNL     1       1.368   4.727  -0.556  0.00  0.00    +0.224 C 
ATOM      9  O   UNL     1       0.582   5.643  -0.440  0.00  0.00    -0.275 OA
ATOM     10  N   UNL     1       0.940   3.429  -0.481  0.00  0.00    -0.231 N 
ENDROOT
BRANCH   1  14
ATOM     11  C   UNL     1      -2.492   4.573   2.869  0.00  0.00    +0.121 A 
ATOM     12  C   UNL     1      -3.166   4.439   1.664  0.00  0.00    +0.046 A 
ATOM     13  C   UNL     1      -2.506   3.943   0.556  0.00  0.00    +0.012 A 
ATOM     14  C   UNL     1      -1.174   3.582   0.647  0.00  0.00    +0.004 A 
ATOM     15  C   UNL     1      -0.502   3.709   1.849  0.00  0.00    +0.012 A 
ATOM     16  C   UNL     1      -1.156   4.210   2.958  0.00  0.00    +0.046 A 
BRANCH  11  17
ATOM     17  O   UNL     1      -3.139   5.060   3.960  0.00  0.00    -0.492 OA
BRANCH  17  19
ATOM     18  C   UNL     1      -3.273   5.734   6.277  0.00  0.00    +0.048 C 
ATOM     19  C   UNL     1      -2.382   5.171   5.167  0.00  0.00    +0.225 C 
ENDBRANCH  17  19
ENDBRANCH  11  17
ENDBRANCH   1  14
BRANCH   6  20
ATOM     20  C   UNL     1       5.127   4.132  -0.483  0.00  0.00    -0.039 A 
ATOM     21  C   UNL     1       5.416   3.826  -1.800  0.00  0.00    +0.008 A 
ATOM     22  C   UNL     1       6.715   3.913  -2.261  0.00  0.00    +0.046 A 
ATOM     23  C   UNL     1       7.732   4.296  -1.399  0.00  0.00    +0.121 A 
ATOM     24  C   UNL     1       7.440   4.597  -0.077  0.00  0.00    +0.046 A 
ATOM     25  C   UNL     1       6.138   4.515   0.378  0.00  0.00    +0.008 A 
BRANCH  23  26
ATOM     26  O   UNL     1       9.012   4.376  -1.849  0.00  0.00    -0.489 OA
BRANCH  26  27
ATOM     27  C   UNL     1       9.258   3.939  -3.187  0.00  0.00    +0.167 C 
ATOM     28  C   UNL     1       8.967   5.084  -4.159  0.00  0.00    +0.051 C 
ATOM     29  C   UNL     1      10.721   3.513  -3.324  0.00  0.00    +0.051 C 
ENDBRANCH  26  27
ENDBRANCH  23  26
ENDBRANCH   6  20
BRANCH   5  30
ATOM     30  C   UNL     1       4.119   1.518  -0.072  0.00  0.00    +0.098 C 
ATOM     31  N   UNL     1       4.839   0.640  -0.020  0.00  0.00    -0.191 NA
ENDBRANCH   5  30
BRANCH   1  32
ATOM     32  O   UNL     1      -1.026   3.644  -1.727  0.00  0.00    -0.366 OA
ATOM     33  H   UNL     1      -1.982   3.517  -1.808  0.00  0.00    +0.212 HD
ENDBRANCH   1  32
TORSDOF 8
