REMARK  Name = ZINC63698175
REMARK  7 active torsions:
REMARK  status: ('A' for Active; 'I' for Inactive)
REMARK    1  A    between atoms: C_1  and  C_2
REMARK    2  A    between atoms: C_2  and  C_3
REMARK    3  A    between atoms: C_8  and  O_9
REMARK    4  A    between atoms: C_11  and  C_26
REMARK    5  A    between atoms: C_13  and  C_17
REMARK    6  A    between atoms: C_26  and  C_27
REMARK    7  A    between atoms: C_27  and  C_28
REMARK                            x       y       z     vdW  Elec       q    Type
REMARK                         _______ _______ _______ _____ _____    ______ ____
ROOT
ATOM      1  C   UNL     1      -1.319  -0.571  -0.022  0.00  0.00    -0.005 A 
ATOM      2  C   UNL     1      -1.948  -0.927  -1.181  0.00  0.00    +0.022 A 
ATOM      3  C   UNL     1      -3.259  -1.409  -1.140  0.00  0.00    +0.060 A 
ATOM      4  C   UNL     1      -3.934  -1.525   0.088  0.00  0.00    +0.135 A 
ATOM      5  C   UNL     1      -3.281  -1.163   1.254  0.00  0.00    +0.092 A 
ATOM      6  C   UNL     1      -1.976  -0.693   1.199  0.00  0.00    +0.124 A 
ATOM      7  O   UNL     1      -5.209  -1.978   0.138  0.00  0.00    -0.487 OA
ATOM      8  C   UNL     1      -5.696  -2.775  -0.941  0.00  0.00    +0.188 C 
ATOM      9  C   UNL     1      -5.448  -2.042  -2.267  0.00  0.00    +0.143 C 
ATOM     10  C   UNL     1      -3.952  -1.804  -2.376  0.00  0.00    +0.177 C 
ATOM     11  O   UNL     1      -3.360  -1.933  -3.427  0.00  0.00    -0.291 OA
ENDROOT
BRANCH   9  12
ATOM     12  C   UNL     1      -6.191  -0.705  -2.271  0.00  0.00    +0.188 C 
ATOM     13  N   UNL     1      -5.950   0.003  -3.535  0.00  0.00    -0.363 N 
ATOM     14  C   UNL     1      -5.369   1.131  -3.246  0.00  0.00    +0.060 A 
ATOM     15  C   UNL     1      -4.889   2.248  -4.072  0.00  0.00    +0.027 A 
ATOM     16  C   UNL     1      -4.313   3.314  -3.479  0.00  0.00    +0.002 A 
ATOM     17  C   UNL     1      -4.147   3.409  -2.086  0.00  0.00    +0.002 A 
ATOM     18  C   UNL     1      -4.551   2.442  -1.238  0.00  0.00    +0.027 A 
ATOM     19  C   UNL     1      -5.194   1.233  -1.771  0.00  0.00    +0.060 A 
ATOM     20  N   UNL     1      -5.673   0.163  -1.205  0.00  0.00    -0.363 N 
ATOM     21  H   UNL     1      -6.181  -0.313  -4.422  0.00  0.00    +0.162 HD
ATOM     22  H   UNL     1      -5.686  -0.026  -0.254  0.00  0.00    +0.162 HD
ENDBRANCH   9  12
BRANCH   1  24
ATOM     23  C   UNL     1       0.079   1.477   0.037  0.00  0.00    +0.009 C 
ATOM     24  C   UNL     1       0.095  -0.050  -0.065  0.00  0.00    +0.035 C 
ENDBRANCH   1  24
BRANCH   6  25
ATOM     25  O   UNL     1      -1.338  -0.344   2.344  0.00  0.00    -0.506 OA
ATOM     26  H   UNL     1      -1.458   0.582   2.595  0.00  0.00    +0.292 HD
ENDBRANCH   6  25
BRANCH   8  27
ATOM     27  C   UNL     1      -7.197  -3.013  -0.762  0.00  0.00    +0.056 C 
BRANCH  27  28
ATOM     28  C   UNL     1      -7.433  -3.858   0.492  0.00  0.00    +0.129 C 
BRANCH  28  29
ATOM     29  C   UNL     1      -8.911  -4.093   0.668  0.00  0.00    +0.356 C 
ATOM     30  O   UNL     1      -9.703  -3.627  -0.135  0.00  0.00    -0.246 OA
ATOM     31  O   UNL     1      -9.316  -4.748   1.613  0.00  0.00    -0.246 OA
ENDBRANCH  28  29
ENDBRANCH  27  28
ENDBRANCH   8  27
TORSDOF 6
