REMARK  Name = ZINC35743740
REMARK  13 active torsions:
REMARK  status: ('A' for Active; 'I' for Inactive)
REMARK    1  A    between atoms: C_1  and  C_2
REMARK    2  A    between atoms: C_2  and  C_4
REMARK    3  A    between atoms: C_2  and  N_17
REMARK    4  A    between atoms: N_14  and  C_15
REMARK    5  A    between atoms: N_17  and  C_18
REMARK    6  A    between atoms: C_18  and  C_19
REMARK    7  A    between atoms: C_19  and  C_20
REMARK    8  A    between atoms: C_20  and  C_21
REMARK    9  A    between atoms: C_21  and  C_22
REMARK   10  A    between atoms: C_22  and  C_23
REMARK   11  A    between atoms: C_23  and  N_24
REMARK   12  A    between atoms: C_25  and  C_27
REMARK   13  A    between atoms: C_31  and  N_33
REMARK                            x       y       z     vdW  Elec       q    Type
REMARK                         _______ _______ _______ _____ _____    ______ ____
ROOT
ATOM      1  N   UNL     1      -0.569  -1.352   0.529  0.00  0.00    -0.288 N 
ATOM      2  C   UNL     1      -1.382  -1.295   1.603  0.00  0.00    +0.247 C 
ATOM      3  O   UNL     1      -2.203  -2.171   1.791  0.00  0.00    -0.270 OA
ENDROOT
BRANCH   2   4
ATOM      4  C   UNL     1      -1.274  -0.166   2.552  0.00  0.00    +0.039 A 
ATOM      5  C   UNL     1      -0.359   0.862   2.318  0.00  0.00    +0.013 A 
ATOM      6  C   UNL     1      -0.264   1.912   3.206  0.00  0.00    +0.003 A 
ATOM      7  C   UNL     1      -1.073   1.949   4.328  0.00  0.00    +0.033 A 
ATOM      8  C   UNL     1      -1.982   0.933   4.566  0.00  0.00    +0.127 A 
ATOM      9  C   UNL     1      -2.091  -0.120   3.682  0.00  0.00    +0.045 A 
BRANCH   8  10
ATOM     10  N   UNL     1      -2.843   0.980   5.769  0.00  0.00    +0.056 N 
ATOM     11  O   UNL     1      -2.752   1.905   6.542  0.00  0.00    -0.126 OA
ATOM     12  O   UNL     1      -3.638   0.094   5.979  0.00  0.00    -0.126 OA
ENDBRANCH   8  10
ENDBRANCH   2   4
BRANCH   1  14
ATOM     13  C   UNL     1       0.360   0.831  -0.062  0.00  0.00    +0.036 C 
ATOM     14  C   UNL     1       0.662  -0.560   0.499  0.00  0.00    +0.139 C 
BRANCH  14  15
ATOM     15  C   UNL     1       1.210  -0.429   1.897  0.00  0.00    +0.133 A 
ATOM     16  N   UNL     1       0.570  -1.011   2.866  0.00  0.00    -0.232 NA
ATOM     17  C   UNL     1       1.004  -0.938   4.149  0.00  0.00    +0.080 A 
ATOM     18  C   UNL     1       0.319  -1.563   5.192  0.00  0.00    +0.048 A 
ATOM     19  C   UNL     1       0.800  -1.459   6.480  0.00  0.00    +0.043 A 
ATOM     20  C   UNL     1       1.958  -0.739   6.751  0.00  0.00    +0.021 A 
ATOM     21  C   UNL     1       2.645  -0.118   5.745  0.00  0.00    +0.017 A 
ATOM     22  C   UNL     1       2.180  -0.209   4.434  0.00  0.00    +0.065 A 
ATOM     23  C   UNL     1       2.880   0.438   3.315  0.00  0.00    +0.262 A 
ATOM     24  O   UNL     1       3.899   1.080   3.492  0.00  0.00    -0.267 OA
ATOM     25  N   UNL     1       2.350   0.287   2.079  0.00  0.00    -0.298 N 
ATOM     26  C   UNL     1       3.009   0.906   0.926  0.00  0.00    +0.154 C 
ATOM     27 CL   UNL     1      -0.051  -2.236   7.779  0.00  0.00    -0.083 Cl
ENDBRANCH  14  15
ENDBRANCH   1  14
BRANCH   1  28
ATOM     28  C   UNL     1      -0.918  -2.208  -0.608  0.00  0.00    +0.109 C 
BRANCH  28  29
ATOM     29  C   UNL     1      -0.320  -3.601  -0.401  0.00  0.00    +0.019 C 
BRANCH  29  30
ATOM     30  C   UNL     1      -0.684  -4.494  -1.588  0.00  0.00    +0.001 C 
BRANCH  30  31
ATOM     31  C   UNL     1      -0.086  -5.887  -1.381  0.00  0.00    -0.002 C 
BRANCH  31  32
ATOM     32  C   UNL     1      -0.450  -6.780  -2.569  0.00  0.00    -0.020 C 
BRANCH  32  33
ATOM     33  C   UNL     1       0.148  -8.173  -2.361  0.00  0.00    -0.086 C 
BRANCH  33  34
ATOM     34  N   UNL     1      -0.201  -9.031  -3.502  0.00  0.00    +0.378 N 
ATOM     35  H   UNL     1      -1.205  -9.103  -3.573  0.00  0.00    -0.090 HD
ATOM     36  H   UNL     1       0.168  -8.629  -4.350  0.00  0.00    -0.090 HD
ATOM     37  H   UNL     1       0.193  -9.949  -3.365  0.00  0.00    -0.090 HD
ENDBRANCH  33  34
ENDBRANCH  32  33
ENDBRANCH  31  32
ENDBRANCH  30  31
ENDBRANCH  29  30
ENDBRANCH  28  29
ENDBRANCH   1  28
TORSDOF 11
