REMARK  Name = ZINC44357035
REMARK  6 active torsions:
REMARK  status: ('A' for Active; 'I' for Inactive)
REMARK    1  A    between atoms: C_1  and  C_2
REMARK    2  A    between atoms: C_9  and  N_13
REMARK    3  A    between atoms: C_10  and  C_11
REMARK    4  A    between atoms: C_14  and  C_16
REMARK    5  A    between atoms: N_21  and  S_22
REMARK    6  A    between atoms: S_22  and  C_25
REMARK                            x       y       z     vdW  Elec       q    Type
REMARK                         _______ _______ _______ _____ _____    ______ ____
ROOT
ATOM      1  N   UNL     1       0.696  -5.849   2.431  0.00  0.00    -0.278 N 
ATOM      2  C   UNL     1       1.678  -6.098   3.319  0.00  0.00    +0.236 C 
ATOM      3  O   UNL     1       2.384  -5.194   3.713  0.00  0.00    -0.274 OA
ATOM      4  H   UNL     1       0.132  -6.573   2.116  0.00  0.00    +0.155 HD
ENDROOT
BRANCH   1  12
ATOM      5  C   UNL     1      -0.019   1.526   0.010  0.00  0.00    +0.008 C 
ATOM      6  C   UNL     1       0.002  -0.004   0.002  0.00  0.00    -0.009 C 
ATOM      7  C   UNL     1      -1.434  -0.537   0.019  0.00  0.00    +0.008 C 
ATOM      8  C   UNL     1      -1.433  -2.045  -0.237  0.00  0.00    +0.037 C 
ATOM      9  C   UNL     1      -0.464  -2.704   0.734  0.00  0.00    -0.018 A 
ATOM     10  C   UNL     1       0.485  -1.986   1.374  0.00  0.00    -0.004 A 
ATOM     11  S   UNL     1       1.344  -3.168   2.371  0.00  0.00    -0.077 S 
ATOM     12  C   UNL     1       0.493  -4.558   1.966  0.00  0.00    +0.090 A 
ATOM     13  C   UNL     1      -0.459  -4.119   1.059  0.00  0.00    +0.084 A 
ATOM     14  C   UNL     1       0.739  -0.515   1.248  0.00  0.00    +0.046 C 
BRANCH  13  15
ATOM     15  C   UNL     1      -1.399  -5.024   0.469  0.00  0.00    +0.102 C 
ATOM     16  N   UNL     1      -2.144  -5.741   0.000  0.00  0.00    -0.191 NA
ENDBRANCH  13  15
ENDBRANCH   1  12
BRANCH   2  17
ATOM     17  C   UNL     1       1.900  -7.501   3.824  0.00  0.00    +0.165 C 
ATOM     18  C   UNL     1       2.271  -8.430   2.649  0.00  0.00    +0.031 C 
ATOM     19  C   UNL     1       3.820  -8.479   2.720  0.00  0.00    +0.019 C 
ATOM     20  C   UNL     1       4.062  -8.432   4.250  0.00  0.00    +0.110 C 
ATOM     21  N   UNL     1       3.024  -7.520   4.771  0.00  0.00    -0.170 NA
BRANCH  21  22
ATOM     22  S   UNL     1       3.111  -6.660   6.184  0.00  0.00    +0.030 S 
ATOM     23  O   UNL     1       4.502  -6.492   6.421  0.00  0.00    -0.158 OA
ATOM     24  O   UNL     1       2.270  -5.533   5.975  0.00  0.00    -0.158 OA
ATOM     25  C   UNL     1       2.390  -7.752   7.440  0.00  0.00    +0.215 C 
ENDBRANCH  21  22
ENDBRANCH   2  17
TORSDOF 4
