REMARK  Name = ZINC11999469
REMARK  6 active torsions:
REMARK  status: ('A' for Active; 'I' for Inactive)
REMARK    1  A    between atoms: C_3  and  C_6
REMARK    2  A    between atoms: C_6  and  C_8
REMARK    3  A    between atoms: C_6  and  N_51
REMARK    4  A    between atoms: C_8  and  N_9
REMARK    5  A    between atoms: N_9  and  S_10
REMARK    6  A    between atoms: S_10  and  C_13
REMARK                            x       y       z     vdW  Elec       q    Type
REMARK                         _______ _______ _______ _____ _____    ______ ____
ROOT
ATOM      1  C   UNL     1       6.557  -0.231  -0.064  0.00  0.00    +0.096 C 
ENDROOT
BRANCH   1   2
ATOM      2  N   UNL     1       6.815   1.107   0.475  0.00  0.00    -0.191 NA
ATOM      3  H   UNL     1       7.717   1.463   0.477  0.00  0.00    +0.148 HD
BRANCH   2   4
ATOM      4  S   UNL     1       5.566   2.010   1.082  0.00  0.00    +0.058 S 
ATOM      5  O   UNL     1       4.530   1.974   0.110  0.00  0.00    -0.153 OA
ATOM      6  O   UNL     1       6.134   3.227   1.546  0.00  0.00    -0.153 OA
BRANCH   4   7
ATOM      7  C   UNL     1       4.955   1.166   2.502  0.00  0.00    +0.109 A 
ATOM      8  C   UNL     1       5.487   1.438   3.749  0.00  0.00    +0.032 A 
ATOM      9  C   UNL     1       5.010   0.778   4.866  0.00  0.00    +0.051 A 
ATOM     10  C   UNL     1       3.997  -0.159   4.739  0.00  0.00    +0.166 A 
ATOM     11  C   UNL     1       3.461  -0.433   3.483  0.00  0.00    +0.168 A 
ATOM     12  C   UNL     1       3.944   0.232   2.368  0.00  0.00    +0.078 A 
ATOM     13  O   UNL     1       2.488  -1.380   3.621  0.00  0.00    -0.453 OA
ATOM     14  C   UNL     1       2.154  -1.386   5.022  0.00  0.00    +0.466 C 
ATOM     15  O   UNL     1       3.361  -0.935   5.664  0.00  0.00    -0.453 OA
ENDBRANCH   4   7
ENDBRANCH   2   4
ENDBRANCH   1   2
BRANCH   1  16
ATOM     16  C   UNL     1       7.769  -0.697  -0.873  0.00  0.00    -0.015 C 
BRANCH  16  23
ATOM     17  C   UNL     1       7.094  -2.947  -0.251  0.00  0.00    -0.078 C 
ATOM     18  C   UNL     1       7.108  -4.404  -0.626  0.00  0.00    -0.019 C 
ATOM     19  C   UNL     1       8.459  -5.009  -0.191  0.00  0.00    -0.002 C 
ATOM     20  C   UNL     1       9.536  -4.677  -1.117  0.00  0.00    -0.002 C 
ATOM     21  C   UNL     1       9.771  -3.155  -1.217  0.00  0.00    -0.019 C 
ATOM     22  C   UNL     1       8.711  -2.566  -2.108  0.00  0.00    -0.078 C 
ATOM     23  N   UNL     1       7.498  -2.049  -1.386  0.00  0.00    +0.385 N 
ATOM     24  H   UNL     1       6.720  -2.001  -2.054  0.00  0.00    -0.081 HD
ENDBRANCH  16  23
BRANCH  16  27
ATOM     25  C   UNL     1       8.855   1.960  -3.377  0.00  0.00    +0.008 A 
ATOM     26  C   UNL     1       8.846   1.246  -2.193  0.00  0.00    +0.009 A 
ATOM     27  C   UNL     1       7.971   0.222  -2.050  0.00  0.00    -0.022 A 
ATOM     28  S   UNL     1       7.124   0.237  -3.622  0.00  0.00    -0.103 S 
ATOM     29  C   UNL     1       7.988   1.614  -4.360  0.00  0.00    +0.045 A 
ENDBRANCH  16  27
ENDBRANCH   1  16
TORSDOF 6
