REMARK  Name = ZINC03289474
REMARK  8 active torsions:
REMARK  status: ('A' for Active; 'I' for Inactive)
REMARK    1  A    between atoms: C_7  and  C_11
REMARK    2  A    between atoms: C_11  and  C_12
REMARK    3  A    between atoms: C_12  and  C_14
REMARK    4  A    between atoms: C_12  and  N_20
REMARK    5  A    between atoms: C_14  and  O_16
REMARK    6  A    between atoms: O_16  and  C_17
REMARK    7  A    between atoms: C_17  and  C_18
REMARK    8  A    between atoms: C_21  and  C_23
REMARK                            x       y       z     vdW  Elec       q    Type
REMARK                         _______ _______ _______ _____ _____    ______ ____
ROOT
ATOM      1  C   UNL     1       0.657  -2.104  -1.120  0.00  0.00    +0.186 C 
ENDROOT
BRANCH   1   2
ATOM      2  N   UNL     1       1.354  -2.503  -2.345  0.00  0.00    -0.298 N 
ATOM      3  C   UNL     1       0.675  -2.599  -3.505  0.00  0.00    +0.245 C 
ATOM      4  O   UNL     1      -0.516  -2.355  -3.535  0.00  0.00    -0.270 OA
ATOM      5  H   UNL     1       2.304  -2.698  -2.322  0.00  0.00    +0.150 HD
BRANCH   3   6
ATOM      6  C   UNL     1       1.377  -3.002  -4.742  0.00  0.00    +0.037 A 
ATOM      7  C   UNL     1       2.745  -3.278  -4.712  0.00  0.00    +0.014 A 
ATOM      8  C   UNL     1       3.394  -3.659  -5.867  0.00  0.00    +0.021 A 
ATOM      9  C   UNL     1       2.693  -3.757  -7.058  0.00  0.00    +0.041 A 
ATOM     10  C   UNL     1       1.337  -3.479  -7.095  0.00  0.00    +0.021 A 
ATOM     11  C   UNL     1       0.676  -3.103  -5.945  0.00  0.00    +0.014 A 
ATOM     12 CL   UNL     1       3.519  -4.231  -8.510  0.00  0.00    -0.084 Cl
ENDBRANCH   3   6
ENDBRANCH   1   2
BRANCH   1  13
ATOM     13  C   UNL     1       0.598  -0.600  -1.043  0.00  0.00    +0.329 C 
ATOM     14  O   UNL     1       1.088   0.070  -1.921  0.00  0.00    -0.249 OA
BRANCH  13  15
ATOM     15  O   UNL     1       0.002  -0.004   0.002  0.00  0.00    -0.448 OA
BRANCH  15  16
ATOM     16  C   UNL     1      -0.018   1.448   0.010  0.00  0.00    +0.350 C 
BRANCH  16  17
ATOM     17  C   UNL     1      -0.707   1.923   1.221  0.00  0.00    +0.104 C 
ATOM     18  N   UNL     1      -1.238   2.289   2.156  0.00  0.00    -0.193 NA
ENDBRANCH  16  17
ENDBRANCH  15  16
ENDBRANCH  13  15
ENDBRANCH   1  13
BRANCH   1  19
ATOM     19  C   UNL     1       1.412  -2.647   0.096  0.00  0.00    +0.071 C 
BRANCH  19  26
ATOM     20  C   UNL     1       4.032  -5.919  -2.002  0.00  0.00    +0.001 A 
ATOM     21  C   UNL     1       3.610  -7.212  -1.722  0.00  0.00    +0.002 A 
ATOM     22  C   UNL     1       2.525  -7.435  -0.902  0.00  0.00    +0.026 A 
ATOM     23  C   UNL     1       1.843  -6.355  -0.350  0.00  0.00    +0.047 A 
ATOM     24  C   UNL     1       2.275  -5.047  -0.637  0.00  0.00    +0.003 A 
ATOM     25  C   UNL     1       3.377  -4.845  -1.470  0.00  0.00    +0.010 A 
ATOM     26  C   UNL     1       1.365  -4.153   0.083  0.00  0.00    -0.020 A 
ATOM     27  C   UNL     1       0.486  -4.930   0.735  0.00  0.00    +0.087 A 
ATOM     28  N   UNL     1       0.752  -6.249   0.484  0.00  0.00    -0.360 N 
ATOM     29  H   UNL     1       0.251  -6.997   0.843  0.00  0.00    +0.165 HD
ENDBRANCH  19  26
ENDBRANCH   1  19
TORSDOF 8
