REMARK  Name = ZINC06015030
REMARK  13 active torsions:
REMARK  status: ('A' for Active; 'I' for Inactive)
REMARK    1  A    between atoms: C_1  and  C_2
REMARK    2  A    between atoms: C_2  and  C_3
REMARK    3  A    between atoms: C_2  and  C_4
REMARK    4  A    between atoms: C_2  and  N_5
REMARK    5  A    between atoms: C_6  and  C_10
REMARK    6  A    between atoms: C_10  and  C_12
REMARK    7  A    between atoms: C_10  and  N_68
REMARK    8  A    between atoms: C_16  and  O_24
REMARK    9  A    between atoms: O_24  and  C_25
REMARK   10  A    between atoms: C_26  and  C_27
REMARK   11  A    between atoms: C_26  and  N_68
REMARK   12  A    between atoms: C_32  and  C_33
REMARK   13  A    between atoms: C_32  and  N_68
REMARK                            x       y       z     vdW  Elec       q    Type
REMARK                         _______ _______ _______ _____ _____    ______ ____
ROOT
ATOM      1  C   UNL     1       4.897  -2.666  -0.105  0.00  0.00    +0.039 C 
ENDROOT
BRANCH   1   2
ATOM      2  C   UNL     1       3.497  -2.172  -0.365  0.00  0.00    +0.011 A 
ATOM      3  C   UNL     1       3.189  -0.869  -0.150  0.00  0.00    +0.017 A 
ATOM      4  C   UNL     1       1.821  -0.421  -0.412  0.00  0.00    +0.002 A 
ATOM      5  C   UNL     1       1.446   0.912  -0.209  0.00  0.00    +0.055 A 
ATOM      6  C   UNL     1       0.147   1.301  -0.466  0.00  0.00    +0.121 A 
ATOM      7  C   UNL     1      -0.787   0.375  -0.925  0.00  0.00    +0.047 A 
ATOM      8  C   UNL     1      -0.430  -0.940  -1.128  0.00  0.00    +0.030 A 
ATOM      9  C   UNL     1       0.874  -1.353  -0.875  0.00  0.00    +0.049 A 
ATOM     10  N   UNL     1       1.251  -2.666  -1.073  0.00  0.00    -0.322 N 
ATOM     11  H   UNL     1       0.577  -3.328  -1.402  0.00  0.00    +0.169 HD
ATOM     12  C   UNL     1       2.510  -3.068  -0.830  0.00  0.00    +0.251 A 
ATOM     13  O   UNL     1       2.808  -4.235  -1.016  0.00  0.00    -0.268 OA
BRANCH   6  14
ATOM     14  O   UNL     1      -0.223   2.595  -0.271  0.00  0.00    -0.495 OA
ATOM     15  C   UNL     1      -1.582   2.931  -0.556  0.00  0.00    +0.277 C 
ENDBRANCH   6  14
ENDBRANCH   1   2
BRANCH   1  17
ATOM     16  N   UNL     1       5.388  -3.482   2.260  0.00  0.00    -0.225 N 
ATOM     17  C   UNL     1       4.878  -3.659   1.028  0.00  0.00    +0.143 A 
ATOM     18  N   UNL     1       4.366  -4.865   1.003  0.00  0.00    -0.115 NA
ATOM     19  N   UNL     1       4.548  -5.399   2.161  0.00  0.00    -0.023 NA
ATOM     20  N   UNL     1       5.162  -4.564   2.925  0.00  0.00    -0.043 NA
BRANCH  16  22
ATOM     21  C   UNL     1       5.153  -1.069   2.589  0.00  0.00    +0.036 C 
ATOM     22  C   UNL     1       6.070  -2.283   2.756  0.00  0.00    +0.059 C 
ATOM     23  C   UNL     1       6.410  -2.465   4.236  0.00  0.00    +0.036 C 
ATOM     24  C   UNL     1       7.357  -2.062   1.960  0.00  0.00    +0.036 C 
ENDBRANCH  16  22
ENDBRANCH   1  17
BRANCH   1  25
ATOM     25  N   UNL     1       5.406  -3.339  -1.319  0.00  0.00    +0.394 N 
ATOM     26  H   UNL     1       4.910  -4.230  -1.439  0.00  0.00    -0.080 HD
BRANCH  25  27
ATOM     27  C   UNL     1       5.163  -2.492  -2.506  0.00  0.00    -0.034 C 
BRANCH  27  28
ATOM     28  C   UNL     1       5.349  -3.329  -3.745  0.00  0.00    -0.027 A 
ATOM     29  C   UNL     1       4.427  -4.032  -4.447  0.00  0.00    +0.009 A 
ATOM     30  C   UNL     1       4.829  -4.733  -5.568  0.00  0.00    +0.008 A 
ATOM     31  C   UNL     1       6.136  -4.707  -5.926  0.00  0.00    +0.045 A 
ATOM     32  S   UNL     1       6.843  -3.660  -4.664  0.00  0.00    -0.103 S 
ENDBRANCH  27  28
ENDBRANCH  25  27
BRANCH  25  33
ATOM     33  C   UNL     1       6.852  -3.609  -1.178  0.00  0.00    -0.045 C 
BRANCH  33  34
ATOM     34  C   UNL     1       7.035  -4.862  -0.320  0.00  0.00    +0.102 C 
ATOM     35  C   UNL     1       8.530  -5.238  -0.229  0.00  0.00    +0.032 C 
ATOM     36  C   UNL     1       8.531  -6.783  -0.256  0.00  0.00    +0.030 C 
ATOM     37  C   UNL     1       7.036  -7.157  -0.360  0.00  0.00    +0.160 C 
ATOM     38  O   UNL     1       6.406  -5.999  -0.949  0.00  0.00    -0.378 OA
ENDBRANCH  33  34
ENDBRANCH  25  33
ENDBRANCH   1  25
TORSDOF 9
