REMARK  Name = ZINC39530670
REMARK  9 active torsions:
REMARK  status: ('A' for Active; 'I' for Inactive)
REMARK    1  A    between atoms: C_1  and  C_2
REMARK    2  A    between atoms: C_2  and  C_3
REMARK    3  A    between atoms: C_2  and  S_4
REMARK    4  A    between atoms: S_4  and  C_7
REMARK    5  A    between atoms: C_9  and  C_27
REMARK    6  A    between atoms: C_12  and  N_13
REMARK    7  A    between atoms: C_17  and  C_20
REMARK    8  A    between atoms: C_25  and  O_26
REMARK    9  A    between atoms: C_32  and  O_33
REMARK                            x       y       z     vdW  Elec       q    Type
REMARK                         _______ _______ _______ _____ _____    ______ ____
ROOT
ATOM      1  C   UNL     1      -2.438   0.056  -1.303  0.00  0.00    +0.110 A 
ATOM      2  C   UNL     1      -2.983  -0.722  -2.302  0.00  0.00    +0.037 A 
ATOM      3  C   UNL     1      -3.275  -0.158  -3.543  0.00  0.00    -0.012 A 
ATOM      4  C   UNL     1      -3.015   1.193  -3.770  0.00  0.00    +0.010 A 
ATOM      5  C   UNL     1      -2.470   1.967  -2.768  0.00  0.00    +0.025 A 
ATOM      6  C   UNL     1      -2.184   1.403  -1.530  0.00  0.00    +0.055 A 
ENDROOT
BRANCH   6   7
ATOM      7  N   UNL     1      -1.637   2.190  -0.515  0.00  0.00    -0.331 N 
ATOM      8  C   UNL     1      -0.188   2.433  -0.443  0.00  0.00    +0.086 C 
ATOM      9  C   UNL     1       0.287   2.120   0.979  0.00  0.00    -0.063 C 
ATOM     10  N   UNL     1      -0.505   2.896   1.941  0.00  0.00    +0.386 N 
ATOM     11  C   UNL     1      -1.909   2.470   1.891  0.00  0.00    -0.020 C 
ATOM     12  C   UNL     1      -2.494   2.805   0.511  0.00  0.00    +0.094 C 
ATOM     13  H   UNL     1      -0.143   2.748   2.871  0.00  0.00    -0.085 HD
ATOM     14  H   UNL     1      -0.444   3.877   1.711  0.00  0.00    -0.085 HD
BRANCH  11  15
ATOM     15  C   UNL     1      -2.692   3.195   2.956  0.00  0.00    -0.018 A 
ATOM     16  C   UNL     1      -2.255   4.419   3.423  0.00  0.00    +0.005 A 
ATOM     17  C   UNL     1      -2.972   5.084   4.401  0.00  0.00    +0.000 A 
ATOM     18  C   UNL     1      -4.129   4.525   4.913  0.00  0.00    +0.004 A 
ATOM     19  C   UNL     1      -4.571   3.301   4.449  0.00  0.00    +0.045 A 
ATOM     20  C   UNL     1      -3.855   2.635   3.464  0.00  0.00    +0.118 A 
BRANCH  20  21
ATOM     21  O   UNL     1      -4.291   1.433   3.002  0.00  0.00    -0.507 OA
ATOM     22  H   UNL     1      -3.946   0.675   3.493  0.00  0.00    +0.292 HD
ENDBRANCH  20  21
ENDBRANCH  11  15
ENDBRANCH   6   7
BRANCH   3  23
ATOM     23  C   UNL     1      -3.861  -0.992  -4.619  0.00  0.00    +0.024 A 
ATOM     24  C   UNL     1      -3.283  -2.216  -4.949  0.00  0.00    +0.012 A 
ATOM     25  C   UNL     1      -3.832  -2.990  -5.952  0.00  0.00    +0.001 A 
ATOM     26  C   UNL     1      -4.955  -2.554  -6.632  0.00  0.00    +0.004 A 
ATOM     27  C   UNL     1      -5.537  -1.341  -6.313  0.00  0.00    +0.046 A 
ATOM     28  C   UNL     1      -4.999  -0.557  -5.305  0.00  0.00    +0.125 A 
BRANCH  28  29
ATOM     29  O   UNL     1      -5.573   0.632  -4.987  0.00  0.00    -0.506 OA
ATOM     30  H   UNL     1      -5.227   1.383  -5.488  0.00  0.00    +0.292 HD
ENDBRANCH  28  29
ENDBRANCH   3  23
BRANCH   1  31
ATOM     31  S   UNL     1      -2.070  -0.657   0.266  0.00  0.00    +0.001 S 
ATOM     32  O   UNL     1      -1.272   0.314   0.928  0.00  0.00    -0.169 OA
ATOM     33  O   UNL     1      -1.545  -1.943  -0.035  0.00  0.00    -0.169 OA
BRANCH  31  35
ATOM     34  C   UNL     1      -4.623  -1.639   0.218  0.00  0.00    +0.032 C 
ATOM     35  C   UNL     1      -3.676  -0.817   1.095  0.00  0.00    +0.130 C 
ATOM     36  C   UNL     1      -3.488  -1.519   2.441  0.00  0.00    +0.032 C 
ENDBRANCH  31  35
ENDBRANCH   1  31
TORSDOF 7
