REMARK  Name = ZINC12212858
REMARK  13 active torsions:
REMARK  status: ('A' for Active; 'I' for Inactive)
REMARK    1  A    between atoms: C_1  and  C_2
REMARK    2  A    between atoms: C_2  and  C_3
REMARK    3  A    between atoms: C_3  and  C_14
REMARK    4  A    between atoms: N_6  and  C_10
REMARK    5  A    between atoms: C_10  and  C_11
REMARK    6  A    between atoms: C_11  and  C_13
REMARK    7  A    between atoms: C_19  and  C_20
REMARK    8  A    between atoms: C_19  and  N_66
REMARK    9  A    between atoms: C_23  and  O_29
REMARK   10  A    between atoms: C_24  and  C_28
REMARK   11  A    between atoms: C_25  and  O_26
REMARK   12  A    between atoms: O_26  and  C_27
REMARK   13  A    between atoms: O_29  and  C_30
REMARK                            x       y       z     vdW  Elec       q    Type
REMARK                         _______ _______ _______ _____ _____    ______ ____
ROOT
ATOM      1  C   UNL     1       2.805  -4.227   3.388  0.00  0.00    +0.018 C 
ATOM      2  C   UNL     1       1.409  -4.589   2.873  0.00  0.00    -0.013 C 
ATOM      3  C   UNL     1       1.273  -4.133   1.418  0.00  0.00    -0.078 C 
ATOM      4  C   UNL     1       2.833  -2.315   1.783  0.00  0.00    -0.078 C 
ATOM      5  C   UNL     1       3.015  -2.716   3.248  0.00  0.00    -0.013 C 
ATOM      6  N   UNL     1       1.463  -2.669   1.355  0.00  0.00    +0.382 N 
ATOM      7  H   UNL     1       0.790  -2.218   1.987  0.00  0.00    -0.081 HD
ENDROOT
BRANCH   1   8
ATOM      8  C   UNL     1       2.926  -4.627   4.860  0.00  0.00    +0.115 C 
ATOM      9  C   UNL     1       2.697  -6.116   5.029  0.00  0.00    +0.247 C 
ATOM     10  O   UNL     1       3.352  -7.016   4.549  0.00  0.00    -0.273 OA
ATOM     11  N   UNL     1       1.615  -6.230   5.823  0.00  0.00    -0.220 N 
ATOM     12  C   UNL     1       1.133  -5.033   6.176  0.00  0.00    +0.310 C 
ATOM     13  O   UNL     1       0.161  -4.880   6.890  0.00  0.00    -0.252 OA
ATOM     14  N   UNL     1       1.845  -4.018   5.654  0.00  0.00    -0.285 N 
ATOM     15  H   UNL     1       1.678  -3.070   5.776  0.00  0.00    +0.151 HD
BRANCH   8  17
ATOM     16  C   UNL     1       4.391  -4.637   6.884  0.00  0.00    +0.006 C 
ATOM     17  C   UNL     1       4.295  -4.226   5.414  0.00  0.00    +0.032 C 
ENDBRANCH   8  17
BRANCH  11  18
ATOM     18  C   UNL     1       1.037  -7.508   6.248  0.00  0.00    +0.148 C 
BRANCH  18  19
ATOM     19  C   UNL     1       1.680  -7.944   7.540  0.00  0.00    -0.062 C 
ATOM     20  C   UNL     1       1.108  -7.662   8.684  0.00  0.00    +0.009 C 
ATOM     21  C   UNL     1       2.981  -8.705   7.514  0.00  0.00    +0.040 C 
ENDBRANCH  18  19
ENDBRANCH  11  18
ENDBRANCH   1   8
BRANCH   6  22
ATOM     22  C   UNL     1       1.224  -2.188  -0.021  0.00  0.00    -0.039 C 
BRANCH  22  23
ATOM     23  C   UNL     1       1.207  -0.681  -0.013  0.00  0.00    -0.022 A 
ATOM     24  C   UNL     1       0.002  -0.004   0.002  0.00  0.00    +0.009 A 
ATOM     25  C   UNL     1      -0.017   1.377   0.010  0.00  0.00    +0.046 A 
ATOM     26  C   UNL     1       1.175   2.089   0.002  0.00  0.00    +0.126 A 
ATOM     27  C   UNL     1       2.385   1.412  -0.013  0.00  0.00    +0.033 A 
ATOM     28  C   UNL     1       2.401   0.026  -0.020  0.00  0.00    +0.128 A 
ATOM     29  C   UNL     1       3.680   2.182  -0.020  0.00  0.00    +0.051 C 
BRANCH  28  30
ATOM     30  O   UNL     1       3.585  -0.641  -0.034  0.00  0.00    -0.495 OA
ATOM     31  C   UNL     1       4.139  -0.952  -1.314  0.00  0.00    +0.277 C 
ENDBRANCH  28  30
BRANCH  26  32
ATOM     32  O   UNL     1       1.156   3.447   0.009  0.00  0.00    -0.495 OA
ATOM     33  C   UNL     1      -0.126   4.078   0.024  0.00  0.00    +0.277 C 
ENDBRANCH  26  32
ENDBRANCH  22  23
ENDBRANCH   6  22
TORSDOF 8
