REMARK  Name = ZINC59461867
REMARK  7 active torsions:
REMARK  status: ('A' for Active; 'I' for Inactive)
REMARK    1  A    between atoms: C_4  and  C_7
REMARK    2  A    between atoms: C_14  and  C_23
REMARK    3  A    between atoms: C_15  and  C_17
REMARK    4  A    between atoms: C_23  and  C_25
REMARK    5  A    between atoms: C_23  and  C_31
REMARK    6  A    between atoms: C_31  and  C_33
REMARK    7  A    between atoms: C_31  and  C_35
REMARK                            x       y       z     vdW  Elec       q    Type
REMARK                         _______ _______ _______ _____ _____    ______ ____
ROOT
ATOM      1  C   UNL     1       4.088  -1.272   1.041  0.00  0.00    +0.080 A 
ATOM      2  C   UNL     1       4.266  -2.622   0.919  0.00  0.00    +0.077 A 
ATOM      3  S   UNL     1       5.996  -2.690   0.470  0.00  0.00    -0.056 S 
ATOM      4  C   UNL     1       6.301  -0.928   0.491  0.00  0.00    +0.196 A 
ATOM      5  N   UNL     1       5.111  -0.459   0.819  0.00  0.00    -0.221 NA
ATOM      6  N   UNL     1       7.475  -0.237   0.228  0.00  0.00    -0.194 N 
ATOM      7  C   UNL     1       8.659  -0.786  -0.108  0.00  0.00    +0.278 A 
ATOM      8  C   UNL     1       9.588   0.257  -0.287  0.00  0.00    +0.053 A 
ATOM      9  C   UNL     1       8.946   1.437  -0.055  0.00  0.00    +0.072 A 
ATOM     10  N   UNL     1       7.637   1.154   0.259  0.00  0.00    -0.287 N 
ATOM     11  O   UNL     1       8.887  -1.977  -0.234  0.00  0.00    -0.265 OA
ATOM     12  H   UNL     1       6.947   1.803   0.468  0.00  0.00    +0.188 HD
ENDROOT
BRANCH   1  16
ATOM     13  C   UNL     1       0.286   0.304   2.106  0.00  0.00    +0.000 A 
ATOM     14  C   UNL     1       1.348   1.161   1.877  0.00  0.00    +0.001 A 
ATOM     15  C   UNL     1       2.584   0.655   1.531  0.00  0.00    +0.010 A 
ATOM     16  C   UNL     1       2.762  -0.723   1.413  0.00  0.00    +0.001 A 
ATOM     17  C   UNL     1       1.689  -1.581   1.645  0.00  0.00    +0.010 A 
ATOM     18  C   UNL     1       0.457  -1.064   1.990  0.00  0.00    +0.001 A 
ENDBRANCH   1  16
BRANCH   9  19
ATOM     19  C   UNL     1       9.548   2.784  -0.133  0.00  0.00    +0.000 A 
ATOM     20  C   UNL     1       8.890   3.808  -0.817  0.00  0.00    +0.010 A 
ATOM     21  C   UNL     1       9.459   5.063  -0.885  0.00  0.00    +0.001 A 
ATOM     22  C   UNL     1      10.678   5.308  -0.278  0.00  0.00    +0.000 A 
ATOM     23  C   UNL     1      11.335   4.298   0.401  0.00  0.00    +0.001 A 
ATOM     24  C   UNL     1      10.776   3.039   0.482  0.00  0.00    +0.010 A 
ENDBRANCH   9  19
BRANCH   8  25
ATOM     25  C   UNL     1      11.037   0.098  -0.669  0.00  0.00    +0.082 C 
BRANCH  25  26
ATOM     26  C   UNL     1      11.780  -0.583   0.452  0.00  0.00    -0.038 A 
ATOM     27  C   UNL     1      11.487  -1.893   0.779  0.00  0.00    +0.004 A 
ATOM     28  C   UNL     1      12.168  -2.518   1.807  0.00  0.00    +0.000 A 
ATOM     29  C   UNL     1      13.143  -1.832   2.507  0.00  0.00    +0.000 A 
ATOM     30  C   UNL     1      13.437  -0.522   2.179  0.00  0.00    +0.000 A 
ATOM     31  C   UNL     1      12.758   0.101   1.148  0.00  0.00    +0.004 A 
ENDBRANCH  25  26
BRANCH  25  32
ATOM     32  C   UNL     1      11.140  -0.750  -1.938  0.00  0.00    +0.189 C 
BRANCH  32  33
ATOM     33  C   UNL     1      12.589  -0.910  -2.320  0.00  0.00    +0.228 C 
ATOM     34  O   UNL     1      12.980  -0.510  -3.396  0.00  0.00    -0.275 OA
ATOM     35  N   UNL     1      13.450  -1.497  -1.466  0.00  0.00    -0.328 N 
ATOM     36  H   UNL     1      13.137  -1.817  -0.605  0.00  0.00    +0.145 HD
ATOM     37  H   UNL     1      14.383  -1.599  -1.712  0.00  0.00    +0.145 HD
ENDBRANCH  32  33
BRANCH  32  38
ATOM     38  C   UNL     1      10.414  -0.085  -3.033  0.00  0.00    +0.076 C 
ATOM     39  N   UNL     1       9.854   0.428  -3.878  0.00  0.00    -0.196 NA
ENDBRANCH  32  38
ENDBRANCH  25  32
ENDBRANCH   8  25
TORSDOF 7
