REMARK  Name = ZINC08951773
REMARK  10 active torsions:
REMARK  status: ('A' for Active; 'I' for Inactive)
REMARK    1  A    between atoms: C_1  and  C_2
REMARK    2  A    between atoms: C_2  and  C_3
REMARK    3  A    between atoms: C_6  and  C_9
REMARK    4  A    between atoms: N_13  and  C_17
REMARK    5  A    between atoms: C_17  and  C_18
REMARK    6  A    between atoms: C_18  and  C_19
REMARK    7  A    between atoms: C_19  and  C_20
REMARK    8  A    between atoms: N_22  and  N_23
REMARK    9  A    between atoms: C_24  and  C_26
REMARK   10  A    between atoms: C_29  and  N_32
REMARK                            x       y       z     vdW  Elec       q    Type
REMARK                         _______ _______ _______ _____ _____    ______ ____
ROOT
ATOM      1  C   UNL     1       4.172   1.067  -0.127  0.00  0.00    +0.029 C 
ENDROOT
BRANCH   1   2
ATOM      2  C   UNL     1       5.549   0.481   0.193  0.00  0.00    +0.115 C 
BRANCH   2   7
ATOM      3  C   UNL     1       8.348   4.142   2.033  0.00  0.00    +0.028 C 
ATOM      4  C   UNL     1       7.863   3.288   1.097  0.00  0.00    +0.077 C 
ATOM      5  C   UNL     1       6.837   2.232   1.225  0.00  0.00    +0.258 C 
ATOM      6  O   UNL     1       6.277   2.009   2.282  0.00  0.00    -0.269 OA
ATOM      7  N   UNL     1       6.558   1.543   0.132  0.00  0.00    -0.255 N 
ATOM      8  C   UNL     1       7.184   1.790  -1.037  0.00  0.00    +0.121 C 
ATOM      9  S   UNL     1       6.967   1.009  -2.545  0.00  0.00    -0.027 S 
ATOM     10  S   UNL     1       8.291   3.131  -0.632  0.00  0.00    -0.061 S 
BRANCH   3  14
ATOM     11  C   UNL     1      11.656   6.633   1.123  0.00  0.00    -0.048 A 
ATOM     12  C   UNL     1      10.964   6.814   2.307  0.00  0.00    +0.004 A 
ATOM     13  C   UNL     1       9.887   6.008   2.611  0.00  0.00    +0.008 A 
ATOM     14  C   UNL     1       9.494   5.005   1.717  0.00  0.00    -0.024 A 
ATOM     15  C   UNL     1      10.203   4.825   0.524  0.00  0.00    +0.008 A 
ATOM     16  C   UNL     1      11.274   5.643   0.233  0.00  0.00    +0.004 A 
BRANCH  11  18
ATOM     17  C   UNL     1      14.113   6.885   1.348  0.00  0.00    +0.009 C 
ATOM     18  C   UNL     1      12.832   7.518   0.799  0.00  0.00    +0.032 C 
ENDBRANCH  11  18
ENDBRANCH   3  14
ENDBRANCH   2   7
ENDBRANCH   1   2
BRANCH   1  19
ATOM     19  C   UNL     1       3.119  -0.041  -0.063  0.00  0.00    +0.099 C 
BRANCH  19  20
ATOM     20  C   UNL     1       1.763   0.536  -0.377  0.00  0.00    +0.229 C 
ATOM     21  O   UNL     1       1.650   1.717  -0.628  0.00  0.00    -0.274 OA
ATOM     22  N   UNL     1       0.676  -0.261  -0.380  0.00  0.00    -0.234 N 
ATOM     23  H   UNL     1       0.767  -1.206  -0.180  0.00  0.00    +0.173 HD
BRANCH  22  24
ATOM     24  N   UNL     1      -0.584   0.274  -0.678  0.00  0.00    -0.230 N 
ATOM     25  C   UNL     1      -1.670  -0.524  -0.687  0.00  0.00    +0.260 C 
ATOM     26  O   UNL     1      -1.556  -1.708  -0.436  0.00  0.00    -0.269 OA
ATOM     27  H   UNL     1      -0.674   1.219  -0.879  0.00  0.00    +0.173 HD
BRANCH  25  28
ATOM     28  C   UNL     1      -3.000   0.041  -1.001  0.00  0.00    +0.038 A 
ATOM     29  C   UNL     1      -3.134   1.401  -1.284  0.00  0.00    +0.015 A 
ATOM     30  C   UNL     1      -4.377   1.921  -1.581  0.00  0.00    +0.033 A 
ATOM     31  C   UNL     1      -5.490   1.099  -1.589  0.00  0.00    +0.126 A 
ATOM     32  C   UNL     1      -5.364  -0.249  -1.305  0.00  0.00    +0.033 A 
ATOM     33  C   UNL     1      -4.127  -0.782  -1.011  0.00  0.00    +0.015 A 
BRANCH  31  34
ATOM     34  N   UNL     1      -6.822   1.665  -1.903  0.00  0.00    +0.056 N 
ATOM     35  O   UNL     1      -7.803   0.944  -1.911  0.00  0.00    -0.126 OA
ATOM     36  O   UNL     1      -6.935   2.851  -2.154  0.00  0.00    -0.126 OA
ENDBRANCH  31  34
ENDBRANCH  25  28
ENDBRANCH  22  24
ENDBRANCH  19  20
ENDBRANCH   1  19
TORSDOF 9
