REMARK  Name = ZINC39608036
REMARK  10 active torsions:
REMARK  status: ('A' for Active; 'I' for Inactive)
REMARK    1  A    between atoms: C_1  and  C_2
REMARK    2  A    between atoms: C_2  and  C_4
REMARK    3  A    between atoms: C_2  and  N_7
REMARK    4  A    between atoms: C_4  and  C_5
REMARK    5  A    between atoms: C_4  and  C_6
REMARK    6  A    between atoms: C_8  and  C_10
REMARK    7  A    between atoms: C_21  and  C_23
REMARK    8  A    between atoms: C_23  and  C_25
REMARK    9  A    between atoms: C_23  and  O_26
REMARK   10  A    between atoms: O_26  and  C_27
REMARK                            x       y       z     vdW  Elec       q    Type
REMARK                         _______ _______ _______ _____ _____    ______ ____
ROOT
ATOM      1  C   UNL     1      -3.333  -1.274   2.076  0.00  0.00    +0.100 C 
ATOM      2  C   UNL     1      -3.318  -2.463   1.089  0.00  0.00    +0.121 C 
ATOM      3  N   UNL     1      -3.447  -3.664   1.948  0.00  0.00    -0.297 N 
ATOM      4  C   UNL     1      -4.421  -3.267   2.993  0.00  0.00    +0.115 C 
ATOM      5  C   UNL     1      -4.061  -1.805   3.323  0.00  0.00    -0.004 C 
ATOM      6  C   UNL     1      -5.328  -0.995   3.580  0.00  0.00    -0.010 C 
ATOM      7  C   UNL     1      -6.003  -1.503   4.857  0.00  0.00    -0.082 C 
ATOM      8  N   UNL     1      -5.076  -1.373   5.988  0.00  0.00    +0.379 N 
ATOM      9  C   UNL     1      -3.902  -2.228   5.775  0.00  0.00    -0.082 C 
ATOM     10  C   UNL     1      -3.139  -1.750   4.537  0.00  0.00    -0.010 C 
ATOM     11  C   UNL     1      -2.820  -4.849   1.809  0.00  0.00    +0.256 C 
ATOM     12  O   UNL     1      -3.033  -5.744   2.600  0.00  0.00    -0.272 OA
ATOM     13  H   UNL     1      -4.780  -0.412   6.069  0.00  0.00    -0.086 HD
ATOM     14  H   UNL     1      -5.543  -1.651   6.838  0.00  0.00    -0.086 HD
ENDROOT
BRANCH   1  16
ATOM     15  N   UNL     1      -1.661   0.413   2.764  0.00  0.00    -0.312 N 
ATOM     16  C   UNL     1      -1.926  -0.864   2.425  0.00  0.00    +0.218 C 
ATOM     17  O   UNL     1      -1.032  -1.683   2.401  0.00  0.00    -0.275 OA
ATOM     18  H   UNL     1      -2.376   1.068   2.784  0.00  0.00    +0.149 HD
BRANCH  15  20
ATOM     19  C   UNL     1      -0.028   0.519   4.582  0.00  0.00    +0.028 C 
ATOM     20  C   UNL     1      -0.292   0.812   3.104  0.00  0.00    +0.072 C 
BRANCH  20  21
ATOM     21  C   UNL     1      -0.117   2.309   2.842  0.00  0.00    +0.003 C 
ATOM     22  C   UNL     1       1.312   2.726   3.196  0.00  0.00    +0.009 C 
ATOM     23  C   UNL     1      -0.382   2.602   1.363  0.00  0.00    +0.009 C 
ENDBRANCH  20  21
ENDBRANCH  15  20
ENDBRANCH   1  16
BRANCH  11  24
ATOM     24  C   UNL     1      -1.855  -5.063   0.671  0.00  0.00    +0.256 C 
ATOM     25  C   UNL     1      -2.611  -4.997  -0.657  0.00  0.00    +0.062 C 
BRANCH  24  26
ATOM     26  O   UNL     1      -1.238  -6.345   0.805  0.00  0.00    -0.480 OA
BRANCH  26  27
ATOM     27  C   UNL     1      -0.019  -6.506   0.227  0.00  0.00    +0.122 A 
ATOM     28  C   UNL     1       0.524  -5.489  -0.544  0.00  0.00    +0.045 A 
ATOM     29  C   UNL     1       1.764  -5.654  -1.130  0.00  0.00    +0.004 A 
ATOM     30  C   UNL     1       2.464  -6.833  -0.949  0.00  0.00    +0.000 A 
ATOM     31  C   UNL     1       1.925  -7.849  -0.181  0.00  0.00    +0.004 A 
ATOM     32  C   UNL     1       0.688  -7.686   0.412  0.00  0.00    +0.045 A 
ENDBRANCH  26  27
ENDBRANCH  24  26
ENDBRANCH  11  24
TORSDOF 6
