REMARK  Name = ZINC39421900
REMARK  10 active torsions:
REMARK  status: ('A' for Active; 'I' for Inactive)
REMARK    1  A    between atoms: C_1  and  C_2
REMARK    2  A    between atoms: C_2  and  C_3
REMARK    3  A    between atoms: C_8  and  C_12
REMARK    4  A    between atoms: C_12  and  C_14
REMARK    5  A    between atoms: C_14  and  C_16
REMARK    6  A    between atoms: C_14  and  S_22
REMARK    7  A    between atoms: S_22  and  C_23
REMARK    8  A    between atoms: C_27  and  C_33
REMARK    9  A    between atoms: N_29  and  C_30
REMARK   10  A    between atoms: C_30  and  C_31
REMARK                            x       y       z     vdW  Elec       q    Type
REMARK                         _______ _______ _______ _____ _____    ______ ____
ROOT
ATOM      1  C   UNL     1      -5.684  -1.870  -4.113  0.00  0.00    +0.150 C 
ENDROOT
BRANCH   1   2
ATOM      2  C   UNL     1      -5.372  -3.330  -4.324  0.00  0.00    -0.027 A 
ATOM      3  C   UNL     1      -5.901  -4.280  -3.470  0.00  0.00    +0.005 A 
ATOM      4  C   UNL     1      -5.615  -5.618  -3.663  0.00  0.00    +0.000 A 
ATOM      5  C   UNL     1      -4.800  -6.007  -4.711  0.00  0.00    +0.000 A 
ATOM      6  C   UNL     1      -4.273  -5.056  -5.565  0.00  0.00    +0.000 A 
ATOM      7  C   UNL     1      -4.562  -3.718  -5.374  0.00  0.00    +0.005 A 
ENDBRANCH   1   2
BRANCH   1   8
ATOM      8  C   UNL     1      -5.240  -1.456  -2.734  0.00  0.00    +0.179 C 
ATOM      9  O   UNL     1      -6.033  -1.460  -1.814  0.00  0.00    -0.291 OA
BRANCH   8  15
ATOM     10  C   UNL     1      -1.110   0.113  -0.403  0.00  0.00    -0.024 A 
ATOM     11  C   UNL     1      -1.704   0.223   0.805  0.00  0.00    +0.005 A 
ATOM     12  C   UNL     1      -3.061  -0.083   0.998  0.00  0.00    +0.001 A 
ATOM     13  C   UNL     1      -3.858  -0.507  -0.008  0.00  0.00    +0.010 A 
ATOM     14  C   UNL     1      -3.339  -0.657  -1.315  0.00  0.00    +0.006 A 
ATOM     15  C   UNL     1      -3.904  -1.063  -2.511  0.00  0.00    +0.025 C 
ATOM     16  C   UNL     1      -2.787  -0.998  -3.530  0.00  0.00    +0.152 C 
ATOM     17  N   UNL     1      -1.601  -0.535  -2.804  0.00  0.00    -0.380 N 
ATOM     18  C   UNL     1      -1.910  -0.336  -1.555  0.00  0.00    +0.046 A 
ATOM     19  H   UNL     1      -0.724  -0.394  -3.194  0.00  0.00    +0.160 HD
BRANCH  10  21
ATOM     20  C   UNL     1       0.485   1.902  -1.040  0.00  0.00    +0.009 C 
ATOM     21  C   UNL     1       0.348   0.451  -0.571  0.00  0.00    +0.034 C 
ENDBRANCH  10  21
ENDBRANCH   8  15
ENDBRANCH   1   8
BRANCH   1  22
ATOM     22  S   UNL     1      -7.471  -1.604  -4.279  0.00  0.00    -0.109 S 
BRANCH  22  23
ATOM     23  C   UNL     1      -7.802  -1.925  -6.033  0.00  0.00    +0.201 C 
ATOM     24  N   UNL     1      -7.442  -0.740  -6.855  0.00  0.00    -0.229 NA
ATOM     25  N   UNL     1      -8.269  -0.908  -8.061  0.00  0.00    -0.238 NA
ATOM     26  C   UNL     1      -9.552  -1.450  -7.556  0.00  0.00    +0.138 C 
ATOM     27  N   UNL     1      -9.254  -2.103  -6.263  0.00  0.00    -0.258 NA
ATOM     28  C   UNL     1     -10.557  -0.315  -7.355  0.00  0.00    +0.042 C 
ATOM     29  H   UNL     1      -6.460  -0.745  -7.087  0.00  0.00    +0.143 HD
ATOM     30  H   UNL     1      -7.836  -1.549  -8.709  0.00  0.00    +0.142 HD
BRANCH  27  31
ATOM     31  C   UNL     1      -9.611  -3.528  -6.295  0.00  0.00    +0.115 C 
BRANCH  31  32
ATOM     32  C   UNL     1      -9.476  -4.111  -4.911  0.00  0.00    -0.019 C 
ATOM     33  C   UNL     1     -10.491  -4.727  -4.358  0.00  0.00    +0.005 C 
ENDBRANCH  31  32
ENDBRANCH  27  31
ENDBRANCH  22  23
ENDBRANCH   1  22
TORSDOF 8
