REMARK  Name = ZINC04973860
REMARK  4 active torsions:
REMARK  status: ('A' for Active; 'I' for Inactive)
REMARK    1  A    between atoms: C_3  and  C_8
REMARK    2  A    between atoms: C_8  and  C_9
REMARK    3  A    between atoms: N_15  and  N_16
REMARK    4  A    between atoms: C_17  and  C_18
REMARK                            x       y       z     vdW  Elec       q    Type
REMARK                         _______ _______ _______ _____ _____    ______ ____
ROOT
ATOM      1  C   UNL     1      -1.770   2.355   1.466  0.00  0.00    +0.144 C 
ATOM      2  C   UNL     1      -3.110   3.070   1.523  0.00  0.00    +0.232 C 
ATOM      3  O   UNL     1      -4.123   2.577   1.072  0.00  0.00    -0.274 OA
ATOM      4  N   UNL     1      -3.102   4.263   2.094  0.00  0.00    -0.263 N 
ATOM      5  C   UNL     1      -1.952   4.827   2.608  0.00  0.00    +0.183 C 
ATOM      6  N   UNL     1      -1.813   5.996   3.196  0.00  0.00    -0.127 NA
ATOM      7  S   UNL     1      -0.696   3.597   2.288  0.00  0.00    -0.075 S 
ATOM      8  H   UNL     1      -3.933   4.759   2.154  0.00  0.00    +0.157 HD
ENDROOT
BRANCH   6   9
ATOM      9  N   UNL     1      -2.924   6.834   3.360  0.00  0.00    -0.154 NA
ATOM     10  C   UNL     1      -2.785   7.996   3.944  0.00  0.00    +0.150 C 
BRANCH  10  11
ATOM     11  C   UNL     1      -3.945   8.871   4.116  0.00  0.00    +0.032 A 
ATOM     12  C   UNL     1      -4.015  10.126   4.700  0.00  0.00    +0.017 A 
ATOM     13  C   UNL     1      -5.235  10.759   4.743  0.00  0.00    +0.008 A 
ATOM     14  C   UNL     1      -6.324  10.141   4.217  0.00  0.00    +0.046 A 
ATOM     15  S   UNL     1      -5.640   8.605   3.620  0.00  0.00    -0.096 S 
ENDBRANCH  10  11
ENDBRANCH   6   9
BRANCH   1  16
ATOM     16  C   UNL     1      -1.332   2.114   0.020  0.00  0.00    +0.059 C 
BRANCH  16  19
ATOM     17  C   UNL     1       1.208  -0.680  -0.013  0.00  0.00    +0.002 A 
ATOM     18  C   UNL     1       0.002  -0.004   0.002  0.00  0.00    +0.004 A 
ATOM     19  C   UNL     1      -0.017   1.378   0.010  0.00  0.00    -0.044 A 
ATOM     20  C   UNL     1       1.171   2.086   0.002  0.00  0.00    +0.023 A 
ATOM     21  C   UNL     1       2.378   1.410  -0.013  0.00  0.00    +0.041 A 
ATOM     22  C   UNL     1       2.396   0.027  -0.021  0.00  0.00    +0.020 A 
ATOM     23 CL   UNL     1       3.870   2.298  -0.023  0.00  0.00    -0.084 Cl
ENDBRANCH  16  19
ENDBRANCH   1  16
TORSDOF 4
