REMARK  Name = ZINC08896652
REMARK  10 active torsions:
REMARK  status: ('A' for Active; 'I' for Inactive)
REMARK    1  A    between atoms: C_1  and  C_2
REMARK    2  A    between atoms: C_2  and  C_3
REMARK    3  A    between atoms: C_2  and  C_4
REMARK    4  A    between atoms: C_2  and  C_5
REMARK    5  A    between atoms: C_12  and  N_17
REMARK    6  A    between atoms: C_13  and  C_14
REMARK    7  A    between atoms: N_17  and  C_18
REMARK    8  A    between atoms: C_18  and  N_20
REMARK    9  A    between atoms: C_21  and  C_23
REMARK   10  A    between atoms: C_26  and  C_28
REMARK                            x       y       z     vdW  Elec       q    Type
REMARK                         _______ _______ _______ _____ _____    ______ ____
ROOT
ATOM      1  N   UNL     1      -0.011   0.966   0.007  0.00  0.00    -0.291 N 
ATOM      2  H   UNL     1       0.002  -0.004   0.002  0.00  0.00    +0.154 HD
ENDROOT
BRANCH   1   9
ATOM      3  C   UNL     1       5.484   4.204  -0.407  0.00  0.00    -0.000 C 
ATOM      4  C   UNL     1       5.863   2.971   0.419  0.00  0.00    +0.009 C 
ATOM      5  C   UNL     1       5.037   1.766  -0.036  0.00  0.00    +0.037 C 
ATOM      6  C   UNL     1       3.562   2.148  -0.021  0.00  0.00    -0.023 A 
ATOM      7  C   UNL     1       3.179   3.443  -0.010  0.00  0.00    -0.004 A 
ATOM      8  S   UNL     1       1.410   3.392   0.007  0.00  0.00    -0.077 S 
ATOM      9  C   UNL     1       1.179   1.675  -0.000  0.00  0.00    +0.084 A 
ATOM     10  C   UNL     1       2.477   1.182  -0.010  0.00  0.00    +0.068 A 
ATOM     11  C   UNL     1       4.069   4.648  -0.012  0.00  0.00    +0.046 C 
BRANCH  10  12
ATOM     12  C   UNL     1       2.743  -0.260  -0.012  0.00  0.00    +0.244 C 
ATOM     13  O   UNL     1       2.846  -0.857  -1.068  0.00  0.00    -0.270 OA
ATOM     14  N   UNL     1       2.872  -0.923   1.154  0.00  0.00    -0.325 N 
ATOM     15  H   UNL     1       2.790  -0.447   1.994  0.00  0.00    +0.145 HD
ATOM     16  H   UNL     1       3.048  -1.877   1.152  0.00  0.00    +0.145 HD
ENDBRANCH  10  12
BRANCH   3  18
ATOM     17  C   UNL     1       6.446   5.676   1.368  0.00  0.00    +0.011 C 
ATOM     18  C   UNL     1       6.475   5.335  -0.123  0.00  0.00    -0.035 C 
ATOM     19  C   UNL     1       7.885   4.889  -0.517  0.00  0.00    +0.011 C 
ATOM     20  C   UNL     1       6.085   6.570  -0.936  0.00  0.00    +0.011 C 
ENDBRANCH   3  18
ENDBRANCH   1   9
BRANCH   1  21
ATOM     21  C   UNL     1      -1.187   1.624   0.017  0.00  0.00    +0.142 C 
ATOM     22  S   UNL     1      -1.210   3.336   0.026  0.00  0.00    -0.018 S 
BRANCH  21  23
ATOM     23  N   UNL     1      -2.345   0.934   0.018  0.00  0.00    -0.261 N 
ATOM     24  C   UNL     1      -3.522   1.592   0.027  0.00  0.00    +0.285 C 
ATOM     25  O   UNL     1      -3.538   2.809   0.034  0.00  0.00    -0.266 OA
ATOM     26  H   UNL     1      -2.332  -0.036   0.013  0.00  0.00    +0.157 HD
BRANCH  24  27
ATOM     27  C   UNL     1      -4.779   0.843   0.029  0.00  0.00    +0.190 A 
ATOM     28  C   UNL     1      -6.046   1.387   0.038  0.00  0.00    +0.055 A 
ATOM     29  C   UNL     1      -6.945   0.317   0.037  0.00  0.00    +0.050 A 
ATOM     30  C   UNL     1      -6.204  -0.830   0.027  0.00  0.00    +0.136 A 
ATOM     31  O   UNL     1      -4.901  -0.501   0.017  0.00  0.00    -0.450 OA
BRANCH  30  32
ATOM     32  C   UNL     1      -6.745  -2.205   0.022  0.00  0.00    +0.019 A 
ATOM     33  C   UNL     1      -5.877  -3.300   0.012  0.00  0.00    +0.011 A 
ATOM     34  C   UNL     1      -6.388  -4.581   0.008  0.00  0.00    +0.002 A 
ATOM     35  C   UNL     1      -7.757  -4.783   0.015  0.00  0.00    +0.020 A 
ATOM     36  C   UNL     1      -8.623  -3.703   0.025  0.00  0.00    +0.042 A 
ATOM     37  C   UNL     1      -8.125  -2.415   0.034  0.00  0.00    +0.031 A 
ATOM     38 CL   UNL     1     -10.339  -3.968   0.034  0.00  0.00    -0.084 Cl
ENDBRANCH  30  32
ENDBRANCH  24  27
ENDBRANCH  21  23
ENDBRANCH   1  21
TORSDOF 7
