REMARK  Name = ZINC02746695
REMARK  9 active torsions:
REMARK  status: ('A' for Active; 'I' for Inactive)
REMARK    1  A    between atoms: C_1  and  C_2
REMARK    2  A    between atoms: C_2  and  C_3
REMARK    3  A    between atoms: C_2  and  O_4
REMARK    4  A    between atoms: O_4  and  C_5
REMARK    5  A    between atoms: C_5  and  C_7
REMARK    6  A    between atoms: C_11  and  N_12
REMARK    7  A    between atoms: C_13  and  C_15
REMARK    8  A    between atoms: C_18  and  C_20
REMARK    9  A    between atoms: C_20  and  N_21
REMARK                            x       y       z     vdW  Elec       q    Type
REMARK                         _______ _______ _______ _____ _____    ______ ____
ROOT
ATOM      1  N   UNL     1       2.418   5.561   5.217  0.00  0.00    -0.273 N 
ATOM      2  C   UNL     1       3.418   4.921   4.580  0.00  0.00    +0.284 C 
ATOM      3  O   UNL     1       4.445   4.651   5.175  0.00  0.00    -0.266 OA
ATOM      4  H   UNL     1       1.490   5.804   4.679  0.00  0.00    +0.156 HD
ENDROOT
BRANCH   1   9
ATOM      5  C   UNL     1       1.651   6.573   7.368  0.00  0.00    +0.091 A 
ATOM      6  C   UNL     1       2.046   6.819   8.745  0.00  0.00    -0.021 A 
ATOM      7  C   UNL     1       3.278   6.378   9.077  0.00  0.00    -0.004 A 
ATOM      8  S   UNL     1       3.910   5.639   7.597  0.00  0.00    -0.077 S 
ATOM      9  C   UNL     1       2.558   5.912   6.549  0.00  0.00    +0.087 A 
ATOM     10  C   UNL     1       3.950   6.495  10.410  0.00  0.00    +0.043 C 
ATOM     11  C   UNL     1       3.182   7.525  11.251  0.00  0.00    +0.005 C 
ATOM     12  C   UNL     1       1.685   7.210  11.169  0.00  0.00    +0.005 C 
ATOM     13  C   UNL     1       1.163   7.525   9.766  0.00  0.00    +0.037 C 
BRANCH   5  14
ATOM     14  C   UNL     1       0.345   7.002   6.864  0.00  0.00    +0.342 C 
ATOM     15  O   UNL     1      -0.612   6.255   6.942  0.00  0.00    -0.245 OA
BRANCH  14  16
ATOM     16  O   UNL     1       0.204   8.225   6.312  0.00  0.00    -0.458 OA
BRANCH  16  18
ATOM     17  C   UNL     1      -1.312  10.096   5.950  0.00  0.00    +0.052 C 
ATOM     18  C   UNL     1      -1.120   8.583   5.834  0.00  0.00    +0.171 C 
ATOM     19  C   UNL     1      -1.264   8.162   4.370  0.00  0.00    +0.052 C 
ENDBRANCH  16  18
ENDBRANCH  14  16
ENDBRANCH   5  14
ENDBRANCH   1   9
BRANCH   2  20
ATOM     20  C   UNL     1       3.270   4.549   3.169  0.00  0.00    +0.190 A 
ATOM     21  C   UNL     1       4.200   3.902   2.408  0.00  0.00    +0.055 A 
ATOM     22  C   UNL     1       3.639   3.748   1.130  0.00  0.00    +0.047 A 
ATOM     23  C   UNL     1       2.410   4.309   1.165  0.00  0.00    +0.127 A 
ATOM     24  O   UNL     1       2.190   4.788   2.396  0.00  0.00    -0.453 OA
BRANCH  23  25
ATOM     25  C   UNL     1       1.445   4.379   0.010  0.00  0.00    +0.217 C 
BRANCH  25  26
ATOM     26  N   UNL     1       0.594   3.186   0.013  0.00  0.00    -0.263 N 
ATOM     27  C   UNL     1      -0.757   3.174   0.025  0.00  0.00    +0.128 A 
ATOM     28  C   UNL     1      -1.157   1.881   0.017  0.00  0.00    +0.078 A 
ATOM     29  C   UNL     1      -0.013   1.076   0.008  0.00  0.00    +0.154 A 
ATOM     30  N   UNL     1       1.037   1.857   0.002  0.00  0.00    -0.178 NA
ATOM     31 CL   UNL     1      -2.800   1.320   0.022  0.00  0.00    -0.080 Cl
ENDBRANCH  25  26
ENDBRANCH  23  25
ENDBRANCH   2  20
TORSDOF 7
