REMARK  Name = ZINC38653879
REMARK  10 active torsions:
REMARK  status: ('A' for Active; 'I' for Inactive)
REMARK    1  A    between atoms: C_2  and  C_3
REMARK    2  A    between atoms: C_3  and  O_4
REMARK    3  A    between atoms: O_4  and  C_5
REMARK    4  A    between atoms: C_8  and  C_11
REMARK    5  A    between atoms: C_11  and  O_13
REMARK    6  A    between atoms: O_13  and  C_14
REMARK    7  A    between atoms: C_21  and  N_36
REMARK    8  A    between atoms: C_22  and  C_34
REMARK    9  A    between atoms: C_23  and  C_25
REMARK   10  A    between atoms: C_29  and  N_31
REMARK                            x       y       z     vdW  Elec       q    Type
REMARK                         _______ _______ _______ _____ _____    ______ ____
ROOT
ATOM      1  C   UNL     1      -6.901  -6.830  -2.364  0.00  0.00    +0.135 A 
ATOM      2  C   UNL     1      -7.971  -6.435  -1.574  0.00  0.00    +0.047 A 
ATOM      3  C   UNL     1      -9.157  -7.140  -1.615  0.00  0.00    +0.012 A 
ATOM      4  C   UNL     1      -9.285  -8.242  -2.442  0.00  0.00    +0.008 A 
ATOM      5  C   UNL     1      -8.219  -8.642  -3.233  0.00  0.00    +0.138 A 
ATOM      6  C   UNL     1      -7.027  -7.930  -3.196  0.00  0.00    +0.093 A 
ATOM      7  O   UNL     1      -8.325  -9.719  -4.050  0.00  0.00    -0.441 OA
ATOM      8  C   UNL     1      -9.537 -10.178  -4.401  0.00  0.00    +0.199 C 
ATOM      9  C   UNL     1     -10.651  -9.872  -3.694  0.00  0.00    +0.098 C 
ATOM     10  C   UNL     1     -10.587  -8.998  -2.473  0.00  0.00    +0.098 C 
ENDROOT
BRANCH  10  11
ATOM     11  C   UNL     1     -10.695  -9.856  -1.239  0.00  0.00    -0.033 A 
ATOM     12  C   UNL     1      -9.743 -10.827  -0.986  0.00  0.00    +0.005 A 
ATOM     13  C   UNL     1      -9.842 -11.614   0.146  0.00  0.00    +0.003 A 
ATOM     14  C   UNL     1     -10.893 -11.430   1.026  0.00  0.00    +0.033 A 
ATOM     15  C   UNL     1     -11.844 -10.459   0.773  0.00  0.00    +0.126 A 
ATOM     16  C   UNL     1     -11.742  -9.669  -0.357  0.00  0.00    +0.037 A 
BRANCH  15  17
ATOM     17  N   UNL     1     -12.969 -10.263   1.715  0.00  0.00    +0.056 N 
ATOM     18  O   UNL     1     -13.056 -10.952   2.705  0.00  0.00    -0.126 OA
ATOM     19  O   UNL     1     -13.800  -9.414   1.494  0.00  0.00    -0.126 OA
ENDBRANCH  15  17
ENDBRANCH  10  11
BRANCH   8  20
ATOM     20  N   UNL     1      -9.651 -10.981  -5.508  0.00  0.00    -0.328 N 
ATOM     21  H   UNL     1      -8.862 -11.210  -6.024  0.00  0.00    +0.145 HD
ATOM     22  H   UNL     1     -10.520 -11.321  -5.774  0.00  0.00    +0.145 HD
ENDBRANCH   8  20
BRANCH   9  23
ATOM     23  C   UNL     1     -11.916 -10.392  -4.118  0.00  0.00    +0.101 C 
ATOM     24  N   UNL     1     -12.920 -10.805  -4.455  0.00  0.00    -0.191 NA
ENDBRANCH   9  23
BRANCH   1  25
ATOM     25  O   UNL     1      -5.733  -6.137  -2.324  0.00  0.00    -0.422 OA
BRANCH  25  26
ATOM     26  C   UNL     1      -5.464  -5.293  -3.340  0.00  0.00    +0.344 C 
ATOM     27  O   UNL     1      -6.210  -5.236  -4.297  0.00  0.00    -0.245 OA
BRANCH  26  31
ATOM     28  C   UNL     1      -2.007  -2.832  -3.195  0.00  0.00    +0.121 A 
ATOM     29  C   UNL     1      -2.860  -2.765  -4.291  0.00  0.00    +0.046 A 
ATOM     30  C   UNL     1      -3.982  -3.562  -4.342  0.00  0.00    +0.018 A 
ATOM     31  C   UNL     1      -4.263  -4.438  -3.290  0.00  0.00    +0.060 A 
ATOM     32  C   UNL     1      -3.403  -4.502  -2.190  0.00  0.00    +0.018 A 
ATOM     33  C   UNL     1      -2.280  -3.706  -2.150  0.00  0.00    +0.046 A 
BRANCH  28  34
ATOM     34  O   UNL     1      -0.903  -2.045  -3.149  0.00  0.00    -0.488 OA
BRANCH  34  35
ATOM     35  C   UNL     1      -0.683  -1.170  -4.257  0.00  0.00    +0.256 C 
BRANCH  35  37
ATOM     36  C   UNL     1       1.447  -0.238  -5.004  0.00  0.00    +0.007 C 
ATOM     37  C   UNL     1       0.581  -0.381  -4.031  0.00  0.00    +0.006 C 
ENDBRANCH  35  37
ENDBRANCH  34  35
ENDBRANCH  28  34
ENDBRANCH  26  31
ENDBRANCH  25  26
ENDBRANCH   1  25
TORSDOF 10
