REMARK  Name = ZINC10289322
REMARK  10 active torsions:
REMARK  status: ('A' for Active; 'I' for Inactive)
REMARK    1  A    between atoms: C_1  and  C_2
REMARK    2  A    between atoms: C_2  and  N_3
REMARK    3  A    between atoms: N_3  and  C_4
REMARK    4  A    between atoms: C_14  and  C_16
REMARK    5  A    between atoms: C_16  and  S_17
REMARK    6  A    between atoms: S_17  and  C_18
REMARK    7  A    between atoms: C_21  and  C_30
REMARK    8  A    between atoms: N_22  and  C_23
REMARK    9  A    between atoms: C_23  and  C_24
REMARK   10  A    between atoms: C_30  and  N_69
REMARK                            x       y       z     vdW  Elec       q    Type
REMARK                         _______ _______ _______ _____ _____    ______ ____
ROOT
ATOM      1  C   UNL     1       1.243  -0.433  -0.012  0.00  0.00    +0.192 A 
ATOM      2  N   UNL     1       0.002  -0.004   0.002  0.00  0.00    -0.123 NA
ATOM      3  N   UNL     1      -0.015   1.281   0.009  0.00  0.00    -0.135 NA
ATOM      4  C   UNL     1       1.202   1.745   0.000  0.00  0.00    +0.118 A 
ATOM      5  N   UNL     1       2.047   0.670  -0.014  0.00  0.00    -0.303 N 
ENDROOT
BRANCH   1   6
ATOM      6  S   UNL     1       1.770  -2.114  -0.027  0.00  0.00    -0.077 S 
BRANCH   6   7
ATOM      7  C   UNL     1       0.163  -2.948  -0.016  0.00  0.00    +0.173 C 
BRANCH   7   9
ATOM      8  N   UNL     1      -0.692  -5.269  -0.020  0.00  0.00    -0.270 N 
ATOM      9  C   UNL     1       0.371  -4.440  -0.026  0.00  0.00    +0.230 C 
ATOM     10  O   UNL     1       1.495  -4.896  -0.040  0.00  0.00    -0.274 OA
BRANCH   8  11
ATOM     11  C   UNL     1      -0.499  -6.651  -0.030  0.00  0.00    +0.044 A 
ATOM     12  C   UNL     1      -0.392  -7.347   1.155  0.00  0.00    +0.024 A 
ATOM     13  C   UNL     1      -0.200  -8.725   1.157  0.00  0.00    +0.002 A 
ATOM     14  C   UNL     1      -0.113  -9.424  -0.009  0.00  0.00    +0.008 A 
ATOM     15  C   UNL     1      -0.218  -8.753  -1.238  0.00  0.00    -0.016 A 
ATOM     16  C   UNL     1      -0.419  -7.350  -1.253  0.00  0.00    +0.004 A 
ATOM     17  C   UNL     1      -0.519  -6.681  -2.482  0.00  0.00    +0.010 A 
ATOM     18  C   UNL     1      -0.432  -7.387  -3.643  0.00  0.00    +0.001 A 
ATOM     19  C   UNL     1      -0.239  -8.767  -3.631  0.00  0.00    +0.001 A 
ATOM     20  C   UNL     1      -0.133  -9.448  -2.457  0.00  0.00    +0.008 A 
ENDBRANCH   8  11
BRANCH   8  22
ATOM     21  C   UNL     1      -2.537  -4.519  -1.440  0.00  0.00    +0.025 C 
ATOM     22  C   UNL     1      -2.050  -4.718  -0.004  0.00  0.00    +0.110 C 
ENDBRANCH   8  22
ENDBRANCH   7   9
ENDBRANCH   6   7
ENDBRANCH   1   6
BRANCH   5  23
ATOM     23  C   UNL     1       3.512   0.696  -0.029  0.00  0.00    +0.160 C 
BRANCH  23  24
ATOM     24  C   UNL     1       4.000   0.713  -1.454  0.00  0.00    -0.028 A 
ATOM     25  C   UNL     1       4.251  -0.476  -2.113  0.00  0.00    +0.005 A 
ATOM     26  C   UNL     1       4.694  -0.461  -3.422  0.00  0.00    +0.000 A 
ATOM     27  C   UNL     1       4.896   0.744  -4.069  0.00  0.00    +0.000 A 
ATOM     28  C   UNL     1       4.650   1.933  -3.409  0.00  0.00    +0.000 A 
ATOM     29  C   UNL     1       4.202   1.918  -2.102  0.00  0.00    +0.005 A 
ENDBRANCH  23  24
ENDBRANCH   5  23
BRANCH   4  30
ATOM     30  C   UNL     1       1.605   3.197   0.004  0.00  0.00    -0.001 C 
BRANCH  30  36
ATOM     31  C   UNL     1       0.456   3.651   2.086  0.00  0.00    -0.078 C 
ATOM     32  C   UNL     1       0.666   3.999   3.561  0.00  0.00    -0.019 C 
ATOM     33  C   UNL     1       1.312   5.384   3.666  0.00  0.00    -0.004 C 
ATOM     34  C   UNL     1       2.633   5.383   2.892  0.00  0.00    -0.019 C 
ATOM     35  C   UNL     1       2.365   4.994   1.436  0.00  0.00    -0.078 C 
ATOM     36  N   UNL     1       1.767   3.642   1.403  0.00  0.00    +0.384 N 
ATOM     37  H   UNL     1       2.392   2.989   1.890  0.00  0.00    -0.081 HD
ENDBRANCH  30  36
ENDBRANCH   4  30
TORSDOF 9
