REMARK  Name = ZINC39732098
REMARK  7 active torsions:
REMARK  status: ('A' for Active; 'I' for Inactive)
REMARK    1  A    between atoms: C_1  and  C_2
REMARK    2  A    between atoms: C_4  and  C_23
REMARK    3  A    between atoms: C_10  and  S_14
REMARK    4  A    between atoms: S_14  and  C_15
REMARK    5  A    between atoms: C_15  and  C_16
REMARK    6  A    between atoms: C_30  and  O_32
REMARK    7  A    between atoms: O_32  and  C_33
REMARK                            x       y       z     vdW  Elec       q    Type
REMARK                         _______ _______ _______ _____ _____    ______ ____
ROOT
ATOM      1  C   UNL     1      -0.018   1.503   0.010  0.00  0.00    +0.066 C 
ATOM      2  C   UNL     1       0.002  -0.004   0.002  0.00  0.00    +0.051 C 
ATOM      3  C   UNL     1      -1.196  -0.704   0.004  0.00  0.00    +0.066 C 
ATOM      4  C   UNL     1      -1.178  -2.215   0.060  0.00  0.00    +0.077 C 
ATOM      5  C   UNL     1       0.037  -2.715  -0.711  0.00  0.00    +0.157 C 
ATOM      6  C   UNL     1       1.242  -1.938  -0.224  0.00  0.00    +0.145 C 
ATOM      7  N   UNL     1       2.341  -2.628   0.037  0.00  0.00    -0.208 NA
ATOM      8  C   UNL     1       2.361  -3.956  -0.037  0.00  0.00    +0.182 C 
ATOM      9  N   UNL     1       1.305  -4.728  -0.253  0.00  0.00    -0.154 NA
ATOM     10  C   UNL     1       0.108  -4.222  -0.596  0.00  0.00    +0.250 C 
ATOM     11  O   UNL     1      -0.864  -4.926  -0.794  0.00  0.00    -0.273 OA
ATOM     12  N   UNL     1       1.162  -0.640  -0.013  0.00  0.00    -0.236 NA
ATOM     13  C   UNL     1      -2.398  -0.025  -0.044  0.00  0.00    +0.337 C 
ATOM     14  O   UNL     1      -2.409   1.321  -0.093  0.00  0.00    -0.245 OA
ENDROOT
BRANCH   4  15
ATOM     15  C   UNL     1      -1.093  -2.667   1.494  0.00  0.00    -0.038 A 
ATOM     16  C   UNL     1      -0.017  -2.289   2.276  0.00  0.00    +0.007 A 
ATOM     17  C   UNL     1       0.062  -2.703   3.592  0.00  0.00    +0.038 A 
ATOM     18  C   UNL     1      -0.938  -3.497   4.128  0.00  0.00    +0.123 A 
ATOM     19  C   UNL     1      -2.015  -3.876   3.345  0.00  0.00    +0.038 A 
ATOM     20  C   UNL     1      -2.094  -3.456   2.030  0.00  0.00    +0.007 A 
ATOM     21  F   UNL     1      -0.862  -3.903   5.414  0.00  0.00    -0.205 F 
ENDBRANCH   4  15
BRANCH  13  22
ATOM     22  O   UNL     1      -3.558  -0.708  -0.042  0.00  0.00    -0.465 OA
ATOM     23  C   UNL     1      -4.763   0.059  -0.093  0.00  0.00    +0.280 C 
ENDBRANCH  13  22
BRANCH   8  24
ATOM     24  S   UNL     1       3.918  -4.754   0.167  0.00  0.00    -0.084 S 
BRANCH  24  25
ATOM     25  C   UNL     1       3.532  -6.519   0.001  0.00  0.00    +0.112 C 
BRANCH  25  26
ATOM     26  C   UNL     1       4.795  -7.327   0.157  0.00  0.00    -0.037 A 
ATOM     27  C   UNL     1       5.567  -7.623  -0.951  0.00  0.00    +0.004 A 
ATOM     28  C   UNL     1       6.725  -8.364  -0.808  0.00  0.00    +0.000 A 
ATOM     29  C   UNL     1       7.112  -8.807   0.443  0.00  0.00    +0.000 A 
ATOM     30  C   UNL     1       6.340  -8.511   1.551  0.00  0.00    +0.000 A 
ATOM     31  C   UNL     1       5.184  -7.766   1.408  0.00  0.00    +0.004 A 
ENDBRANCH  25  26
ENDBRANCH  24  25
ENDBRANCH   8  24
TORSDOF 5
