REMARK  Name = ZINC24773298
REMARK  5 active torsions:
REMARK  status: ('A' for Active; 'I' for Inactive)
REMARK    1  A    between atoms: C_6  and  S_7
REMARK    2  A    between atoms: S_7  and  C_8
REMARK    3  A    between atoms: C_8  and  C_9
REMARK    4  A    between atoms: C_24  and  O_32
REMARK    5  A    between atoms: C_27  and  C_29
REMARK                            x       y       z     vdW  Elec       q    Type
REMARK                         _______ _______ _______ _____ _____    ______ ____
ROOT
ATOM      1  C   UNL     1      -1.494  -2.058  -0.025  0.00  0.00    +0.142 A 
ATOM      2  N   UNL     1      -1.549  -2.705   1.126  0.00  0.00    -0.216 NA
ATOM      3  C   UNL     1      -2.024  -3.936   1.220  0.00  0.00    +0.134 A 
ATOM      4  C   UNL     1      -2.493  -4.589   0.046  0.00  0.00    +0.051 A 
ATOM      5  C   UNL     1      -3.054  -5.934  -0.093  0.00  0.00    -0.025 A 
ATOM      6  C   UNL     1      -3.426  -6.316  -1.332  0.00  0.00    -0.004 A 
ATOM      7  S   UNL     1      -3.058  -4.930  -2.374  0.00  0.00    -0.073 S 
ATOM      8  C   UNL     1      -2.402  -3.836  -1.142  0.00  0.00    +0.114 A 
ATOM      9  N   UNL     1      -1.919  -2.609  -1.145  0.00  0.00    -0.224 NA
ATOM     10  C   UNL     1      -4.021  -7.631  -1.736  0.00  0.00    +0.043 C 
ATOM     11  C   UNL     1      -3.807  -8.632  -0.591  0.00  0.00    +0.005 C 
ATOM     12  C   UNL     1      -4.223  -7.968   0.725  0.00  0.00    +0.005 C 
ATOM     13  C   UNL     1      -3.220  -6.876   1.096  0.00  0.00    +0.037 C 
ATOM     14  N   UNL     1      -2.065  -4.580   2.444  0.00  0.00    -0.300 N 
ATOM     15  C   UNL     1      -0.724  -5.043   2.842  0.00  0.00    +0.138 C 
ATOM     16  C   UNL     1      -0.415  -4.419   4.219  0.00  0.00    +0.134 C 
ATOM     17  C   UNL     1      -1.825  -4.097   4.781  0.00  0.00    +0.064 C 
ATOM     18  C   UNL     1      -2.586  -3.683   3.497  0.00  0.00    +0.163 C 
ENDROOT
BRANCH  18  19
ATOM     19  C   UNL     1      -4.068  -3.888   3.677  0.00  0.00    +0.231 C 
ATOM     20  O   UNL     1      -4.654  -4.704   2.997  0.00  0.00    -0.274 OA
ATOM     21  N   UNL     1      -4.743  -3.165   4.592  0.00  0.00    -0.328 N 
ATOM     22  H   UNL     1      -5.824  -3.315   4.723  0.00  0.00    +0.145 HD
ATOM     23  H   UNL     1      -4.212  -2.425   5.209  0.00  0.00    +0.145 HD
ENDBRANCH  18  19
BRANCH  16  24
ATOM     24  O   UNL     1       0.261  -5.357   5.059  0.00  0.00    -0.390 OA
ATOM     25  H   UNL     1       0.555  -5.069   6.080  0.00  0.00    +0.210 HD
ENDBRANCH  16  24
BRANCH   1  26
ATOM     26  C   UNL     1      -0.940  -0.657  -0.056  0.00  0.00    +0.150 C 
BRANCH  26  27
ATOM     27  S   UNL     1       0.850  -0.721  -0.347  0.00  0.00    -0.117 S 
BRANCH  27  33
ATOM     28  C   UNL     1       0.396   1.972  -0.169  0.00  0.00    +0.016 A 
ATOM     29  C   UNL     1       0.785   3.296  -0.171  0.00  0.00    +0.021 A 
ATOM     30  C   UNL     1       2.113   3.629  -0.371  0.00  0.00    +0.041 A 
ATOM     31  C   UNL     1       3.057   2.635  -0.564  0.00  0.00    +0.021 A 
ATOM     32  C   UNL     1       2.675   1.308  -0.557  0.00  0.00    +0.016 A 
ATOM     33  C   UNL     1       1.341   0.971  -0.356  0.00  0.00    +0.008 A 
ATOM     34 CL   UNL     1       2.597   5.296  -0.381  0.00  0.00    -0.084 Cl
ENDBRANCH  27  33
ENDBRANCH  26  27
ENDBRANCH   1  26
TORSDOF 5
