REMARK  Name = ZINC44962934
REMARK  4 active torsions:
REMARK  status: ('A' for Active; 'I' for Inactive)
REMARK    1  A    between atoms: C_4  and  C_7
REMARK    2  A    between atoms: C_7  and  N_8
REMARK    3  A    between atoms: C_13  and  C_33
REMARK    4  A    between atoms: C_24  and  C_27
REMARK                            x       y       z     vdW  Elec       q    Type
REMARK                         _______ _______ _______ _____ _____    ______ ____
ROOT
ATOM      1  N   UNL     1       4.363  -0.626   1.548  0.00  0.00    +0.393 N 
ATOM      2  C   UNL     1       4.761   0.711   2.023  0.00  0.00    -0.009 C 
ATOM      3  C   UNL     1       3.924   1.153   3.202  0.00  0.00    +0.151 C 
ATOM      4  O   UNL     1       4.431   0.645   4.433  0.00  0.00    -0.349 OA
ATOM      5  C   UNL     1       5.805   0.980   4.650  0.00  0.00    +0.282 C 
ATOM      6  O   UNL     1       6.588   0.361   3.636  0.00  0.00    -0.343 OA
ATOM      7  C   UNL     1       6.260   0.679   2.317  0.00  0.00    +0.138 C 
ATOM      8  C   UNL     1       6.759  -0.499   1.423  0.00  0.00    +0.138 C 
ATOM      9  C   UNL     1       5.568  -1.475   1.532  0.00  0.00    -0.009 C 
ATOM     10  C   UNL     1       5.547  -2.453   0.370  0.00  0.00    +0.151 C 
ATOM     11  O   UNL     1       5.692  -1.758  -0.871  0.00  0.00    -0.349 OA
ATOM     12  C   UNL     1       6.896  -0.985  -0.934  0.00  0.00    +0.282 C 
ATOM     13  O   UNL     1       6.870   0.013   0.093  0.00  0.00    -0.343 OA
ATOM     14  H   UNL     1       3.676  -1.021   2.172  0.00  0.00    -0.080 HD
ENDROOT
BRANCH  12  15
ATOM     15  C   UNL     1       8.086  -1.884  -0.723  0.00  0.00    +0.008 A 
ATOM     16  C   UNL     1       8.058  -3.188  -1.181  0.00  0.00    +0.008 A 
ATOM     17  C   UNL     1       9.150  -4.013  -0.987  0.00  0.00    +0.000 A 
ATOM     18  C   UNL     1      10.271  -3.534  -0.335  0.00  0.00    +0.000 A 
ATOM     19  C   UNL     1      10.299  -2.230   0.123  0.00  0.00    +0.000 A 
ATOM     20  C   UNL     1       9.209  -1.404  -0.075  0.00  0.00    +0.008 A 
ENDBRANCH  12  15
BRANCH   5  21
ATOM     21  C   UNL     1       6.239   0.483   6.005  0.00  0.00    +0.008 A 
ATOM     22  C   UNL     1       7.278  -0.423   6.108  0.00  0.00    +0.008 A 
ATOM     23  C   UNL     1       7.676  -0.879   7.351  0.00  0.00    +0.000 A 
ATOM     24  C   UNL     1       7.036  -0.429   8.490  0.00  0.00    +0.000 A 
ATOM     25  C   UNL     1       5.998   0.478   8.387  0.00  0.00    +0.000 A 
ATOM     26  C   UNL     1       5.603   0.938   7.145  0.00  0.00    +0.008 A 
ENDBRANCH   5  21
BRANCH   1  27
ATOM     27  C   UNL     1       3.806  -0.527   0.192  0.00  0.00    -0.042 C 
BRANCH  27  31
ATOM     28  C   UNL     1       0.129   1.643   0.316  0.00  0.00    +0.000 A 
ATOM     29  C   UNL     1       1.322   2.315   0.126  0.00  0.00    +0.000 A 
ATOM     30  C   UNL     1       2.512   1.613   0.086  0.00  0.00    +0.002 A 
ATOM     31  C   UNL     1       2.509   0.239   0.237  0.00  0.00    -0.064 A 
ATOM     32  C   UNL     1       1.316  -0.433   0.428  0.00  0.00    +0.002 A 
ATOM     33  C   UNL     1       0.126   0.269   0.466  0.00  0.00    +0.000 A 
ENDBRANCH  27  31
ENDBRANCH   1  27
TORSDOF 4
