REMARK  Name = ZINC05021513
REMARK  7 active torsions:
REMARK  status: ('A' for Active; 'I' for Inactive)
REMARK    1  A    between atoms: C_1  and  C_2
REMARK    2  A    between atoms: C_2  and  N_3
REMARK    3  A    between atoms: C_7  and  C_9
REMARK    4  A    between atoms: C_9  and  O_10
REMARK    5  A    between atoms: O_10  and  C_11
REMARK    6  A    between atoms: C_11  and  C_13
REMARK    7  A    between atoms: C_22  and  C_25
REMARK                            x       y       z     vdW  Elec       q    Type
REMARK                         _______ _______ _______ _____ _____    ______ ____
ROOT
ATOM      1  C   UNL     1      -6.039   2.153   0.042  0.00  0.00    +0.069 C 
ATOM      2  C   UNL     1      -6.010   3.029   1.296  0.00  0.00    +0.021 C 
ATOM      3  C   UNL     1      -7.236   3.945   1.307  0.00  0.00    -0.009 C 
ATOM      4  C   UNL     1      -8.508   3.094   1.308  0.00  0.00    +0.007 C 
ATOM      5  C   UNL     1      -8.537   2.218   0.055  0.00  0.00    -0.009 C 
ATOM      6  C   UNL     1      -7.311   1.302   0.044  0.00  0.00    +0.021 C 
ATOM      7  C   UNL     1      -8.520   3.107  -1.190  0.00  0.00    +0.015 C 
ATOM      8  C   UNL     1      -7.248   3.958  -1.191  0.00  0.00    -0.003 C 
ATOM      9  C   UNL     1      -7.219   4.834   0.063  0.00  0.00    +0.015 C 
ATOM     10  C   UNL     1      -6.022   3.043  -1.202  0.00  0.00    +0.029 C 
ENDROOT
BRANCH   8  11
ATOM     11  C   UNL     1      -7.231   4.835  -2.417  0.00  0.00    -0.041 A 
ATOM     12  C   UNL     1      -6.199   4.727  -3.330  0.00  0.00    +0.004 A 
ATOM     13  C   UNL     1      -6.186   5.528  -4.456  0.00  0.00    +0.000 A 
ATOM     14  C   UNL     1      -7.200   6.443  -4.666  0.00  0.00    +0.000 A 
ATOM     15  C   UNL     1      -8.230   6.554  -3.751  0.00  0.00    +0.000 A 
ATOM     16  C   UNL     1      -8.246   5.750  -2.626  0.00  0.00    +0.004 A 
ENDBRANCH   8  11
BRANCH   1  17
ATOM     17  C   UNL     1      -4.832   1.251   0.032  0.00  0.00    +0.314 C 
ATOM     18  O   UNL     1      -4.974   0.051   0.026  0.00  0.00    -0.250 OA
BRANCH  17  19
ATOM     19  O   UNL     1      -3.598   1.781   0.029  0.00  0.00    -0.455 OA
BRANCH  19  20
ATOM     20  C   UNL     1      -2.482   0.853   0.018  0.00  0.00    +0.328 C 
BRANCH  20  25
ATOM     21  N   UNL     1       2.323   0.998  -0.015  0.00  0.00    -0.299 N 
ATOM     22  C   UNL     1       1.147   1.655   0.000  0.00  0.00    +0.306 C 
ATOM     23  O   UNL     1       1.130   2.871   0.007  0.00  0.00    -0.252 OA
ATOM     24  N   UNL     1      -0.011   0.966   0.007  0.00  0.00    -0.237 N 
ATOM     25  C   UNL     1      -1.187   1.624   0.017  0.00  0.00    +0.258 C 
ATOM     26  O   UNL     1      -1.204   2.836   0.023  0.00  0.00    -0.272 OA
ATOM     27  H   UNL     1       2.336   0.028  -0.020  0.00  0.00    +0.150 HD
ATOM     28  H   UNL     1       0.002  -0.004   0.002  0.00  0.00    +0.159 HD
BRANCH  21  30
ATOM     29  C   UNL     1       4.758   0.769  -0.039  0.00  0.00    +0.024 C 
ATOM     30  C   UNL     1       3.582   1.747  -0.023  0.00  0.00    +0.102 C 
ENDBRANCH  21  30
ENDBRANCH  20  25
ENDBRANCH  19  20
ENDBRANCH  17  19
ENDBRANCH   1  17
TORSDOF 6
