REMARK  Name = ZINC39336724
REMARK  6 active torsions:
REMARK  status: ('A' for Active; 'I' for Inactive)
REMARK    1  A    between atoms: C_4  and  C_7
REMARK    2  A    between atoms: C_7  and  N_8
REMARK    3  A    between atoms: C_9  and  C_14
REMARK    4  A    between atoms: C_16  and  N_36
REMARK    5  A    between atoms: C_19  and  C_31
REMARK    6  A    between atoms: C_21  and  C_25
REMARK                            x       y       z     vdW  Elec       q    Type
REMARK                         _______ _______ _______ _____ _____    ______ ____
ROOT
ATOM      1  C   UNL     1       5.499   1.199   1.713  0.00  0.00    +0.233 C 
ATOM      2  C   UNL     1       4.759   2.351   2.433  0.00  0.00    +0.011 C 
ATOM      3  C   UNL     1       5.625   2.558   3.659  0.00  0.00    +0.014 A 
ATOM      4  C   UNL     1       5.408   3.232   4.860  0.00  0.00    +0.026 A 
ATOM      5  C   UNL     1       6.434   3.227   5.815  0.00  0.00    +0.040 A 
ATOM      6  C   UNL     1       7.612   2.554   5.520  0.00  0.00    +0.075 A 
ATOM      7  N   UNL     1       7.775   1.930   4.362  0.00  0.00    -0.213 NA
ATOM      8  C   UNL     1       6.830   1.911   3.426  0.00  0.00    +0.218 A 
ATOM      9  O   UNL     1       6.849   1.338   2.187  0.00  0.00    -0.466 OA
ENDROOT
BRANCH   1  11
ATOM     10  N   UNL     1       4.152  -0.952   1.338  0.00  0.00    -0.298 N 
ATOM     11  C   UNL     1       4.928  -0.137   2.114  0.00  0.00    +0.174 A 
ATOM     12  N   UNL     1       5.082  -0.728   3.265  0.00  0.00    -0.130 NA
ATOM     13  N   UNL     1       4.461  -1.854   3.269  0.00  0.00    -0.122 NA
ATOM     14  C   UNL     1       3.868  -2.040   2.113  0.00  0.00    +0.203 A 
ATOM     15  S   UNL     1       2.893  -3.432   1.648  0.00  0.00    -0.009 SA
BRANCH  10  16
ATOM     16  C   UNL     1       3.711  -0.707  -0.038  0.00  0.00    +0.160 C 
BRANCH  16  20
ATOM     17  C   UNL     1      -0.017   1.378   0.010  0.00  0.00    +0.000 A 
ATOM     18  C   UNL     1       1.171   2.086   0.002  0.00  0.00    +0.000 A 
ATOM     19  C   UNL     1       2.377   1.411  -0.013  0.00  0.00    +0.005 A 
ATOM     20  C   UNL     1       2.396   0.029  -0.020  0.00  0.00    -0.028 A 
ATOM     21  C   UNL     1       1.208  -0.679  -0.012  0.00  0.00    +0.005 A 
ATOM     22  C   UNL     1       0.002  -0.004   0.002  0.00  0.00    +0.000 A 
ENDBRANCH  16  20
ENDBRANCH  10  16
ENDBRANCH   1  11
BRANCH   6  23
ATOM     23  C   UNL     1       8.709   2.533   6.519  0.00  0.00    +0.000 A 
ATOM     24  C   UNL     1       8.553   3.180   7.743  0.00  0.00    +0.010 A 
ATOM     25  C   UNL     1       9.576   3.157   8.669  0.00  0.00    +0.001 A 
ATOM     26  C   UNL     1      10.756   2.495   8.383  0.00  0.00    +0.000 A 
ATOM     27  C   UNL     1      10.917   1.851   7.169  0.00  0.00    +0.001 A 
ATOM     28  C   UNL     1       9.898   1.862   6.239  0.00  0.00    +0.010 A 
ENDBRANCH   6  23
BRANCH   4  29
ATOM     29  C   UNL     1       4.133   3.931   5.119  0.00  0.00    +0.135 A 
ATOM     30  C   UNL     1       3.367   3.807   6.235  0.00  0.00    +0.050 A 
ATOM     31  C   UNL     1       2.252   4.649   6.057  0.00  0.00    +0.042 A 
ATOM     32  C   UNL     1       2.390   5.239   4.854  0.00  0.00    +0.196 A 
ATOM     33  O   UNL     1       3.531   4.808   4.292  0.00  0.00    -0.463 OA
ENDBRANCH   4  29
BRANCH   2  34
ATOM     34  N   UNL     1       4.730   3.560   1.599  0.00  0.00    +0.385 N 
ATOM     35  H   UNL     1       4.253   3.360   0.733  0.00  0.00    -0.089 HD
ATOM     36  H   UNL     1       4.243   4.295   2.090  0.00  0.00    -0.089 HD
ATOM     37  H   UNL     1       5.675   3.855   1.402  0.00  0.00    -0.089 HD
ENDBRANCH   2  34
TORSDOF 6
