REMARK  Name = ZINC12542477
REMARK  11 active torsions:
REMARK  status: ('A' for Active; 'I' for Inactive)
REMARK    1  A    between atoms: C_5  and  C_7
REMARK    2  A    between atoms: C_7  and  N_8
REMARK    3  A    between atoms: N_8  and  C_9
REMARK    4  A    between atoms: C_12  and  N_31
REMARK    5  A    between atoms: C_14  and  C_15
REMARK    6  A    between atoms: C_15  and  O_17
REMARK    7  A    between atoms: O_17  and  C_18
REMARK    8  A    between atoms: C_18  and  C_19
REMARK    9  A    between atoms: N_21  and  C_22
REMARK   10  A    between atoms: C_22  and  C_23
REMARK   11  A    between atoms: C_23  and  N_24
REMARK                            x       y       z     vdW  Elec       q    Type
REMARK                         _______ _______ _______ _____ _____    ______ ____
ROOT
ATOM      1  C   UNL     1       1.097   1.652   0.025  0.00  0.00    +0.042 A 
ATOM      2  C   UNL     1      -0.170   1.082   0.021  0.00  0.00    +0.026 A 
ATOM      3  C   UNL     1      -1.290   1.887   0.006  0.00  0.00    +0.034 A 
ATOM      4  C   UNL     1      -1.163   3.268   0.006  0.00  0.00    +0.127 A 
ATOM      5  C   UNL     1       0.084   3.851   0.010  0.00  0.00    +0.049 A 
ATOM      6  C   UNL     1       1.229   3.050   0.020  0.00  0.00    +0.082 A 
ENDROOT
BRANCH   4   7
ATOM      7  N   UNL     1      -2.374   4.118  -0.004  0.00  0.00    +0.056 N 
ATOM      8  O   UNL     1      -2.266   5.332  -0.009  0.00  0.00    -0.126 OA
ATOM      9  O   UNL     1      -3.479   3.606  -0.008  0.00  0.00    -0.126 OA
ENDBRANCH   4   7
BRANCH   1  10
ATOM     10  N   UNL     1       2.226   0.844   0.034  0.00  0.00    -0.339 N 
ATOM     11  H   UNL     1       3.107   1.241  -0.045  0.00  0.00    +0.146 HD
BRANCH  10  12
ATOM     12  C   UNL     1       2.086  -0.609   0.163  0.00  0.00    +0.138 C 
BRANCH  12  17
ATOM     13  C   UNL     1       5.178  -2.415  -1.032  0.00  0.00    +0.000 A 
ATOM     14  C   UNL     1       5.953  -2.423   0.113  0.00  0.00    +0.001 A 
ATOM     15  C   UNL     1       5.477  -1.845   1.274  0.00  0.00    +0.020 A 
ATOM     16  C   UNL     1       4.225  -1.256   1.291  0.00  0.00    +0.046 A 
ATOM     17  C   UNL     1       3.450  -1.248   0.145  0.00  0.00    -0.012 A 
ATOM     18  C   UNL     1       3.925  -1.832  -1.014  0.00  0.00    +0.006 A 
ATOM     19 CL   UNL     1       3.626  -0.530   2.749  0.00  0.00    -0.083 Cl
ENDBRANCH  12  17
ENDBRANCH  10  12
ENDBRANCH   1  10
BRANCH   6  20
ATOM     20  C   UNL     1       2.567   3.667   0.023  0.00  0.00    +0.342 C 
ATOM     21  O   UNL     1       3.558   2.971  -0.076  0.00  0.00    -0.245 OA
BRANCH  20  22
ATOM     22  O   UNL     1       2.691   5.005   0.137  0.00  0.00    -0.452 OA
BRANCH  22  23
ATOM     23  C   UNL     1       4.039   5.544   0.133  0.00  0.00    +0.328 C 
BRANCH  23  24
ATOM     24  C   UNL     1       3.980   7.044   0.268  0.00  0.00    +0.251 C 
ATOM     25  O   UNL     1       2.908   7.603   0.358  0.00  0.00    -0.272 OA
ATOM     26  N   UNL     1       5.119   7.764   0.288  0.00  0.00    -0.311 N 
ATOM     27  H   UNL     1       5.977   7.317   0.216  0.00  0.00    +0.149 HD
BRANCH  26  28
ATOM     28  C   UNL     1       5.062   9.222   0.419  0.00  0.00    +0.123 C 
BRANCH  28  29
ATOM     29  C   UNL     1       6.483   9.790   0.415  0.00  0.00    +0.136 C 
BRANCH  29  30
ATOM     30  N   UNL     1       6.426  11.248   0.546  0.00  0.00    -0.231 N 
ATOM     31  C   UNL     1       6.362  11.975  -0.557  0.00  0.00    +0.233 C 
ATOM     32  O   UNL     1       6.350  11.477  -1.662  0.00  0.00    -0.274 OA
ATOM     33  C   UNL     1       6.301  13.481  -0.343  0.00  0.00    +0.175 C 
ATOM     34  S   UNL     1       6.362  13.541   1.492  0.00  0.00    -0.058 S 
ATOM     35  C   UNL     1       6.446  11.780   1.782  0.00  0.00    +0.281 C 
ATOM     36  O   UNL     1       6.508  11.198   2.847  0.00  0.00    -0.262 OA
ENDBRANCH  29  30
ENDBRANCH  28  29
ENDBRANCH  26  28
ENDBRANCH  23  24
ENDBRANCH  22  23
ENDBRANCH  20  22
ENDBRANCH   6  20
TORSDOF 11
