REMARK  Name = ZINC59972965
REMARK  5 active torsions:
REMARK  status: ('A' for Active; 'I' for Inactive)
REMARK    1  A    between atoms: C_1  and  C_2
REMARK    2  A    between atoms: C_2  and  C_4
REMARK    3  A    between atoms: C_2  and  N_10
REMARK    4  A    between atoms: C_11  and  C_13
REMARK    5  A    between atoms: C_19  and  N_23
REMARK                            x       y       z     vdW  Elec       q    Type
REMARK                         _______ _______ _______ _____ _____    ______ ____
ROOT
ATOM      1  C   UNL     1      -3.431  -1.152  -1.134  0.00  0.00    +0.103 A 
ATOM      2  C   UNL     1      -4.212  -1.334  -2.231  0.00  0.00    +0.041 A 
ATOM      3  C   UNL     1      -5.460  -1.837  -1.793  0.00  0.00    +0.002 A 
ATOM      4  C   UNL     1      -6.638  -2.206  -2.461  0.00  0.00    +0.010 A 
ATOM      5  C   UNL     1      -7.707  -2.668  -1.752  0.00  0.00    +0.002 A 
ATOM      6  C   UNL     1      -7.646  -2.779  -0.369  0.00  0.00    +0.025 A 
ATOM      7  C   UNL     1      -6.499  -2.422   0.315  0.00  0.00    +0.049 A 
ATOM      8  C   UNL     1      -5.390  -1.946  -0.393  0.00  0.00    +0.068 A 
ATOM      9  N   UNL     1      -4.137  -1.527  -0.009  0.00  0.00    -0.349 N 
ATOM     10  H   UNL     1      -3.805  -1.498   0.902  0.00  0.00    +0.166 HD
ENDROOT
BRANCH   1  12
ATOM     11  N   UNL     1      -1.372  -0.511   0.012  0.00  0.00    -0.303 N 
ATOM     12  C   UNL     1      -2.051  -0.643  -1.145  0.00  0.00    +0.261 C 
ATOM     13  O   UNL     1      -1.522  -0.340  -2.198  0.00  0.00    -0.269 OA
ATOM     14  H   UNL     1      -1.794  -0.752   0.852  0.00  0.00    +0.150 HD
BRANCH  11  16
ATOM     15  C   UNL     1      -0.019   1.526   0.010  0.00  0.00    +0.033 C 
ATOM     16  C   UNL     1       0.002  -0.004   0.002  0.00  0.00    +0.107 C 
BRANCH  16  17
ATOM     17  C   UNL     1       0.731  -0.503   1.223  0.00  0.00    +0.011 A 
ATOM     18  C   UNL     1       2.009  -0.938   1.335  0.00  0.00    +0.014 A 
ATOM     19  C   UNL     1       2.471  -1.355   2.570  0.00  0.00    +0.028 A 
ATOM     20  C   UNL     1       1.629  -1.315   3.633  0.00  0.00    +0.078 A 
ATOM     21  S   UNL     1       0.136  -0.668   2.898  0.00  0.00    -0.080 S 
ATOM     22 CL   UNL     1       1.927  -1.770   5.282  0.00  0.00    -0.076 Cl
ENDBRANCH  16  17
ENDBRANCH  11  16
ENDBRANCH   1  12
BRANCH   7  23
ATOM     23  N   UNL     1      -6.447  -2.536   1.708  0.00  0.00    -0.356 N 
ATOM     24  H   UNL     1      -7.217  -2.867   2.197  0.00  0.00    +0.142 HD
ATOM     25  H   UNL     1      -5.641  -2.285   2.186  0.00  0.00    +0.142 HD
ENDBRANCH   7  23
TORSDOF 4
