REMARK  Name = ZINC39623144
REMARK  7 active torsions:
REMARK  status: ('A' for Active; 'I' for Inactive)
REMARK    1  A    between atoms: C_1  and  C_2
REMARK    2  A    between atoms: C_2  and  C_4
REMARK    3  A    between atoms: C_2  and  O_28
REMARK    4  A    between atoms: C_8  and  C_17
REMARK    5  A    between atoms: N_19  and  C_20
REMARK    6  A    between atoms: C_20  and  C_21
REMARK    7  A    between atoms: O_28  and  C_29
REMARK                            x       y       z     vdW  Elec       q    Type
REMARK                         _______ _______ _______ _____ _____    ______ ____
ROOT
ATOM      1  C   UNL     1       0.738  -0.451  -0.965  0.00  0.00    +0.256 C 
ATOM      2  O   UNL     1       1.865  -0.865  -0.792  0.00  0.00    -0.272 OA
ATOM      3  N   UNL     1       0.197  -0.465  -2.199  0.00  0.00    -0.297 N 
ATOM      4  C   UNL     1      -1.178  -0.078  -2.593  0.00  0.00    +0.121 C 
ATOM      5  C   UNL     1      -1.005   0.665  -3.936  0.00  0.00    +0.100 C 
ATOM      6  C   UNL     1       0.322   0.139  -4.508  0.00  0.00    -0.004 C 
ATOM      7  C   UNL     1       0.845  -0.865  -3.471  0.00  0.00    +0.115 C 
ATOM      8  C   UNL     1       1.317   1.284  -4.673  0.00  0.00    -0.010 C 
ATOM      9  C   UNL     1       2.608   0.746  -5.296  0.00  0.00    -0.082 C 
ATOM     10  N   UNL     1       2.309   0.139  -6.598  0.00  0.00    +0.379 N 
ATOM     11  C   UNL     1       1.425  -1.019  -6.420  0.00  0.00    -0.082 C 
ATOM     12  C   UNL     1       0.083  -0.556  -5.845  0.00  0.00    -0.010 C 
ATOM     13  H   UNL     1       1.855   0.819  -7.189  0.00  0.00    -0.086 HD
ATOM     14  H   UNL     1       3.169  -0.161  -7.034  0.00  0.00    -0.086 HD
ENDROOT
BRANCH   5  15
ATOM     15  C   UNL     1      -2.146   0.340  -4.866  0.00  0.00    +0.218 C 
ATOM     16  O   UNL     1      -2.687  -0.743  -4.806  0.00  0.00    -0.275 OA
ATOM     17  N   UNL     1      -2.563   1.253  -5.766  0.00  0.00    -0.311 N 
ATOM     18  H   UNL     1      -2.130   2.119  -5.814  0.00  0.00    +0.149 HD
BRANCH  17  19
ATOM     19  C   UNL     1      -3.671   0.937  -6.670  0.00  0.00    +0.141 C 
BRANCH  19  20
ATOM     20  C   UNL     1      -3.939   2.117  -7.568  0.00  0.00    -0.012 A 
ATOM     21  C   UNL     1      -4.977   2.983  -7.281  0.00  0.00    +0.006 A 
ATOM     22  C   UNL     1      -5.223   4.066  -8.104  0.00  0.00    +0.000 A 
ATOM     23  C   UNL     1      -4.431   4.282  -9.216  0.00  0.00    +0.001 A 
ATOM     24  C   UNL     1      -3.392   3.417  -9.505  0.00  0.00    +0.020 A 
ATOM     25  C   UNL     1      -3.142   2.337  -8.677  0.00  0.00    +0.046 A 
ATOM     26 CL   UNL     1      -1.834   1.253  -9.036  0.00  0.00    -0.083 Cl
ENDBRANCH  19  20
ENDBRANCH  17  19
ENDBRANCH   5  15
BRANCH   1  28
ATOM     27  C   UNL     1      -0.253   1.588   0.041  0.00  0.00    +0.062 C 
ATOM     28  C   UNL     1      -0.058   0.079   0.200  0.00  0.00    +0.256 C 
BRANCH  28  29
ATOM     29  O   UNL     1       0.646  -0.185   1.416  0.00  0.00    -0.480 OA
BRANCH  29  30
ATOM     30  C   UNL     1      -0.096  -0.269   2.552  0.00  0.00    +0.122 A 
ATOM     31  C   UNL     1      -1.457  -0.003   2.514  0.00  0.00    +0.045 A 
ATOM     32  C   UNL     1      -2.208  -0.089   3.670  0.00  0.00    +0.004 A 
ATOM     33  C   UNL     1      -1.605  -0.440   4.864  0.00  0.00    +0.000 A 
ATOM     34  C   UNL     1      -0.249  -0.705   4.904  0.00  0.00    +0.004 A 
ATOM     35  C   UNL     1       0.506  -0.626   3.750  0.00  0.00    +0.045 A 
ENDBRANCH  29  30
ENDBRANCH  28  29
ENDBRANCH   1  28
TORSDOF 6
