REMARK  Name = ZINC13032823
REMARK  10 active torsions:
REMARK  status: ('A' for Active; 'I' for Inactive)
REMARK    1  A    between atoms: C_1  and  C_2
REMARK    2  A    between atoms: C_2  and  C_3
REMARK    3  A    between atoms: C_10  and  C_15
REMARK    4  A    between atoms: C_15  and  N_60
REMARK    5  A    between atoms: C_16  and  C_17
REMARK    6  A    between atoms: C_16  and  N_60
REMARK    7  A    between atoms: C_22  and  C_23
REMARK    8  A    between atoms: C_22  and  N_60
REMARK    9  A    between atoms: N_27  and  C_28
REMARK   10  A    between atoms: C_28  and  C_29
REMARK                            x       y       z     vdW  Elec       q    Type
REMARK                         _______ _______ _______ _____ _____    ______ ____
ROOT
ATOM      1  N   UNL     1       1.774  -2.726  -1.521  0.00  0.00    +0.392 N 
ATOM      2  H   UNL     1       0.972  -2.598  -2.149  0.00  0.00    -0.080 HD
ENDROOT
BRANCH   1   3
ATOM      3  C   UNL     1       1.929  -4.166  -1.227  0.00  0.00    -0.036 C 
BRANCH   3  11
ATOM      4  C   UNL     1      -3.413  -7.017  -2.500  0.00  0.00    -0.047 A 
ATOM      5  C   UNL     1      -3.931  -6.958  -1.213  0.00  0.00    +0.005 A 
ATOM      6  C   UNL     1      -3.214  -6.372  -0.192  0.00  0.00    +0.026 A 
ATOM      7  C   UNL     1      -1.958  -5.835  -0.451  0.00  0.00    +0.049 A 
ATOM      8  C   UNL     1      -1.435  -5.897  -1.757  0.00  0.00    -0.001 A 
ATOM      9  C   UNL     1      -2.181  -6.496  -2.777  0.00  0.00    +0.013 A 
ATOM     10  C   UNL     1      -0.112  -5.328  -2.019  0.00  0.00    +0.017 A 
ATOM     11  C   UNL     1       0.565  -4.761  -0.991  0.00  0.00    +0.001 A 
ATOM     12  C   UNL     1      -0.001  -4.729   0.302  0.00  0.00    +0.251 A 
ATOM     13  O   UNL     1       0.626  -4.219   1.213  0.00  0.00    -0.268 OA
ATOM     14  N   UNL     1      -1.218  -5.244   0.551  0.00  0.00    -0.322 N 
ATOM     15  H   UNL     1      -1.580  -5.202   1.451  0.00  0.00    +0.169 HD
BRANCH   4  17
ATOM     16  C   UNL     1      -3.880  -9.153  -3.669  0.00  0.00    +0.009 C 
ATOM     17  C   UNL     1      -4.216  -7.662  -3.599  0.00  0.00    +0.032 C 
ENDBRANCH   4  17
ENDBRANCH   3  11
ENDBRANCH   1   3
BRANCH   1  18
ATOM     18  C   UNL     1       2.990  -2.212  -2.185  0.00  0.00    -0.002 C 
BRANCH  18  19
ATOM     19  C   UNL     1       3.022  -2.724  -3.602  0.00  0.00    +0.089 A 
ATOM     20  C   UNL     1       2.550  -2.078  -4.683  0.00  0.00    +0.042 A 
ATOM     21  C   UNL     1       2.783  -2.917  -5.796  0.00  0.00    +0.041 A 
ATOM     22  C   UNL     1       3.384  -4.026  -5.329  0.00  0.00    +0.195 A 
ATOM     23  O   UNL     1       3.531  -3.901  -4.000  0.00  0.00    -0.470 OA
ENDBRANCH  18  19
ENDBRANCH   1  18
BRANCH   1  24
ATOM     24  C   UNL     1       1.528  -1.979  -0.269  0.00  0.00    +0.001 C 
BRANCH  24  25
ATOM     25  C   UNL     1       1.225  -0.543  -0.611  0.00  0.00    +0.135 A 
ATOM     26  N   UNL     1       2.097   0.418  -0.797  0.00  0.00    -0.115 NA
ATOM     27  N   UNL     1       1.448   1.497  -1.071  0.00  0.00    -0.023 NA
ATOM     28  N   UNL     1       0.185   1.249  -1.064  0.00  0.00    -0.044 NA
ATOM     29  N   UNL     1       0.007   0.003  -0.785  0.00  0.00    -0.227 N 
BRANCH  29  30
ATOM     30  C   UNL     1      -1.280  -0.690  -0.677  0.00  0.00    +0.182 C 
BRANCH  30  31
ATOM     31  C   UNL     1      -1.752  -1.089  -2.051  0.00  0.00    -0.026 A 
ATOM     32  C   UNL     1      -2.454  -0.188  -2.829  0.00  0.00    +0.008 A 
ATOM     33  C   UNL     1      -2.884  -0.551  -4.091  0.00  0.00    +0.038 A 
ATOM     34  C   UNL     1      -2.620  -1.822  -4.572  0.00  0.00    +0.123 A 
ATOM     35  C   UNL     1      -1.921  -2.726  -3.790  0.00  0.00    +0.038 A 
ATOM     36  C   UNL     1      -1.488  -2.359  -2.530  0.00  0.00    +0.008 A 
ATOM     37  F   UNL     1      -3.043  -2.180  -5.804  0.00  0.00    -0.205 F 
ENDBRANCH  30  31
ENDBRANCH  29  30
ENDBRANCH  24  25
ENDBRANCH   1  24
TORSDOF 9
