REMARK  Name = ZINC14977085
REMARK  11 active torsions:
REMARK  status: ('A' for Active; 'I' for Inactive)
REMARK    1  A    between atoms: C_1  and  C_2
REMARK    2  A    between atoms: C_5  and  C_35
REMARK    3  A    between atoms: C_6  and  C_8
REMARK    4  A    between atoms: C_8  and  N_71
REMARK    5  A    between atoms: C_11  and  C_14
REMARK    6  A    between atoms: C_17  and  S_27
REMARK    7  A    between atoms: N_18  and  C_19
REMARK    8  A    between atoms: C_23  and  O_25
REMARK    9  A    between atoms: O_25  and  C_26
REMARK   10  A    between atoms: S_27  and  C_28
REMARK   11  A    between atoms: C_28  and  C_29
REMARK                            x       y       z     vdW  Elec       q    Type
REMARK                         _______ _______ _______ _____ _____    ______ ____
ROOT
ATOM      1  C   UNL     1       4.251   6.668   3.073  0.00  0.00    +0.142 A 
ATOM      2  N   UNL     1       3.015   6.319   3.298  0.00  0.00    -0.133 NA
ATOM      3  N   UNL     1       2.731   5.252   2.641  0.00  0.00    -0.122 NA
ATOM      4  C   UNL     1       3.780   4.852   1.961  0.00  0.00    +0.196 A 
ATOM      5  N   UNL     1       4.784   5.746   2.213  0.00  0.00    -0.274 N 
ENDROOT
BRANCH   1   8
ATOM      6  C   UNL     1       4.917  10.351   3.879  0.00  0.00    -0.078 C 
ATOM      7  C   UNL     1       4.227   9.144   3.239  0.00  0.00    -0.008 C 
ATOM      8  C   UNL     1       4.960   7.865   3.653  0.00  0.00    +0.054 C 
ATOM      9  C   UNL     1       4.972   7.763   5.180  0.00  0.00    -0.008 C 
ATOM     10  C   UNL     1       5.638   9.011   5.765  0.00  0.00    -0.078 C 
ATOM     11  N   UNL     1       4.871  10.204   5.350  0.00  0.00    +0.382 N 
ATOM     12  H   UNL     1       3.894  10.091   5.643  0.00  0.00    -0.081 HD
BRANCH  11  13
ATOM     13  C   UNL     1       5.429  11.411   5.994  0.00  0.00    -0.043 C 
BRANCH  13  19
ATOM     14  C   UNL     1       6.677  10.810  10.803  0.00  0.00    +0.044 C 
ATOM     15  C   UNL     1       5.641  11.115   9.752  0.00  0.00    -0.050 A 
ATOM     16  C   UNL     1       4.338  11.385  10.124  0.00  0.00    +0.003 A 
ATOM     17  C   UNL     1       3.387  11.663   9.160  0.00  0.00    +0.004 A 
ATOM     18  C   UNL     1       3.740  11.671   7.823  0.00  0.00    -0.049 A 
ATOM     19  C   UNL     1       5.044  11.402   7.451  0.00  0.00    -0.061 A 
ATOM     20  C   UNL     1       5.994  11.119   8.416  0.00  0.00    +0.005 A 
ATOM     21  C   UNL     1       2.704  11.975   6.772  0.00  0.00    +0.044 C 
ENDBRANCH  13  19
ENDBRANCH  11  13
ENDBRANCH   1   8
BRANCH   5  22
ATOM     22  C   UNL     1       6.088   5.723   1.696  0.00  0.00    +0.054 A 
ATOM     23  C   UNL     1       7.170   5.538   2.547  0.00  0.00    +0.026 A 
ATOM     24  C   UNL     1       8.454   5.511   2.039  0.00  0.00    +0.006 A 
ATOM     25  C   UNL     1       8.666   5.679   0.683  0.00  0.00    +0.046 A 
ATOM     26  C   UNL     1       7.589   5.869  -0.171  0.00  0.00    +0.122 A 
ATOM     27  C   UNL     1       6.299   5.892   0.336  0.00  0.00    +0.072 A 
BRANCH  26  28
ATOM     28  O   UNL     1       7.799   6.035  -1.503  0.00  0.00    -0.495 OA
ATOM     29  C   UNL     1       9.155   6.000  -1.956  0.00  0.00    +0.277 C 
ENDBRANCH  26  28
ENDBRANCH   5  22
BRANCH   4  30
ATOM     30  S   UNL     1       3.875   3.435   0.917  0.00  0.00    -0.083 S 
BRANCH  30  31
ATOM     31  C   UNL     1       2.193   2.793   1.105  0.00  0.00    +0.109 C 
BRANCH  31  32
ATOM     32  C   UNL     1       2.034   1.526   0.263  0.00  0.00    +0.129 C 
ATOM     33  C   UNL     1       0.572   1.030   0.308  0.00  0.00    +0.034 C 
ATOM     34  C   UNL     1       0.698  -0.510   0.332  0.00  0.00    +0.031 C 
ATOM     35  C   UNL     1       2.221  -0.762   0.298  0.00  0.00    +0.160 C 
ATOM     36  O   UNL     1       2.807   0.446   0.831  0.00  0.00    -0.376 OA
ENDBRANCH  31  32
ENDBRANCH  30  31
ENDBRANCH   4  30
TORSDOF 8
