REMARK  Name = ZINC39466625
REMARK  6 active torsions:
REMARK  status: ('A' for Active; 'I' for Inactive)
REMARK    1  A    between atoms: C_1  and  S_2
REMARK    2  A    between atoms: S_2  and  C_3
REMARK    3  A    between atoms: P_12  and  C_28
REMARK    4  A    between atoms: C_20  and  C_21
REMARK    5  A    between atoms: C_26  and  O_27
REMARK    6  A    between atoms: C_28  and  C_29
REMARK                            x       y       z     vdW  Elec       q    Type
REMARK                         _______ _______ _______ _____ _____    ______ ____
ROOT
ATOM      1  C   UNL     1      -1.702  -0.454   0.016  0.00  0.00    +0.012 C 
ATOM      2  C   UNL     1      -2.650   0.494   0.024  0.00  0.00    -0.008 C 
ATOM      3  C   UNL     1      -4.094   0.075   0.023  0.00  0.00    +0.017 C 
ATOM      4  C   UNL     1      -4.997   1.181  -0.514  0.00  0.00    -0.003 C 
ATOM      5  C   UNL     1      -6.452   0.691  -0.528  0.00  0.00    -0.020 C 
ATOM      6  C   UNL     1      -7.309   1.829  -1.097  0.00  0.00    +0.156 C 
ATOM      7  O   UNL     1      -8.697   1.450  -1.050  0.00  0.00    -0.319 OA
ATOM      8  P   UNL     1      -9.107  -0.000  -1.664  0.00  0.00    +0.262 P 
ATOM      9  O   UNL     1      -9.219   0.080  -3.137  0.00  0.00    -0.274 OA
ATOM     10  N   UNL     1      -7.877  -1.016  -1.237  0.00  0.00    -0.291 NA
ATOM     11  N   UNL     1      -6.593  -0.518  -1.338  0.00  0.00    +0.397 N 
ATOM     12  C   UNL     1      -5.713  -1.596  -0.854  0.00  0.00    -0.046 C 
ATOM     13  C   UNL     1      -4.257  -1.151  -0.884  0.00  0.00    +0.005 C 
ATOM     14  C   UNL     1      -3.321  -2.232  -0.418  0.00  0.00    -0.015 C 
ATOM     15  C   UNL     1      -2.097  -1.883   0.012  0.00  0.00    -0.005 C 
ATOM     16  H   UNL     1      -8.054  -1.921  -0.939  0.00  0.00    +0.111 HD
ATOM     17  H   UNL     1      -6.373  -0.308  -2.300  0.00  0.00    -0.055 HD
ENDROOT
BRANCH  15  18
ATOM     18  C   UNL     1      -1.150  -2.922   0.484  0.00  0.00    +0.024 A 
ATOM     19  C   UNL     1      -0.495  -3.741  -0.433  0.00  0.00    +0.012 A 
ATOM     20  C   UNL     1       0.386  -4.706   0.012  0.00  0.00    +0.001 A 
ATOM     21  C   UNL     1       0.620  -4.864   1.367  0.00  0.00    +0.004 A 
ATOM     22  C   UNL     1      -0.024  -4.058   2.285  0.00  0.00    +0.046 A 
ATOM     23  C   UNL     1      -0.906  -3.080   1.852  0.00  0.00    +0.125 A 
BRANCH  23  24
ATOM     24  O   UNL     1      -1.536  -2.282   2.754  0.00  0.00    -0.506 OA
ATOM     25  H   UNL     1      -2.381  -2.633   3.066  0.00  0.00    +0.292 HD
ENDBRANCH  23  24
ENDBRANCH  15  18
BRANCH   1  27
ATOM     26  C   UNL     1      -0.022   1.810   0.012  0.00  0.00    +0.090 C 
ATOM     27  S   UNL     1       0.002  -0.004   0.002  0.00  0.00    -0.128 S 
ENDBRANCH   1  27
BRANCH   8  28
ATOM     28  C   UNL     1     -10.681  -0.570  -0.942  0.00  0.00    +0.147 C 
BRANCH  28  29
ATOM     29  C   UNL     1     -11.768   0.424  -1.259  0.00  0.00    -0.037 A 
ATOM     30  C   UNL     1     -12.015   1.477  -0.398  0.00  0.00    +0.004 A 
ATOM     31  C   UNL     1     -13.012   2.389  -0.689  0.00  0.00    +0.000 A 
ATOM     32  C   UNL     1     -13.762   2.248  -1.842  0.00  0.00    +0.000 A 
ATOM     33  C   UNL     1     -13.515   1.196  -2.703  0.00  0.00    +0.000 A 
ATOM     34  C   UNL     1     -12.515   0.286  -2.414  0.00  0.00    +0.004 A 
ENDBRANCH  28  29
ENDBRANCH   8  28
TORSDOF 5
