REMARK  Name = ZINC28249487
REMARK  2 active torsions:
REMARK  status: ('A' for Active; 'I' for Inactive)
REMARK    1  A    between atoms: C_6  and  S_11
REMARK    2  A    between atoms: S_11  and  N_14
REMARK                            x       y       z     vdW  Elec       q    Type
REMARK                         _______ _______ _______ _____ _____    ______ ____
ROOT
ATOM      1  S   UNL     1       5.231  -2.823  -0.063  0.00  0.00    +0.102 S 
ATOM      2  O   UNL     1       4.984  -4.107  -0.618  0.00  0.00    -0.146 OA
ATOM      3  O   UNL     1       6.181  -1.923  -0.619  0.00  0.00    -0.146 OA
ENDROOT
BRANCH   1   4
ATOM      4  N   UNL     1       5.677  -3.066   1.513  0.00  0.00    -0.090 NA
ATOM      5  C   UNL     1       6.807  -3.686   1.791  0.00  0.00    +0.252 A 
ATOM      6  N   UNL     1       7.151  -3.880   3.066  0.00  0.00    -0.190 NA
ATOM      7  C   UNL     1       8.288  -4.503   3.381  0.00  0.00    +0.187 A 
ATOM      8  C   UNL     1       9.139  -4.964   2.353  0.00  0.00    +0.150 A 
ATOM      9  C   UNL     1       8.785  -4.764   1.034  0.00  0.00    +0.279 A 
ATOM     10  O   UNL     1       9.582  -5.196   0.034  0.00  0.00    -0.265 OA
ATOM     11  N   UNL     1       7.607  -4.125   0.760  0.00  0.00    -0.289 N 
ATOM     12  N   UNL     1      10.220  -5.557   2.992  0.00  0.00    -0.339 N 
ATOM     13  H   UNL     1      10.985  -5.973   2.565  0.00  0.00    +0.167 HD
ATOM     14  C   UNL     1      10.004  -5.446   4.319  0.00  0.00    +0.199 A 
ATOM     15  N   UNL     1       8.876  -4.830   4.546  0.00  0.00    -0.216 NA
ATOM     16  H   UNL     1       7.338  -3.978  -0.160  0.00  0.00    +0.172 HD
ENDBRANCH   1   4
BRANCH   1  22
ATOM     17  C   UNL     1      -0.016   1.357   0.009  0.00  0.00    +0.001 A 
ATOM     18  C   UNL     1       1.169   2.091   0.002  0.00  0.00    +0.001 A 
ATOM     19  C   UNL     1       2.378   1.468  -0.013  0.00  0.00    +0.008 A 
ATOM     20  C   UNL     1       2.438   0.063  -0.021  0.00  0.00    -0.016 A 
ATOM     21  C   UNL     1       3.668  -0.615  -0.036  0.00  0.00    +0.037 A 
ATOM     22  C   UNL     1       3.687  -1.976  -0.043  0.00  0.00    +0.113 A 
ATOM     23  C   UNL     1       2.502  -2.710  -0.036  0.00  0.00    +0.029 A 
ATOM     24  C   UNL     1       1.292  -2.087  -0.021  0.00  0.00    +0.010 A 
ATOM     25  C   UNL     1       1.233  -0.683  -0.013  0.00  0.00    -0.018 A 
ATOM     26  C   UNL     1       0.002  -0.004   0.002  0.00  0.00    +0.008 A 
ENDBRANCH   1  22
TORSDOF 2
