REMARK  Name = ZINC63516812
REMARK  7 active torsions:
REMARK  status: ('A' for Active; 'I' for Inactive)
REMARK    1  A    between atoms: C_1  and  C_2
REMARK    2  A    between atoms: C_2  and  N_3
REMARK    3  A    between atoms: C_5  and  N_8
REMARK    4  A    between atoms: C_9  and  C_11
REMARK    5  A    between atoms: N_14  and  C_17
REMARK    6  A    between atoms: C_17  and  C_18
REMARK    7  A    between atoms: C_24  and  C_29
REMARK                            x       y       z     vdW  Elec       q    Type
REMARK                         _______ _______ _______ _____ _____    ______ ____
ROOT
ATOM      1  C   UNL     1       4.469  -3.281  -4.866  0.00  0.00    +0.072 C 
ATOM      2  C   UNL     1       5.804  -2.779  -4.308  0.00  0.00    -0.006 C 
ATOM      3  C   UNL     1       6.943  -3.613  -4.898  0.00  0.00    -0.078 C 
ATOM      4  N   UNL     1       6.942  -3.485  -6.361  0.00  0.00    +0.383 N 
ATOM      5  C   UNL     1       5.694  -4.030  -6.908  0.00  0.00    -0.078 C 
ATOM      6  C   UNL     1       4.507  -3.212  -6.395  0.00  0.00    -0.006 C 
ATOM      7  H   UNL     1       7.021  -2.510  -6.612  0.00  0.00    -0.081 HD
ENDROOT
BRANCH   1   9
ATOM      8  N   UNL     1       3.126  -2.320  -3.024  0.00  0.00    -0.283 N 
ATOM      9  C   UNL     1       3.350  -2.414  -4.350  0.00  0.00    +0.220 C 
ATOM     10  O   UNL     1       2.650  -1.800  -5.128  0.00  0.00    -0.275 OA
ATOM     11  H   UNL     1       3.685  -2.811  -2.402  0.00  0.00    +0.155 HD
BRANCH   8  14
ATOM     12  N   UNL     1       0.688  -0.476  -1.203  0.00  0.00    -0.270 N 
ATOM     13  C   UNL     1       1.746  -1.327  -1.239  0.00  0.00    +0.131 A 
ATOM     14  C   UNL     1       2.080  -1.510  -2.542  0.00  0.00    +0.071 A 
ATOM     15  C   UNL     1       1.198  -0.749  -3.323  0.00  0.00    +0.157 A 
ATOM     16  N   UNL     1       0.364  -0.136  -2.523  0.00  0.00    -0.178 NA
BRANCH  12  18
ATOM     17  C   UNL     1      -0.019   1.526   0.010  0.00  0.00    +0.029 C 
ATOM     18  C   UNL     1       0.002  -0.004   0.002  0.00  0.00    +0.140 C 
ENDBRANCH  12  18
ENDBRANCH   8  14
ENDBRANCH   1   9
BRANCH   4  19
ATOM     19  C   UNL     1       8.083  -4.224  -6.916  0.00  0.00    -0.022 C 
BRANCH  19  20
ATOM     20  C   UNL     1       8.155  -3.993  -8.404  0.00  0.00    +0.032 A 
ATOM     21  C   UNL     1       9.237  -3.328  -8.947  0.00  0.00    +0.092 A 
ATOM     22  C   UNL     1       9.282  -3.126 -10.331  0.00  0.00    +0.258 A 
ATOM     23  O   UNL     1      10.225  -2.542 -10.843  0.00  0.00    -0.267 OA
ATOM     24  N   UNL     1       8.266  -3.586 -11.092  0.00  0.00    -0.268 N 
ATOM     25  C   UNL     1       8.295  -3.397 -12.441  0.00  0.00    +0.099 A 
ATOM     26  C   UNL     1       7.289  -3.849 -13.224  0.00  0.00    -0.034 A 
ATOM     27  C   UNL     1       6.199  -4.520 -12.652  0.00  0.00    +0.008 A 
ATOM     28  C   UNL     1       6.161  -4.715 -11.304  0.00  0.00    +0.047 A 
ATOM     29  C   UNL     1       7.217  -4.238 -10.506  0.00  0.00    +0.140 A 
ATOM     30  N   UNL     1       7.184  -4.432  -9.189  0.00  0.00    -0.236 NA
ATOM     31  C   UNL     1       7.340  -3.629 -14.714  0.00  0.00    +0.045 C 
ENDBRANCH  19  20
ENDBRANCH   4  19
TORSDOF 5
