REMARK  Name = ZINC65534061
REMARK  7 active torsions:
REMARK  status: ('A' for Active; 'I' for Inactive)
REMARK    1  A    between atoms: C_1  and  C_2
REMARK    2  A    between atoms: C_3  and  C_26
REMARK    3  A    between atoms: C_7  and  N_8
REMARK    4  A    between atoms: N_8  and  C_9
REMARK    5  A    between atoms: C_9  and  C_10
REMARK    6  A    between atoms: N_23  and  C_24
REMARK    7  A    between atoms: N_23  and  C_25
REMARK                            x       y       z     vdW  Elec       q    Type
REMARK                         _______ _______ _______ _____ _____    ______ ____
ROOT
ATOM      1  N   UNL     1       0.025  -0.065   2.416  0.00  0.00    -0.328 N 
ATOM      2  H   UNL     1       0.012   0.905   2.442  0.00  0.00    +0.147 HD
ENDROOT
BRANCH   1   9
ATOM      3  C   UNL     1      -0.018   1.503   0.010  0.00  0.00    +0.049 C 
ATOM      4  C   UNL     1       0.002  -0.004   0.002  0.00  0.00    +0.008 A 
ATOM      5  C   UNL     1       0.006  -0.704  -1.189  0.00  0.00    +0.022 A 
ATOM      6  N   UNL     1       0.025  -2.028  -1.162  0.00  0.00    -0.331 N 
ATOM      7  C   UNL     1       0.039  -2.686  -0.012  0.00  0.00    +0.197 A 
ATOM      8  N   UNL     1       0.035  -2.053   1.151  0.00  0.00    -0.201 NA
ATOM      9  C   UNL     1       0.023  -0.725   1.198  0.00  0.00    +0.127 A 
ATOM     10  N   UNL     1       0.058  -4.070  -0.027  0.00  0.00    -0.307 N 
ATOM     11  C   UNL     1       0.062  -4.789  -1.303  0.00  0.00    +0.132 C 
ATOM     12  C   UNL     1       0.074  -4.816   1.234  0.00  0.00    +0.132 C 
ATOM     13  C   UNL     1      -0.011   0.031  -2.504  0.00  0.00    +0.064 C 
ATOM     14  H   UNL     1       0.028  -2.523  -1.996  0.00  0.00    +0.168 HD
ENDBRANCH   1   9
BRANCH   1  15
ATOM     15  C   UNL     1       0.048  -0.831   3.664  0.00  0.00    +0.119 C 
BRANCH  15  16
ATOM     16  C   UNL     1       0.045   0.131   4.854  0.00  0.00    +0.116 C 
ATOM     17  C   UNL     1      -0.154  -0.688   6.114  0.00  0.00    -0.003 C 
ATOM     18  C   UNL     1       0.807  -0.598   7.076  0.00  0.00    -0.007 A 
ATOM     19  C   UNL     1       0.691  -1.357   8.322  0.00  0.00    +0.012 A 
ATOM     20  C   UNL     1       1.669  -1.242   9.255  0.00  0.00    +0.039 A 
ATOM     21  C   UNL     1       2.779  -0.416   9.049  0.00  0.00    +0.125 A 
ATOM     22  C   UNL     1       2.944   0.320   7.902  0.00  0.00    +0.062 A 
ATOM     23  C   UNL     1       1.984   0.266   6.878  0.00  0.00    +0.043 A 
ATOM     24  N   UNL     1       2.155   0.985   5.768  0.00  0.00    -0.284 N 
ATOM     25  C   UNL     1       1.293   0.980   4.766  0.00  0.00    +0.226 C 
ATOM     26  O   UNL     1       1.503   1.657   3.777  0.00  0.00    -0.275 OA
ATOM     27  F   UNL     1       3.722  -0.339  10.013  0.00  0.00    -0.205 F 
ATOM     28  H   UNL     1       2.949   1.537   5.691  0.00  0.00    +0.155 HD
ENDBRANCH  15  16
ENDBRANCH   1  15
TORSDOF 3
