REMARK  Name = ZINC14998218
REMARK  10 active torsions:
REMARK  status: ('A' for Active; 'I' for Inactive)
REMARK    1  A    between atoms: C_1  and  O_2
REMARK    2  A    between atoms: O_2  and  C_3
REMARK    3  A    between atoms: C_3  and  C_5
REMARK    4  A    between atoms: N_7  and  C_10
REMARK    5  A    between atoms: C_13  and  C_22
REMARK    6  A    between atoms: C_16  and  C_17
REMARK    7  A    between atoms: C_16  and  N_56
REMARK    8  A    between atoms: N_24  and  C_25
REMARK    9  A    between atoms: C_25  and  C_26
REMARK   10  A    between atoms: C_26  and  C_27
REMARK                            x       y       z     vdW  Elec       q    Type
REMARK                         _______ _______ _______ _____ _____    ______ ____
ROOT
ATOM      1  C   UNL     1      -0.881   1.396   3.570  0.00  0.00    +0.091 C 
ATOM      2  C   UNL     1      -2.285   1.471   2.925  0.00  0.00    +0.019 C 
ATOM      3  C   UNL     1      -1.987   1.252   1.421  0.00  0.00    +0.022 C 
ATOM      4  C   UNL     1       0.103   1.710   2.428  0.00  0.00    -0.050 C 
ATOM      5  N   UNL     1      -0.721   1.972   1.242  0.00  0.00    +0.391 N 
ATOM      6  H   UNL     1      -0.903   2.980   1.163  0.00  0.00    -0.080 HD
ENDROOT
BRANCH   1   9
ATOM      7  C   UNL     1      -0.123  -2.058   4.285  0.00  0.00    +0.189 A 
ATOM      8  C   UNL     1      -0.218  -1.022   3.399  0.00  0.00    +0.145 A 
ATOM      9  N   UNL     1      -0.636   0.052   4.098  0.00  0.00    -0.250 N 
ATOM     10  N   UNL     1      -0.785  -0.363   5.429  0.00  0.00    -0.065 NA
ATOM     11  N   UNL     1      -0.481  -1.612   5.502  0.00  0.00    -0.123 NA
BRANCH   7  12
ATOM     12  C   UNL     1       0.299  -3.433   3.961  0.00  0.00    +0.361 C 
ATOM     13  O   UNL     1       0.602  -3.723   2.820  0.00  0.00    -0.243 OA
BRANCH  12  15
ATOM     14  C   UNL     1       0.776  -5.700   4.539  0.00  0.00    +0.280 C 
ATOM     15  O   UNL     1       0.351  -4.368   4.930  0.00  0.00    -0.463 OA
ENDBRANCH  12  15
ENDBRANCH   7  12
ENDBRANCH   1   9
BRANCH   3  16
ATOM     16  C   UNL     1      -3.077   1.853   0.570  0.00  0.00    +0.200 C 
ATOM     17  O   UNL     1      -2.834   2.799  -0.148  0.00  0.00    -0.278 OA
ATOM     18  N   UNL     1      -4.322   1.337   0.608  0.00  0.00    -0.316 N 
ATOM     19  H   UNL     1      -4.516   0.581   1.183  0.00  0.00    +0.149 HD
BRANCH  18  20
ATOM     20  C   UNL     1      -5.381   1.921  -0.219  0.00  0.00    +0.109 C 
BRANCH  20  21
ATOM     21  C   UNL     1      -6.686   1.156   0.010  0.00  0.00    +0.054 C 
BRANCH  21  22
ATOM     22  C   UNL     1      -7.776   1.756  -0.840  0.00  0.00    -0.045 A 
ATOM     23  C   UNL     1      -7.993   1.282  -2.121  0.00  0.00    +0.004 A 
ATOM     24  C   UNL     1      -8.993   1.831  -2.901  0.00  0.00    +0.002 A 
ATOM     25  C   UNL     1      -9.777   2.855  -2.402  0.00  0.00    +0.020 A 
ATOM     26  C   UNL     1      -9.559   3.329  -1.121  0.00  0.00    +0.041 A 
ATOM     27  C   UNL     1      -8.562   2.775  -0.338  0.00  0.00    +0.023 A 
ATOM     28 CL   UNL     1     -10.543   4.614  -0.492  0.00  0.00    -0.084 Cl
ENDBRANCH  21  22
ENDBRANCH  20  21
ENDBRANCH  18  20
ENDBRANCH   3  16
BRANCH   5  29
ATOM     29  C   UNL     1      -0.018   1.503   0.010  0.00  0.00    -0.041 C 
BRANCH  29  30
ATOM     30  C   UNL     1       0.002  -0.004   0.002  0.00  0.00    -0.057 A 
ATOM     31  C   UNL     1      -1.025  -0.716  -0.588  0.00  0.00    +0.009 A 
ATOM     32  C   UNL     1      -0.977  -2.071  -0.578  0.00  0.00    +0.045 A 
ATOM     33  S   UNL     1       0.556  -2.379   0.284  0.00  0.00    -0.105 S 
ATOM     34  C   UNL     1       1.031  -0.681   0.568  0.00  0.00    +0.047 A 
ENDBRANCH  29  30
ENDBRANCH   5  29
TORSDOF 9
