REMARK  Name = ZINC02343046
REMARK  8 active torsions:
REMARK  status: ('A' for Active; 'I' for Inactive)
REMARK    1  A    between atoms: C_1  and  C_2
REMARK    2  A    between atoms: C_2  and  C_24
REMARK    3  A    between atoms: C_10  and  N_14
REMARK    4  A    between atoms: N_14  and  C_15
REMARK    5  A    between atoms: C_15  and  C_16
REMARK    6  A    between atoms: C_16  and  N_48
REMARK    7  A    between atoms: C_17  and  N_48
REMARK    8  A    between atoms: C_18  and  N_48
REMARK                            x       y       z     vdW  Elec       q    Type
REMARK                         _______ _______ _______ _____ _____    ______ ____
ROOT
ATOM      1  C   UNL     1      -0.752   2.036  -1.232  0.00  0.00    +0.041 C 
ATOM      2  C   UNL     1      -0.019   1.525   0.010  0.00  0.00    +0.070 C 
ATOM      3  C   UNL     1       0.002  -0.004   0.002  0.00  0.00    +0.090 C 
ATOM      4  C   UNL     1       0.939  -0.508   1.073  0.00  0.00    +0.053 A 
ATOM      5  C   UNL     1       1.883   0.327   1.641  0.00  0.00    +0.000 A 
ATOM      6  C   UNL     1       2.732  -0.171   2.618  0.00  0.00    +0.023 A 
ATOM      7  C   UNL     1       2.596  -1.503   2.996  0.00  0.00    +0.066 A 
ATOM      8  C   UNL     1       3.277  -2.378   3.963  0.00  0.00    +0.123 A 
ATOM      9  C   UNL     1       2.648  -3.623   3.851  0.00  0.00    +0.196 A 
ATOM     10  C   UNL     1       3.103  -4.662   4.671  0.00  0.00    +0.165 A 
ATOM     11  N   UNL     1       4.104  -4.422   5.512  0.00  0.00    -0.217 NA
ATOM     12  C   UNL     1       4.668  -3.231   5.583  0.00  0.00    +0.224 A 
ATOM     13  N   UNL     1       4.273  -2.224   4.832  0.00  0.00    -0.231 NA
ATOM     14  O   UNL     1       1.679  -3.537   2.917  0.00  0.00    -0.432 OA
ATOM     15  C   UNL     1       1.613  -2.298   2.384  0.00  0.00    +0.230 A 
ATOM     16  N   UNL     1       0.832  -1.770   1.455  0.00  0.00    -0.217 NA
ATOM     17  C   UNL     1       2.015   1.769   1.233  0.00  0.00    +0.197 C 
ATOM     18  O   UNL     1       1.333   1.999   0.000  0.00  0.00    -0.369 OA
ATOM     19  C   UNL     1      -0.728   2.022   1.272  0.00  0.00    +0.041 C 
ENDROOT
BRANCH  10  20
ATOM     20  N   UNL     1       2.520  -5.919   4.608  0.00  0.00    -0.328 N 
ATOM     21  H   UNL     1       1.790  -6.084   3.991  0.00  0.00    +0.147 HD
BRANCH  20  22
ATOM     22  C   UNL     1       3.007  -6.997   5.472  0.00  0.00    +0.084 C 
BRANCH  22  23
ATOM     23  C   UNL     1       2.200  -8.269   5.206  0.00  0.00    -0.061 C 
BRANCH  23  26
ATOM     24  C   UNL     1       2.418  -9.054   7.486  0.00  0.00    -0.097 C 
ATOM     25  C   UNL     1       2.105 -10.640   5.684  0.00  0.00    -0.097 C 
ATOM     26  N   UNL     1       2.717  -9.351   6.069  0.00  0.00    +0.377 N 
ATOM     27  H   UNL     1       3.735  -9.416   5.949  0.00  0.00    -0.083 HD
ENDBRANCH  23  26
ENDBRANCH  22  23
ENDBRANCH  20  22
ENDBRANCH  10  20
TORSDOF 4
