REMARK  Name = ZINC09415683
REMARK  8 active torsions:
REMARK  status: ('A' for Active; 'I' for Inactive)
REMARK    1  A    between atoms: C_1  and  C_2
REMARK    2  A    between atoms: C_2  and  O_3
REMARK    3  A    between atoms: O_3  and  C_4
REMARK    4  A    between atoms: C_12  and  C_14
REMARK    5  A    between atoms: C_14  and  S_15
REMARK    6  A    between atoms: S_15  and  C_16
REMARK    7  A    between atoms: N_22  and  C_23
REMARK    8  A    between atoms: C_26  and  C_29
REMARK                            x       y       z     vdW  Elec       q    Type
REMARK                         _______ _______ _______ _____ _____    ______ ____
ROOT
ATOM      1  C   UNL     1      -1.271   3.429   0.129  0.00  0.00    +0.177 A 
ATOM      2  N   UNL     1      -2.396   4.102   0.133  0.00  0.00    -0.227 NA
ATOM      3  C   UNL     1      -3.601   3.501   0.032  0.00  0.00    +0.064 A 
ATOM      4  C   UNL     1      -3.604   2.124  -0.065  0.00  0.00    +0.094 A 
ATOM      5  C   UNL     1      -2.406   1.396  -0.086  0.00  0.00    +0.273 A 
ATOM      6  O   UNL     1      -2.418   0.180  -0.192  0.00  0.00    -0.266 OA
ATOM      7  N   UNL     1      -1.238   2.070   0.019  0.00  0.00    -0.255 N 
ATOM      8  S   UNL     1      -5.306   1.620  -0.151  0.00  0.00    -0.118 S 
ATOM      9  C   UNL     1      -6.091   3.207   0.356  0.00  0.00    +0.081 C 
ATOM     10  C   UNL     1      -4.947   4.182  -0.004  0.00  0.00    +0.068 C 
ENDROOT
BRANCH   7  11
ATOM     11  C   UNL     1      -0.017   1.384   0.010  0.00  0.00    +0.052 A 
ATOM     12  C   UNL     1       0.636   1.143  -1.192  0.00  0.00    +0.026 A 
ATOM     13  C   UNL     1       1.838   0.462  -1.198  0.00  0.00    +0.005 A 
ATOM     14  C   UNL     1       2.391   0.021  -0.010  0.00  0.00    -0.050 A 
ATOM     15  C   UNL     1       1.743   0.260   1.188  0.00  0.00    +0.005 A 
ATOM     16  C   UNL     1       0.541   0.940   1.201  0.00  0.00    +0.026 A 
ATOM     17  C   UNL     1       3.702  -0.722  -0.021  0.00  0.00    +0.044 C 
ENDBRANCH   7  11
BRANCH   1  18
ATOM     18  S   UNL     1       0.248   4.310   0.269  0.00  0.00    -0.078 S 
BRANCH  18  19
ATOM     19  C   UNL     1      -0.379   6.004   0.380  0.00  0.00    +0.173 C 
BRANCH  19  28
ATOM     20  C   UNL     1      -0.149  11.930   2.074  0.00  0.00    +0.403 C 
ATOM     21  O   UNL     1       0.784  12.701   2.179  0.00  0.00    -0.226 OA
ATOM     22  N   UNL     1       0.080  10.605   1.976  0.00  0.00    -0.264 N 
ATOM     23  C   UNL     1       1.452  10.079   1.994  0.00  0.00    +0.130 C 
ATOM     24  C   UNL     1       1.669   9.230   0.736  0.00  0.00    +0.127 C 
ATOM     25  N   UNL     1       0.550   8.285   0.608  0.00  0.00    -0.298 N 
ATOM     26  C   UNL     1      -0.822   8.812   0.584  0.00  0.00    +0.127 C 
ATOM     27  C   UNL     1      -1.039   9.661   1.848  0.00  0.00    +0.130 C 
ATOM     28  C   UNL     1       0.778   6.961   0.510  0.00  0.00    +0.226 C 
ATOM     29  O   UNL     1       1.915   6.538   0.526  0.00  0.00    -0.275 OA
BRANCH  20  30
ATOM     30  O   UNL     1      -1.411  12.398   2.055  0.00  0.00    -0.451 OA
BRANCH  30  32
ATOM     31  C   UNL     1      -3.073  14.177   2.126  0.00  0.00    +0.048 C 
ATOM     32  C   UNL     1      -1.582  13.836   2.165  0.00  0.00    +0.230 C 
ENDBRANCH  30  32
ENDBRANCH  20  30
ENDBRANCH  19  28
ENDBRANCH  18  19
ENDBRANCH   1  18
TORSDOF 6
