REMARK  Name = ZINC02496387
REMARK  5 active torsions:
REMARK  status: ('A' for Active; 'I' for Inactive)
REMARK    1  A    between atoms: C_1  and  C_2
REMARK    2  A    between atoms: C_2  and  C_3
REMARK    3  A    between atoms: C_3  and  C_4
REMARK    4  A    between atoms: C_4  and  N_5
REMARK    5  A    between atoms: C_21  and  C_26
REMARK                            x       y       z     vdW  Elec       q    Type
REMARK                         _______ _______ _______ _____ _____    ______ ____
ROOT
ATOM      1  N   UNL     1       6.432   1.202   1.482  0.00  0.00    -0.224 N 
ATOM      2  C   UNL     1       6.529   1.780   0.268  0.00  0.00    +0.244 C 
ATOM      3  O   UNL     1       7.341   2.608  -0.085  0.00  0.00    -0.273 OA
ATOM      4  C   UNL     1       5.412   1.183  -0.565  0.00  0.00    +0.169 C 
ATOM      5  C   UNL     1       6.009   0.413  -1.749  0.00  0.00    +0.069 C 
ATOM      6  C   UNL     1       5.043  -0.659  -2.186  0.00  0.00    -0.015 A 
ATOM      7  C   UNL     1       5.013  -1.353  -3.461  0.00  0.00    +0.003 A 
ATOM      8  C   UNL     1       5.800  -1.248  -4.612  0.00  0.00    +0.010 A 
ATOM      9  C   UNL     1       5.484  -2.082  -5.656  0.00  0.00    +0.001 A 
ATOM     10  C   UNL     1       4.437  -2.986  -5.585  0.00  0.00    +0.002 A 
ATOM     11  C   UNL     1       3.641  -3.109  -4.459  0.00  0.00    +0.026 A 
ATOM     12  C   UNL     1       3.939  -2.276  -3.383  0.00  0.00    +0.047 A 
ATOM     13  N   UNL     1       3.373  -2.135  -2.149  0.00  0.00    -0.356 N 
ATOM     14  H   UNL     1       2.615  -2.645  -1.821  0.00  0.00    +0.166 HD
ATOM     15  C   UNL     1       4.036  -1.166  -1.444  0.00  0.00    +0.046 A 
ATOM     16  C   UNL     1       3.715  -0.704  -0.037  0.00  0.00    +0.157 C 
ATOM     17  N   UNL     1       4.801   0.201   0.357  0.00  0.00    -0.261 N 
ATOM     18  C   UNL     1       5.428   0.314   1.530  0.00  0.00    +0.313 C 
ATOM     19  O   UNL     1       5.125  -0.314   2.525  0.00  0.00    -0.252 OA
ENDROOT
BRANCH  16  20
ATOM     20  C   UNL     1       2.398   0.030  -0.021  0.00  0.00    -0.001 A 
ATOM     21  C   UNL     1       2.377   1.412  -0.054  0.00  0.00    +0.007 A 
ATOM     22  C   UNL     1       1.170   2.086  -0.038  0.00  0.00    +0.002 A 
ATOM     23  C   UNL     1      -0.017   1.379   0.010  0.00  0.00    +0.021 A 
ATOM     24  C   UNL     1       0.003  -0.004   0.043  0.00  0.00    +0.060 A 
ATOM     25  C   UNL     1       1.212  -0.679   0.027  0.00  0.00    +0.065 A 
ATOM     26 CL   UNL     1       1.238  -2.414   0.069  0.00  0.00    -0.082 Cl
ATOM     27 CL   UNL     1      -1.488  -0.892   0.102  0.00  0.00    -0.082 Cl
ENDBRANCH  16  20
BRANCH   1  28
ATOM     28  C   UNL     1       7.315   1.507   2.611  0.00  0.00    +0.118 C 
BRANCH  28  29
ATOM     29  C   UNL     1       6.719   2.655   3.429  0.00  0.00    +0.019 C 
BRANCH  29  31
ATOM     30  C   UNL     1       7.045   4.122   5.425  0.00  0.00    +0.004 C 
ATOM     31  C   UNL     1       7.641   2.974   4.607  0.00  0.00    -0.002 C 
ENDBRANCH  29  31
ENDBRANCH  28  29
ENDBRANCH   1  28
TORSDOF 4
