REMARK  Name = ZINC45643810
REMARK  8 active torsions:
REMARK  status: ('A' for Active; 'I' for Inactive)
REMARK    1  A    between atoms: C_1  and  C_2
REMARK    2  A    between atoms: C_2  and  C_4
REMARK    3  A    between atoms: C_2  and  S_16
REMARK    4  A    between atoms: N_6  and  C_7
REMARK    5  A    between atoms: S_16  and  C_17
REMARK    6  A    between atoms: N_22  and  C_23
REMARK    7  A    between atoms: C_23  and  C_24
REMARK    8  A    between atoms: C_24  and  C_25
REMARK                            x       y       z     vdW  Elec       q    Type
REMARK                         _______ _______ _______ _____ _____    ______ ____
ROOT
ATOM      1  C   UNL     1      -0.064   1.651   2.161  0.00  0.00    +0.029 C 
ATOM      2  C   UNL     1      -0.312   1.082   0.763  0.00  0.00    +0.136 C 
ENDROOT
BRANCH   2   3
ATOM      3  C   UNL     1      -1.741   0.618   0.655  0.00  0.00    +0.230 C 
ATOM      4  O   UNL     1      -2.567   1.317   0.107  0.00  0.00    -0.274 OA
ATOM      5  N   UNL     1      -2.103  -0.575   1.169  0.00  0.00    -0.282 N 
ATOM      6  H   UNL     1      -1.431  -1.167   1.542  0.00  0.00    +0.155 HD
BRANCH   5   7
ATOM      7  C   UNL     1      -3.450  -0.960   1.163  0.00  0.00    +0.071 A 
ATOM      8  C   UNL     1      -3.963  -1.681   0.092  0.00  0.00    +0.065 A 
ATOM      9  C   UNL     1      -5.293  -2.060   0.090  0.00  0.00    +0.042 A 
ATOM     10  C   UNL     1      -6.112  -1.722   1.153  0.00  0.00    +0.044 A 
ATOM     11  C   UNL     1      -5.603  -1.005   2.221  0.00  0.00    +0.042 A 
ATOM     12  C   UNL     1      -4.273  -0.628   2.232  0.00  0.00    +0.065 A 
ATOM     13 CL   UNL     1      -3.634   0.267   3.575  0.00  0.00    -0.082 Cl
ATOM     14 CL   UNL     1      -7.781  -2.199   1.146  0.00  0.00    -0.083 Cl
ATOM     15 CL   UNL     1      -2.937  -2.104  -1.242  0.00  0.00    -0.082 Cl
ENDBRANCH   5   7
ENDBRANCH   2   3
BRANCH   2  16
ATOM     16  S   UNL     1       0.002   2.367  -0.478  0.00  0.00    -0.084 S 
BRANCH  16  17
ATOM     17  C   UNL     1       1.726   2.695  -0.327  0.00  0.00    +0.161 A 
ATOM     18  N   UNL     1       2.613   2.148   0.482  0.00  0.00    -0.133 NA
ATOM     19  N   UNL     1       3.926   2.555   0.434  0.00  0.00    -0.125 NA
ATOM     20  C   UNL     1       4.292   3.491  -0.420  0.00  0.00    +0.182 A 
ATOM     21  S   UNL     1       2.743   3.850  -1.233  0.00  0.00    -0.025 S 
ATOM     22  N   UNL     1       5.549   4.046  -0.633  0.00  0.00    -0.322 N 
ATOM     23  H   UNL     1       5.666   4.735  -1.305  0.00  0.00    +0.148 HD
BRANCH  22  24
ATOM     24  C   UNL     1       6.695   3.588   0.156  0.00  0.00    +0.108 C 
BRANCH  24  25
ATOM     25  C   UNL     1       7.948   4.354  -0.274  0.00  0.00    +0.061 C 
BRANCH  25  26
ATOM     26  C   UNL     1       9.127   3.884   0.538  0.00  0.00    -0.009 A 
ATOM     27  C   UNL     1      10.002   2.882   0.272  0.00  0.00    +0.011 A 
ATOM     28  C   UNL     1      11.020   2.626   1.171  0.00  0.00    +0.008 A 
ATOM     29  C   UNL     1      11.115   3.383   2.291  0.00  0.00    +0.045 A 
ATOM     30  S   UNL     1       9.740   4.506   2.095  0.00  0.00    -0.102 S 
ENDBRANCH  25  26
ENDBRANCH  24  25
ENDBRANCH  22  24
ENDBRANCH  16  17
ENDBRANCH   2  16
TORSDOF 7
