REMARK  Name = ZINC04406008
REMARK  6 active torsions:
REMARK  status: ('A' for Active; 'I' for Inactive)
REMARK    1  A    between atoms: C_1  and  C_2
REMARK    2  A    between atoms: C_6  and  C_13
REMARK    3  A    between atoms: C_13  and  S_14
REMARK    4  A    between atoms: S_14  and  C_15
REMARK    5  A    between atoms: C_17  and  C_21
REMARK    6  A    between atoms: N_19  and  N_20
REMARK                            x       y       z     vdW  Elec       q    Type
REMARK                         _______ _______ _______ _____ _____    ______ ____
ROOT
ATOM      1  S   UNL     1       2.570  -0.994  -1.733  0.00  0.00    -0.081 S 
ENDROOT
BRANCH   1   2
ATOM      2  C   UNL     1       2.660  -2.731  -1.452  0.00  0.00    +0.187 A 
ATOM      3  N   UNL     1       2.701  -3.314  -0.278  0.00  0.00    -0.221 NA
ATOM      4  C   UNL     1       2.767  -4.658  -0.452  0.00  0.00    +0.092 A 
ATOM      5  C   UNL     1       2.767  -4.907  -1.785  0.00  0.00    +0.138 A 
ATOM      6  N   UNL     1       2.694  -3.691  -2.418  0.00  0.00    -0.251 N 
BRANCH   4   7
ATOM      7  C   UNL     1       2.828  -5.675   0.626  0.00  0.00    +0.002 A 
ATOM      8  C   UNL     1       2.887  -7.031   0.307  0.00  0.00    +0.010 A 
ATOM      9  C   UNL     1       2.947  -7.972   1.314  0.00  0.00    +0.001 A 
ATOM     10  C   UNL     1       2.939  -7.574   2.639  0.00  0.00    +0.000 A 
ATOM     11  C   UNL     1       2.876  -6.230   2.962  0.00  0.00    +0.001 A 
ATOM     12  C   UNL     1       2.820  -5.279   1.963  0.00  0.00    +0.010 A 
ENDBRANCH   4   7
BRANCH   6  13
ATOM     13  N   UNL     1       2.663  -3.481  -3.768  0.00  0.00    -0.296 N 
ATOM     14  H   UNL     1       3.596  -3.379  -4.139  0.00  0.00    +0.163 HD
ATOM     15  H   UNL     1       2.167  -4.223  -4.237  0.00  0.00    +0.163 HD
ENDBRANCH   6  13
ENDBRANCH   1   2
BRANCH   1  16
ATOM     16  C   UNL     1       2.557  -0.400  -0.024  0.00  0.00    +0.113 C 
BRANCH  16  22
ATOM     17  C   UNL     1      -2.555   3.853   0.047  0.00  0.00    +0.044 C 
ATOM     18  C   UNL     1      -1.231   3.133   0.031  0.00  0.00    -0.047 A 
ATOM     19  C   UNL     1      -1.204   1.746   0.017  0.00  0.00    +0.004 A 
ATOM     20  C   UNL     1      -0.013   1.076   0.008  0.00  0.00    +0.012 A 
ATOM     21  C   UNL     1       1.187   1.794   0.000  0.00  0.00    +0.022 A 
ATOM     22  C   UNL     1       2.481   1.105  -0.016  0.00  0.00    -0.020 A 
ATOM     23  C   UNL     1       3.609   1.860  -0.024  0.00  0.00    +0.097 A 
ATOM     24  C   UNL     1       3.510   3.269  -0.016  0.00  0.00    +0.338 A 
ATOM     25  O   UNL     1       4.530   3.935  -0.023  0.00  0.00    -0.245 OA
ATOM     26  O   UNL     1       2.322   3.892  -0.001  0.00  0.00    -0.422 OA
ATOM     27  C   UNL     1       1.163   3.200   0.008  0.00  0.00    +0.140 A 
ATOM     28  C   UNL     1      -0.059   3.860   0.023  0.00  0.00    +0.050 A 
ENDBRANCH  16  22
ENDBRANCH   1  16
TORSDOF 5
