REMARK  Name = ZINC08770766
REMARK  5 active torsions:
REMARK  status: ('A' for Active; 'I' for Inactive)
REMARK    1  A    between atoms: C_1  and  N_52
REMARK    2  A    between atoms: C_3  and  C_26
REMARK    3  A    between atoms: C_5  and  C_18
REMARK    4  A    between atoms: C_18  and  C_20
REMARK    5  A    between atoms: C_30  and  N_32
REMARK                            x       y       z     vdW  Elec       q    Type
REMARK                         _______ _______ _______ _____ _____    ______ ____
ROOT
ATOM      1  C   UNL     1       5.944  -1.568  -0.567  0.00  0.00    -0.094 C 
ATOM      2  C   UNL     1       3.898  -1.225  -1.844  0.00  0.00    -0.068 C 
ATOM      3  C   UNL     1       2.416  -0.965  -1.474  0.00  0.00    +0.013 C 
ATOM      4  C   UNL     1       2.509  -0.432  -0.024  0.00  0.00    +0.068 C 
ATOM      5  C   UNL     1       3.858  -0.943   0.496  0.00  0.00    +0.051 C 
ATOM      6  C   UNL     1       3.679  -1.764   1.744  0.00  0.00    -0.026 A 
ATOM      7  C   UNL     1       2.992  -2.925   2.021  0.00  0.00    +0.024 A 
ATOM      8  C   UNL     1       3.014  -3.454   3.300  0.00  0.00    +0.041 A 
ATOM      9  C   UNL     1       3.728  -2.813   4.298  0.00  0.00    +0.022 A 
ATOM     10  C   UNL     1       4.418  -1.650   4.023  0.00  0.00    +0.025 A 
ATOM     11  C   UNL     1       4.401  -1.112   2.739  0.00  0.00    +0.036 A 
ATOM     12  N   UNL     1       5.011   0.033   2.221  0.00  0.00    -0.286 N 
ATOM     13  C   UNL     1       4.743   0.203   0.913  0.00  0.00    +0.212 C 
ATOM     14  O   UNL     1       5.138   1.106   0.205  0.00  0.00    -0.277 OA
ATOM     15 CL   UNL     1       2.148  -4.917   3.652  0.00  0.00    -0.084 Cl
ATOM     16  H   UNL     1       5.563   0.635   2.743  0.00  0.00    +0.155 HD
ATOM     17  N   UNL     1       4.458  -1.723  -0.582  0.00  0.00    +0.391 N 
ATOM     18  H   UNL     1       4.221  -2.715  -0.466  0.00  0.00    -0.080 HD
ENDROOT
BRANCH   3  19
ATOM     19  C   UNL     1       1.813   0.073  -2.386  0.00  0.00    -0.043 A 
ATOM     20  C   UNL     1       2.431   1.301  -2.540  0.00  0.00    +0.004 A 
ATOM     21  C   UNL     1       1.878   2.253  -3.375  0.00  0.00    +0.002 A 
ATOM     22  C   UNL     1       0.707   1.977  -4.058  0.00  0.00    +0.033 A 
ATOM     23  C   UNL     1       0.091   0.750  -3.905  0.00  0.00    +0.126 A 
ATOM     24  C   UNL     1       0.646  -0.204  -3.072  0.00  0.00    +0.036 A 
BRANCH  23  25
ATOM     25  N   UNL     1      -1.163   0.455  -4.636  0.00  0.00    +0.056 N 
ATOM     26  O   UNL     1      -1.650   1.294  -5.371  0.00  0.00    -0.126 OA
ATOM     27  O   UNL     1      -1.706  -0.626  -4.501  0.00  0.00    -0.126 OA
ENDBRANCH  23  25
ENDBRANCH   3  19
BRANCH   4  28
ATOM     28  C   UNL     1       2.480   1.075  -0.016  0.00  0.00    +0.168 C 
ATOM     29  O   UNL     1       3.447   1.702  -0.392  0.00  0.00    -0.292 OA
BRANCH  28  30
ATOM     30  C   UNL     1       1.278   1.785   0.449  0.00  0.00    +0.036 A 
ATOM     31  C   UNL     1       1.238   3.187   0.462  0.00  0.00    +0.014 A 
ATOM     32  C   UNL     1       0.083   3.805   0.907  0.00  0.00    +0.020 A 
ATOM     33  C   UNL     1      -0.984   3.029   1.323  0.00  0.00    +0.111 A 
ATOM     34  N   UNL     1      -0.921   1.711   1.296  0.00  0.00    -0.263 NA
ATOM     35  C   UNL     1       0.156   1.074   0.885  0.00  0.00    +0.122 A 
ENDBRANCH  28  30
ENDBRANCH   4  28
TORSDOF 4
