REMARK  Name = ZINC09915730
REMARK  12 active torsions:
REMARK  status: ('A' for Active; 'I' for Inactive)
REMARK    1  A    between atoms: C_1  and  C_2
REMARK    2  A    between atoms: C_2  and  C_22
REMARK    3  A    between atoms: C_3  and  C_20
REMARK    4  A    between atoms: C_3  and  O_21
REMARK    5  A    between atoms: C_4  and  C_18
REMARK    6  A    between atoms: C_4  and  O_19
REMARK    7  A    between atoms: C_5  and  C_16
REMARK    8  A    between atoms: C_5  and  O_17
REMARK    9  A    between atoms: C_6  and  C_8
REMARK   10  A    between atoms: C_6  and  S_9
REMARK   11  A    between atoms: S_9  and  C_10
REMARK   12  A    between atoms: C_22  and  O_23
REMARK                            x       y       z     vdW  Elec       q    Type
REMARK                         _______ _______ _______ _____ _____    ______ ____
ROOT
ATOM      1  C   UNL     1      -4.060   3.859   0.871  0.00  0.00    +0.047 C 
ATOM      2  C   UNL     1      -3.142   3.134  -0.123  0.00  0.00    +0.122 C 
ATOM      3  C   UNL     1      -1.760   3.774  -0.098  0.00  0.00    +0.125 C 
ATOM      4  C   UNL     1      -0.852   3.216   0.983  0.00  0.00    +0.126 C 
ATOM      5  C   UNL     1      -0.906   1.707   1.143  0.00  0.00    +0.132 C 
ATOM      6  C   UNL     1      -2.319   1.138   1.088  0.00  0.00    +0.148 C 
ATOM      7  O   UNL     1      -3.124   1.750   0.111  0.00  0.00    -0.348 OA
ATOM      8  C   UNL     1      -2.962   1.247   2.479  0.00  0.00    +0.057 C 
ATOM      9  C   UNL     1      -0.032   1.012   0.093  0.00  0.00    +0.048 C 
ATOM     10  C   UNL     1       0.601   3.614   0.646  0.00  0.00    +0.047 C 
ATOM     11  C   UNL     1      -1.109   3.646  -1.481  0.00  0.00    +0.047 C 
ENDROOT
BRANCH   5  12
ATOM     12  O   UNL     1      -0.355   1.379   2.439  0.00  0.00    -0.382 OA
ATOM     13  H   UNL     1      -0.340   0.432   2.631  0.00  0.00    +0.210 HD
ENDBRANCH   5  12
BRANCH   4  14
ATOM     14  O   UNL     1      -1.177   3.837   2.239  0.00  0.00    -0.383 OA
ATOM     15  H   UNL     1      -0.578   3.603   2.961  0.00  0.00    +0.210 HD
ENDBRANCH   4  14
BRANCH   3  16
ATOM     16  O   UNL     1      -1.937   5.186   0.157  0.00  0.00    -0.383 OA
ATOM     17  H   UNL     1      -2.506   5.633  -0.484  0.00  0.00    +0.210 HD
ENDBRANCH   3  16
BRANCH   6  18
ATOM     18  S   UNL     1      -2.188  -0.641   0.689  0.00  0.00    -0.088 S 
BRANCH  18  19
ATOM     19  C   UNL     1      -3.861  -1.158   0.489  0.00  0.00    +0.011 A 
ATOM     20  C   UNL     1      -4.894  -0.239   0.626  0.00  0.00    +0.015 A 
ATOM     21  C   UNL     1      -6.204  -0.646   0.463  0.00  0.00    +0.001 A 
ATOM     22  C   UNL     1      -6.488  -1.969   0.175  0.00  0.00    +0.000 A 
ATOM     23  C   UNL     1      -5.462  -2.887   0.043  0.00  0.00    +0.001 A 
ATOM     24  C   UNL     1      -4.150  -2.486   0.199  0.00  0.00    +0.015 A 
ENDBRANCH  18  19
ENDBRANCH   6  18
BRANCH   2  25
ATOM     25  C   UNL     1      -3.735   3.370  -1.533  0.00  0.00    +0.193 C 
BRANCH  25  26
ATOM     26  O   UNL     1      -5.080   2.889  -1.571  0.00  0.00    -0.392 OA
ATOM     27  H   UNL     1      -5.515   3.004  -2.427  0.00  0.00    +0.210 HD
ENDBRANCH  25  26
ENDBRANCH   2  25
TORSDOF 7
