REMARK  Name = ZINC26803014
REMARK  10 active torsions:
REMARK  status: ('A' for Active; 'I' for Inactive)
REMARK    1  A    between atoms: C_1  and  C_2
REMARK    2  A    between atoms: C_2  and  C_3
REMARK    3  A    between atoms: C_3  and  S_4
REMARK    4  A    between atoms: S_4  and  C_5
REMARK    5  A    between atoms: C_14  and  C_17
REMARK    6  A    between atoms: C_18  and  N_21
REMARK    7  A    between atoms: N_21  and  N_22
REMARK    8  A    between atoms: N_22  and  C_23
REMARK    9  A    between atoms: C_23  and  N_25
REMARK   10  A    between atoms: C_26  and  C_28
REMARK                            x       y       z     vdW  Elec       q    Type
REMARK                         _______ _______ _______ _____ _____    ______ ____
ROOT
ATOM      1  C   UNL     1      -3.812  -1.651  -0.215  0.00  0.00    +0.156 C 
ATOM      2  N   UNL     1      -3.636  -0.360   0.016  0.00  0.00    -0.219 NA
ATOM      3  C   UNL     1      -2.372   0.112   0.021  0.00  0.00    +0.110 A 
ATOM      4  C   UNL     1      -1.231  -0.663   0.014  0.00  0.00    +0.025 A 
ATOM      5  C   UNL     1       0.002  -0.004   0.002  0.00  0.00    -0.029 A 
ATOM      6  C   UNL     1      -0.016   1.357   0.009  0.00  0.00    -0.005 A 
ATOM      7  S   UNL     1      -1.744   1.766   0.020  0.00  0.00    -0.074 S 
ATOM      8  C   UNL     1       1.155   2.285   0.003  0.00  0.00    +0.043 C 
ATOM      9  C   UNL     1       2.406   1.482  -0.385  0.00  0.00    +0.009 C 
ATOM     10  C   UNL     1       2.439   0.195   0.444  0.00  0.00    -0.009 C 
ATOM     11  C   UNL     1       1.332  -0.754  -0.017  0.00  0.00    +0.039 C 
ATOM     12  C   UNL     1       3.798  -0.486   0.266  0.00  0.00    +0.008 C 
ATOM     13  C   UNL     1      -1.404  -2.182   0.031  0.00  0.00    +0.191 C 
ATOM     14  N   UNL     1      -2.741  -2.460  -0.515  0.00  0.00    -0.303 N 
ATOM     15  H   UNL     1      -2.896  -3.327  -1.174  0.00  0.00    +0.150 HD
ENDROOT
BRANCH  13  16
ATOM     16  N   UNL     1      -1.310  -2.683   1.409  0.00  0.00    -0.217 NA
ATOM     17  H   UNL     1      -0.391  -2.516   1.792  0.00  0.00    +0.147 HD
BRANCH  16  18
ATOM     18  N   UNL     1      -2.277  -2.129   2.199  0.00  0.00    -0.260 N 
ATOM     19  H   UNL     1      -2.991  -1.410   1.771  0.00  0.00    +0.168 HD
BRANCH  18  20
ATOM     20  C   UNL     1      -2.357  -2.464   3.502  0.00  0.00    +0.151 C 
ATOM     21  S   UNL     1      -3.569  -1.770   4.491  0.00  0.00    -0.017 S 
BRANCH  20  22
ATOM     22  N   UNL     1      -1.482  -3.345   4.026  0.00  0.00    -0.263 N 
ATOM     23  C   UNL     1      -1.561  -3.679   5.329  0.00  0.00    +0.250 C 
ATOM     24  O   UNL     1      -2.422  -3.187   6.031  0.00  0.00    -0.270 OA
ATOM     25  H   UNL     1      -0.702  -3.790   3.390  0.00  0.00    +0.157 HD
BRANCH  23  26
ATOM     26  C   UNL     1      -0.602  -4.645   5.904  0.00  0.00    +0.037 A 
ATOM     27  C   UNL     1       0.385  -5.217   5.098  0.00  0.00    +0.013 A 
ATOM     28  C   UNL     1       1.281  -6.114   5.642  0.00  0.00    +0.001 A 
ATOM     29  C   UNL     1       1.196  -6.455   6.981  0.00  0.00    +0.000 A 
ATOM     30  C   UNL     1       0.218  -5.897   7.783  0.00  0.00    +0.001 A 
ATOM     31  C   UNL     1      -0.681  -4.994   7.253  0.00  0.00    +0.013 A 
ENDBRANCH  23  26
ENDBRANCH  20  22
ENDBRANCH  18  20
ENDBRANCH  16  18
ENDBRANCH  13  16
BRANCH   1  32
ATOM     32  S   UNL     1      -5.432  -2.339  -0.138  0.00  0.00    -0.091 S 
BRANCH  32  33
ATOM     33  C   UNL     1      -6.383  -0.856   0.278  0.00  0.00    +0.077 C 
BRANCH  33  35
ATOM     34  C   UNL     1      -8.669   0.034   0.752  0.00  0.00    +0.004 C 
ATOM     35  C   UNL     1      -7.865  -1.219   0.401  0.00  0.00    +0.008 C 
ENDBRANCH  33  35
ENDBRANCH  32  33
ENDBRANCH   1  32
TORSDOF 8
