REMARK  Name = ZINC46892138
REMARK  6 active torsions:
REMARK  status: ('A' for Active; 'I' for Inactive)
REMARK    1  A    between atoms: C_1  and  C_2
REMARK    2  A    between atoms: C_10  and  C_11
REMARK    3  A    between atoms: N_13  and  C_14
REMARK    4  A    between atoms: C_14  and  C_15
REMARK    5  A    between atoms: C_23  and  C_30
REMARK    6  A    between atoms: C_26  and  C_29
REMARK                            x       y       z     vdW  Elec       q    Type
REMARK                         _______ _______ _______ _____ _____    ______ ____
ROOT
ATOM      1  C   UNL     1       0.060  -0.847   4.877  0.00  0.00    +0.141 C 
ENDROOT
BRANCH   1   2
ATOM      2  C   UNL     1       0.086  -2.050   5.784  0.00  0.00    -0.014 A 
ATOM      3  C   UNL     1      -1.100  -2.644   6.195  0.00  0.00    +0.010 A 
ATOM      4  C   UNL     1      -1.033  -3.746   7.028  0.00  0.00    +0.042 A 
ATOM      5  C   UNL     1       0.214  -4.220   7.423  0.00  0.00    +0.099 A 
ATOM      6  N   UNL     1       1.323  -3.626   7.009  0.00  0.00    -0.349 N 
ATOM      7  C   UNL     1       1.289  -2.576   6.210  0.00  0.00    +0.089 A 
ATOM      8  N   UNL     1       0.297  -5.326   8.260  0.00  0.00    -0.312 N 
ATOM      9  C   UNL     1       1.598  -5.928   8.594  0.00  0.00    +0.137 C 
ATOM     10  C   UNL     1       1.685  -6.077  10.117  0.00  0.00    +0.133 C 
ATOM     11  O   UNL     1       0.526  -6.768  10.589  0.00  0.00    -0.371 OA
ATOM     12  C   UNL     1      -0.704  -6.080  10.350  0.00  0.00    +0.133 C 
ATOM     13  C   UNL     1      -0.913  -5.927   8.843  0.00  0.00    +0.137 C 
ATOM     14  C   UNL     1      -1.862  -6.878  10.951  0.00  0.00    +0.039 C 
ATOM     15  C   UNL     1       1.754  -4.692  10.763  0.00  0.00    +0.039 C 
ATOM     16  H   UNL     1       2.182  -3.973   7.298  0.00  0.00    +0.167 HD
ENDBRANCH   1   2
BRANCH   1  19
ATOM     17  C   UNL     1       0.061  -0.378   2.486  0.00  0.00    +0.280 C 
ATOM     18  O   UNL     1       0.030   0.809   2.748  0.00  0.00    -0.267 OA
ATOM     19  N   UNL     1       0.079  -1.288   3.480  0.00  0.00    -0.305 N 
ATOM     20  H   UNL     1       0.104  -2.235   3.271  0.00  0.00    +0.149 HD
BRANCH  17  30
ATOM     21  C   UNL     1       0.028   1.509   0.014  0.00  0.00    +0.048 C 
ATOM     22  C   UNL     1       0.065   0.002   0.004  0.00  0.00    +0.008 A 
ATOM     23  C   UNL     1       0.099  -0.869  -1.170  0.00  0.00    +0.025 A 
ATOM     24  C   UNL     1       0.108  -0.645  -2.549  0.00  0.00    +0.012 A 
ATOM     25  C   UNL     1       0.143  -1.707  -3.408  0.00  0.00    +0.002 A 
ATOM     26  C   UNL     1       0.171  -3.006  -2.920  0.00  0.00    +0.024 A 
ATOM     27  C   UNL     1       0.163  -3.249  -1.563  0.00  0.00    +0.084 A 
ATOM     28  C   UNL     1       0.128  -2.183  -0.669  0.00  0.00    +0.154 A 
ATOM     29  O   UNL     1       0.112  -2.107   0.676  0.00  0.00    -0.448 OA
ATOM     30  C   UNL     1       0.080  -0.821   1.084  0.00  0.00    +0.193 A 
ATOM     31 CL   UNL     1       0.198  -4.881  -0.971  0.00  0.00    -0.080 Cl
ENDBRANCH  17  30
ENDBRANCH   1  19
TORSDOF 3
