REMARK  Name = ZINC53714472
REMARK  3 active torsions:
REMARK  status: ('A' for Active; 'I' for Inactive)
REMARK    1  A    between atoms: C_2  and  C_14
REMARK    2  A    between atoms: C_14  and  C_16
REMARK    3  A    between atoms: C_14  and  N_23
REMARK                            x       y       z     vdW  Elec       q    Type
REMARK                         _______ _______ _______ _____ _____    ______ ____
ROOT
ATOM      1  C   UNL     1      -0.017   1.382   0.010  0.00  0.00    +0.031 A 
ATOM      2  C   UNL     1       1.172   2.086   0.002  0.00  0.00    -0.046 A 
ATOM      3  C   UNL     1       2.382   1.413  -0.013  0.00  0.00    +0.022 A 
ATOM      4  C   UNL     1       2.410   0.031  -0.021  0.00  0.00    +0.043 A 
ATOM      5  C   UNL     1       1.222  -0.683  -0.013  0.00  0.00    +0.068 A 
ATOM      6  C   UNL     1       0.002  -0.004   0.002  0.00  0.00    +0.067 A 
ATOM      7  N   UNL     1      -0.998  -0.974   0.006  0.00  0.00    -0.306 N 
ATOM      8  H   UNL     1      -1.953  -0.804   0.016  0.00  0.00    +0.170 HD
ATOM      9  C   UNL     1      -0.413  -2.186  -0.006  0.00  0.00    +0.325 A 
ATOM     10  O   UNL     1      -1.005  -3.250  -0.005  0.00  0.00    -0.247 OA
ATOM     11  N   UNL     1       0.925  -2.044  -0.018  0.00  0.00    -0.306 N 
ATOM     12  H   UNL     1       1.573  -2.767  -0.028  0.00  0.00    +0.170 HD
ATOM     13 BR   UNL     1       4.002   2.388  -0.024  0.00  0.00    -0.050 Br
ENDROOT
BRANCH   2  14
ATOM     14  C   UNL     1       1.151   3.593   0.010  0.00  0.00    -0.040 C 
BRANCH  14  15
ATOM     15  C   UNL     1       1.408   4.099   1.431  0.00  0.00    -0.021 C 
ATOM     16  C   UNL     1       0.346   3.499   2.374  0.00  0.00    +0.002 C 
ATOM     17  C   UNL     1       0.869   3.561   3.784  0.00  0.00    +0.000 C 
ATOM     18  C   UNL     1       0.404   4.825   4.530  0.00  0.00    +0.000 C 
ATOM     19  C   UNL     1       0.459   6.091   3.653  0.00  0.00    +0.000 C 
ATOM     20  C   UNL     1       1.703   6.154   2.809  0.00  0.00    +0.000 C 
ATOM     21  C   UNL     1       1.386   5.554   1.424  0.00  0.00    +0.002 C 
ENDBRANCH  14  15
BRANCH  14  22
ATOM     22  N   UNL     1      -0.161   4.067  -0.449  0.00  0.00    +0.383 N 
ATOM     23  H   UNL     1      -0.175   5.076  -0.444  0.00  0.00    -0.089 HD
ATOM     24  H   UNL     1      -0.330   3.733  -1.386  0.00  0.00    -0.089 HD
ATOM     25  H   UNL     1      -0.879   3.718   0.167  0.00  0.00    -0.089 HD
ENDBRANCH  14  22
ENDBRANCH   2  14
TORSDOF 3
