REMARK  Name = ZINC15947696
REMARK  6 active torsions:
REMARK  status: ('A' for Active; 'I' for Inactive)
REMARK    1  A    between atoms: C_1  and  C_2
REMARK    2  A    between atoms: C_11  and  O_32
REMARK    3  A    between atoms: C_13  and  C_16
REMARK    4  A    between atoms: C_19  and  O_22
REMARK    5  A    between atoms: O_22  and  C_23
REMARK    6  A    between atoms: C_23  and  C_25
REMARK                            x       y       z     vdW  Elec       q    Type
REMARK                         _______ _______ _______ _____ _____    ______ ____
ROOT
ATOM      1  C   UNL     1       0.211   1.573   0.731  0.00  0.00    +0.008 C 
ATOM      2  C   UNL     1       0.193   0.048   0.604  0.00  0.00    -0.009 C 
ATOM      3  C   UNL     1       0.895  -0.367  -0.692  0.00  0.00    +0.008 C 
ATOM      4  C   UNL     1       0.669  -1.858  -0.953  0.00  0.00    +0.037 C 
ATOM      5  C   UNL     1       1.060  -2.637   0.295  0.00  0.00    -0.023 A 
ATOM      6  C   UNL     1       1.168  -2.025   1.497  0.00  0.00    -0.004 A 
ATOM      7  S   UNL     1       1.637  -3.313   2.620  0.00  0.00    -0.078 S 
ATOM      8  C   UNL     1       1.685  -4.592   1.566  0.00  0.00    +0.080 A 
ATOM      9  C   UNL     1       1.347  -4.060   0.316  0.00  0.00    +0.068 A 
ATOM     10  C   UNL     1       1.325  -4.991  -0.842  0.00  0.00    +0.220 C 
ATOM     11  N   UNL     1       1.372  -6.271  -0.591  0.00  0.00    -0.223 NA
ATOM     12  C   UNL     1       1.381  -6.851   0.746  0.00  0.00    +0.224 C 
ATOM     13  N   UNL     1       1.968  -5.929   1.735  0.00  0.00    -0.313 N 
ATOM     14  C   UNL     1       0.934  -0.577   1.795  0.00  0.00    +0.046 C 
ATOM     15  H   UNL     1       2.524  -6.246   2.464  0.00  0.00    +0.149 HD
ENDROOT
BRANCH  12  16
ATOM     16  C   UNL     1      -0.035  -7.170   1.154  0.00  0.00    -0.005 A 
ATOM     17  C   UNL     1      -0.396  -7.124   2.487  0.00  0.00    +0.011 A 
ATOM     18  C   UNL     1      -1.693  -7.415   2.863  0.00  0.00    +0.047 A 
ATOM     19  C   UNL     1      -2.633  -7.754   1.901  0.00  0.00    +0.132 A 
ATOM     20  C   UNL     1      -2.268  -7.799   0.563  0.00  0.00    +0.047 A 
ATOM     21  C   UNL     1      -0.971  -7.502   0.192  0.00  0.00    +0.011 A 
BRANCH  19  22
ATOM     22  O   UNL     1      -3.910  -8.042   2.268  0.00  0.00    -0.422 OA
BRANCH  22  23
ATOM     23  C   UNL     1      -4.677  -7.036   2.732  0.00  0.00    +0.344 C 
ATOM     24  O   UNL     1      -4.258  -5.895   2.714  0.00  0.00    -0.245 OA
BRANCH  23  25
ATOM     25  C   UNL     1      -6.025  -7.319   3.261  0.00  0.00    +0.059 A 
ATOM     26  C   UNL     1      -6.507  -8.630   3.289  0.00  0.00    +0.016 A 
ATOM     27  C   UNL     1      -7.767  -8.889   3.785  0.00  0.00    +0.021 A 
ATOM     28  C   UNL     1      -8.555  -7.851   4.256  0.00  0.00    +0.041 A 
ATOM     29  C   UNL     1      -8.083  -6.549   4.231  0.00  0.00    +0.021 A 
ATOM     30  C   UNL     1      -6.823  -6.279   3.743  0.00  0.00    +0.016 A 
ATOM     31 CL   UNL     1     -10.141  -8.185   4.878  0.00  0.00    -0.084 Cl
ENDBRANCH  23  25
ENDBRANCH  22  23
ENDBRANCH  19  22
ENDBRANCH  12  16
BRANCH  10  32
ATOM     32  O   UNL     1       1.258  -4.528  -2.111  0.00  0.00    -0.492 OA
ATOM     33  H   UNL     1       1.249  -5.223  -2.784  0.00  0.00    +0.294 HD
ENDBRANCH  10  32
TORSDOF 5
