REMARK  Name = ZINC36306566
REMARK  18 active torsions:
REMARK  status: ('A' for Active; 'I' for Inactive)
REMARK    1  A    between atoms: C_1  and  C_2
REMARK    2  A    between atoms: C_6  and  O_8
REMARK    3  A    between atoms: O_8  and  C_9
REMARK    4  A    between atoms: C_10  and  C_21
REMARK    5  A    between atoms: C_11  and  C_15
REMARK    6  A    between atoms: N_13  and  C_14
REMARK    7  A    between atoms: C_21  and  N_22
REMARK    8  A    between atoms: N_22  and  C_23
REMARK    9  A    between atoms: N_22  and  C_27
REMARK   10  A    between atoms: C_23  and  C_24
REMARK   11  A    between atoms: C_27  and  C_28
REMARK   12  A    between atoms: C_28  and  C_30
REMARK   13  A    between atoms: C_28  and  O_36
REMARK   14  A    between atoms: C_30  and  O_31
REMARK   15  A    between atoms: O_31  and  C_32
REMARK   16  A    between atoms: C_32  and  C_33
REMARK   17  A    between atoms: C_33  and  C_34
REMARK   18  A    between atoms: C_33  and  C_35
REMARK                            x       y       z     vdW  Elec       q    Type
REMARK                         _______ _______ _______ _____ _____    ______ ____
ROOT
ATOM      1  C   UNL     1      -1.010  -5.087   1.450  0.00  0.00    +0.221 A 
ATOM      2  C   UNL     1      -0.605  -5.584   2.647  0.00  0.00    +0.025 A 
ATOM      3  C   UNL     1      -0.105  -6.881   2.426  0.00  0.00    +0.098 A 
ATOM      4  N   UNL     1      -0.208  -7.148   1.142  0.00  0.00    -0.168 NA
ATOM      5  N   UNL     1      -0.780  -6.037   0.508  0.00  0.00    -0.235 N 
ATOM      6  C   UNL     1      -1.075  -5.920  -0.922  0.00  0.00    +0.176 C 
ENDROOT
BRANCH   3   7
ATOM      7  C   UNL     1       0.445  -7.791   3.463  0.00  0.00    +0.002 A 
ATOM      8  C   UNL     1       0.091  -9.139   3.469  0.00  0.00    +0.010 A 
ATOM      9  C   UNL     1       0.605  -9.980   4.435  0.00  0.00    +0.001 A 
ATOM     10  C   UNL     1       1.468  -9.487   5.396  0.00  0.00    +0.000 A 
ATOM     11  C   UNL     1       1.822  -8.150   5.395  0.00  0.00    +0.001 A 
ATOM     12  C   UNL     1       1.320  -7.301   4.430  0.00  0.00    +0.010 A 
ENDBRANCH   3   7
BRANCH   1  13
ATOM     13  O   UNL     1      -1.552  -3.861   1.235  0.00  0.00    -0.438 OA
BRANCH  13  19
ATOM     14  C   UNL     1      -0.953   0.773  -0.174  0.00  0.00    +0.044 C 
ATOM     15  C   UNL     1      -0.389  -0.576   0.191  0.00  0.00    -0.047 A 
ATOM     16  C   UNL     1       0.978  -0.782   0.170  0.00  0.00    +0.003 A 
ATOM     17  C   UNL     1       1.498  -2.019   0.505  0.00  0.00    +0.004 A 
ATOM     18  C   UNL     1       0.653  -3.051   0.862  0.00  0.00    +0.046 A 
ATOM     19  C   UNL     1      -0.719  -2.847   0.884  0.00  0.00    +0.131 A 
ATOM     20  C   UNL     1      -1.238  -1.604   0.553  0.00  0.00    +0.049 A 
ENDBRANCH  13  19
ENDBRANCH   1  13
BRANCH   2  21
ATOM     21  C   UNL     1      -0.678  -4.874   3.974  0.00  0.00    -0.035 C 
BRANCH  21  22
ATOM     22  N   UNL     1      -2.029  -5.016   4.531  0.00  0.00    +0.384 N 
ATOM     23  H   UNL     1      -2.701  -4.625   3.888  0.00  0.00    -0.081 HD
BRANCH  22  24
ATOM     24  C   UNL     1      -2.325  -6.439   4.744  0.00  0.00    -0.075 C 
BRANCH  24  25
ATOM     25  C   UNL     1      -3.774  -6.596   5.208  0.00  0.00    -0.028 C 
ATOM     26  C   UNL     1      -4.747  -7.301   4.261  0.00  0.00    +0.002 C 
ATOM     27  C   UNL     1      -4.264  -8.009   5.529  0.00  0.00    +0.002 C 
ENDBRANCH  24  25
ENDBRANCH  22  24
BRANCH  22  28
ATOM     28  C   UNL     1      -2.107  -4.303   5.814  0.00  0.00    -0.044 C 
BRANCH  28  29
ATOM     29  C   UNL     1      -1.985  -2.798   5.569  0.00  0.00    +0.124 C 
BRANCH  29  30
ATOM     30  O   UNL     1      -0.658  -2.492   5.136  0.00  0.00    -0.391 OA
ATOM     31  H   UNL     1       0.029  -2.734   5.773  0.00  0.00    +0.210 HD
ENDBRANCH  29  30
BRANCH  29  32
ATOM     32  C   UNL     1      -2.285  -2.044   6.866  0.00  0.00    +0.189 C 
BRANCH  32  33
ATOM     33  O   UNL     1      -2.286  -0.638   6.610  0.00  0.00    -0.377 OA
BRANCH  33  34
ATOM     34  C   UNL     1      -2.558   0.162   7.763  0.00  0.00    +0.163 C 
BRANCH  34  35
ATOM     35  C   UNL     1      -2.533   1.641   7.374  0.00  0.00    +0.009 C 
ATOM     36  C   UNL     1      -3.676   1.932   6.400  0.00  0.00    +0.009 C 
ATOM     37  C   UNL     1      -2.700   2.501   8.628  0.00  0.00    +0.009 C 
ENDBRANCH  34  35
ENDBRANCH  33  34
ENDBRANCH  32  33
ENDBRANCH  29  32
ENDBRANCH  28  29
ENDBRANCH  22  28
ENDBRANCH  21  22
ENDBRANCH   2  21
TORSDOF 14
