REMARK  Name = ZINC02505796
REMARK  5 active torsions:
REMARK  status: ('A' for Active; 'I' for Inactive)
REMARK    1  A    between atoms: C_1  and  C_2
REMARK    2  A    between atoms: C_5  and  C_32
REMARK    3  A    between atoms: N_6  and  C_7
REMARK    4  A    between atoms: C_11  and  C_12
REMARK    5  A    between atoms: C_28  and  C_29
REMARK                            x       y       z     vdW  Elec       q    Type
REMARK                         _______ _______ _______ _____ _____    ______ ____
ROOT
ATOM      1  C   UNL     1      -1.688   4.474   0.294  0.00  0.00    +0.076 A 
ATOM      2  C   UNL     1      -1.902   5.855   0.457  0.00  0.00    +0.076 A 
ATOM      3  C   UNL     1      -3.199   6.123   0.069  0.00  0.00    +0.153 A 
ATOM      4  N   UNL     1      -3.760   4.939  -0.319  0.00  0.00    -0.156 NA
ATOM      5  H   UNL     1      -2.841   2.852  -0.367  0.00  0.00    +0.189 HD
ATOM      6  N   UNL     1      -2.798   3.933  -0.169  0.00  0.00    -0.274 N 
ATOM      7  N   UNL     1      -3.806   7.339   0.073  0.00  0.00    -0.337 N 
ATOM      8  C   UNL     1      -4.053   7.949   1.217  0.00  0.00    +0.065 A 
ATOM      9  C   UNL     1      -3.882   7.274   2.523  0.00  0.00    +0.044 A 
ATOM     10  C   UNL     1      -3.715   5.895   2.607  0.00  0.00    +0.052 A 
ATOM     11  C   UNL     1      -3.564   5.302   3.846  0.00  0.00    +0.124 A 
ATOM     12  C   UNL     1      -3.582   6.079   4.995  0.00  0.00    +0.042 A 
ATOM     13  C   UNL     1      -3.734   7.452   4.919  0.00  0.00    +0.050 A 
ATOM     14  C   UNL     1      -3.890   8.067   3.682  0.00  0.00    +0.137 A 
ATOM     15  O   UNL     1      -4.050   9.404   3.605  0.00  0.00    -0.462 OA
ATOM     16  C   UNL     1      -4.497   9.990   2.498  0.00  0.00    +0.208 A 
ATOM     17  C   UNL     1      -4.526   9.355   1.276  0.00  0.00    +0.073 A 
ATOM     18  F   UNL     1      -3.400   3.964   3.938  0.00  0.00    -0.205 F 
ATOM     19  H   UNL     1      -4.091   7.815  -0.877  0.00  0.00    +0.167 HD
ENDROOT
BRANCH   1  24
ATOM     20  C   UNL     1      -0.148   2.407   0.453  0.00  0.00    +0.063 A 
ATOM     21  C   UNL     1       1.116   1.966   0.801  0.00  0.00    +0.034 A 
ATOM     22  C   UNL     1       2.030   2.862   1.248  0.00  0.00    +0.048 A 
ATOM     23  S   UNL     1       1.117   4.396   1.201  0.00  0.00    -0.093 S 
ATOM     24  C   UNL     1      -0.431   3.753   0.587  0.00  0.00    +0.061 A 
BRANCH  20  30
ATOM     25  C   UNL     1      -0.556   1.711  -2.508  0.00  0.00    +0.064 C 
ATOM     26  C   UNL     1      -1.327   1.177  -1.328  0.00  0.00    +0.021 A 
ATOM     27  C   UNL     1      -2.339   0.287  -1.382  0.00  0.00    +0.023 A 
ATOM     28  C   UNL     1      -2.780   0.068  -0.062  0.00  0.00    +0.023 A 
ATOM     29  C   UNL     1      -2.016   0.827   0.751  0.00  0.00    +0.021 A 
ATOM     30  N   UNL     1      -1.119   1.508  -0.020  0.00  0.00    -0.317 N 
ATOM     31  C   UNL     1      -2.133   0.910   2.251  0.00  0.00    +0.064 C 
ENDBRANCH  20  30
ENDBRANCH   1  24
BRANCH  17  32
ATOM     32  C   UNL     1      -5.006  10.043   0.078  0.00  0.00    +0.263 C 
ATOM     33  O   UNL     1      -5.388  11.193   0.150  0.00  0.00    -0.296 OA
ENDBRANCH  17  32
TORSDOF 3
