REMARK  Name = ZINC01612940
REMARK  13 active torsions:
REMARK  status: ('A' for Active; 'I' for Inactive)
REMARK    1  A    between atoms: C_1  and  C_2
REMARK    2  A    between atoms: C_4  and  C_19
REMARK    3  A    between atoms: C_5  and  C_18
REMARK    4  A    between atoms: C_13  and  O_16
REMARK    5  A    between atoms: O_16  and  C_17
REMARK    6  A    between atoms: C_19  and  C_20
REMARK    7  A    between atoms: C_20  and  C_22
REMARK    8  A    between atoms: C_20  and  C_23
REMARK    9  A    between atoms: C_25  and  C_43
REMARK   10  A    between atoms: C_28  and  C_29
REMARK   11  A    between atoms: C_32  and  O_41
REMARK   12  A    between atoms: C_37  and  C_40
REMARK   13  A    between atoms: O_41  and  C_42
REMARK                            x       y       z     vdW  Elec       q    Type
REMARK                         _______ _______ _______ _____ _____    ______ ____
ROOT
ATOM      1  C   UNL     1       3.860   2.743  -0.824  0.00  0.00    +0.021 C 
ATOM      2  C   UNL     1       3.787   1.347  -1.446  0.00  0.00    +0.013 C 
ENDROOT
BRANCH   1   3
ATOM      3  C   UNL     1       5.106   3.442  -1.301  0.00  0.00    -0.040 A 
ATOM      4  C   UNL     1       6.353   2.947  -0.950  0.00  0.00    +0.009 A 
ATOM      5  C   UNL     1       7.501   3.577  -1.380  0.00  0.00    -0.026 A 
ATOM      6  C   UNL     1       7.424   4.717  -2.172  0.00  0.00    +0.054 A 
ATOM      7  C   UNL     1       6.151   5.220  -2.530  0.00  0.00    +0.011 A 
ATOM      8  C   UNL     1       5.003   4.566  -2.090  0.00  0.00    -0.037 A 
ATOM      9  C   UNL     1       3.645   5.094  -2.473  0.00  0.00    +0.045 C 
ATOM     10  C   UNL     1       6.385   6.413  -3.357  0.00  0.00    +0.012 A 
ATOM     11  C   UNL     1       5.683   7.398  -4.048  0.00  0.00    +0.056 A 
ATOM     12  C   UNL     1       6.404   8.377  -4.720  0.00  0.00    +0.121 A 
ATOM     13  C   UNL     1       7.801   8.414  -4.737  0.00  0.00    +0.051 A 
ATOM     14  C   UNL     1       8.501   7.442  -4.057  0.00  0.00    -0.018 A 
ATOM     15  C   UNL     1       7.758   6.504  -3.410  0.00  0.00    +0.054 A 
ATOM     16  N   UNL     1       8.406   5.527  -2.727  0.00  0.00    -0.336 N 
ATOM     17  C   UNL     1       9.843   5.793  -2.901  0.00  0.00    +0.089 C 
ATOM     18  C   UNL     1       9.935   7.063  -3.784  0.00  0.00    +0.062 C 
ATOM     19  C   UNL     1      10.517   4.612  -3.604  0.00  0.00    +0.031 C 
ATOM     20  C   UNL     1       8.848   3.026  -0.989  0.00  0.00    +0.046 C 
BRANCH  12  21
ATOM     21  O   UNL     1       5.720   9.340  -5.394  0.00  0.00    -0.495 OA
ATOM     22  C   UNL     1       4.293   9.271  -5.354  0.00  0.00    +0.277 C 
ENDBRANCH  12  21
ENDBRANCH   1   3
BRANCH   1  23
ATOM     23  C   UNL     1       3.896   2.621   0.701  0.00  0.00    +0.043 C 
BRANCH  23  27
ATOM     24  C   UNL     1       1.276  -1.402   2.107  0.00  0.00    +0.046 C 
ATOM     25  C   UNL     1       1.349   0.083   1.859  0.00  0.00    -0.026 A 
ATOM     26  C   UNL     1       2.523   0.651   1.415  0.00  0.00    +0.009 A 
ATOM     27  C   UNL     1       2.604   2.016   1.188  0.00  0.00    -0.043 A 
ATOM     28  C   UNL     1       1.508   2.823   1.405  0.00  0.00    -0.038 A 
ATOM     29  C   UNL     1       0.315   2.262   1.855  0.00  0.00    +0.011 A 
ATOM     30  C   UNL     1       0.231   0.881   2.084  0.00  0.00    +0.051 A 
ATOM     31  N   UNL     1      -1.049   0.587   2.520  0.00  0.00    -0.354 N 
ATOM     32  H   UNL     1      -1.368  -0.300   2.748  0.00  0.00    +0.166 HD
ATOM     33  C   UNL     1      -1.811   1.743   2.583  0.00  0.00    +0.048 A 
ATOM     34  C   UNL     1      -1.011   2.822   2.178  0.00  0.00    +0.011 A 
ATOM     35  C   UNL     1      -1.538   4.111   2.150  0.00  0.00    +0.056 A 
ATOM     36  C   UNL     1      -2.853   4.322   2.522  0.00  0.00    +0.121 A 
ATOM     37  C   UNL     1      -3.646   3.252   2.923  0.00  0.00    +0.047 A 
ATOM     38  C   UNL     1      -3.132   1.973   2.953  0.00  0.00    +0.030 A 
ATOM     39  C   UNL     1       1.600   4.307   1.159  0.00  0.00    +0.045 C 
BRANCH  36  40
ATOM     40  O   UNL     1      -3.373   5.578   2.496  0.00  0.00    -0.495 OA
ATOM     41  C   UNL     1      -4.738   5.724   2.893  0.00  0.00    +0.277 C 
ENDBRANCH  36  40
ENDBRANCH  23  27
ENDBRANCH   1  23
TORSDOF 5
