REMARK  Name = ZINC09129378
REMARK  7 active torsions:
REMARK  status: ('A' for Active; 'I' for Inactive)
REMARK    1  A    between atoms: C_4  and  C_7
REMARK    2  A    between atoms: C_8  and  C_18
REMARK    3  A    between atoms: C_12  and  C_13
REMARK    4  A    between atoms: C_21  and  O_25
REMARK    5  A    between atoms: C_23  and  O_24
REMARK    6  A    between atoms: O_25  and  C_26
REMARK    7  A    between atoms: C_26  and  C_27
REMARK                            x       y       z     vdW  Elec       q    Type
REMARK                         _______ _______ _______ _____ _____    ______ ____
ROOT
ATOM      1  C   UNL     1       2.015   0.055   0.839  0.00  0.00    +0.038 A 
ATOM      2  C   UNL     1       1.280  -0.655  -0.131  0.00  0.00    +0.088 A 
ATOM      3  N   UNL     1       0.447   0.016  -0.923  0.00  0.00    -0.214 NA
ATOM      4  C   UNL     1       0.310   1.327  -0.804  0.00  0.00    +0.214 A 
ATOM      5  N   UNL     1       0.987   2.025   0.097  0.00  0.00    -0.210 NA
ATOM      6  C   UNL     1       1.835   1.435   0.923  0.00  0.00    +0.157 A 
ATOM      7  N   UNL     1      -0.562   1.990  -1.650  0.00  0.00    -0.327 N 
ATOM      8  H   UNL     1      -1.061   1.494  -2.317  0.00  0.00    +0.145 HD
ATOM      9  H   UNL     1      -0.673   2.951  -1.575  0.00  0.00    +0.145 HD
ENDROOT
BRANCH   1  13
ATOM     10  C   UNL     1       4.714  -1.955   3.437  0.00  0.00    +0.000 A 
ATOM     11  C   UNL     1       5.200  -1.088   2.475  0.00  0.00    +0.001 A 
ATOM     12  C   UNL     1       4.329  -0.433   1.629  0.00  0.00    +0.008 A 
ATOM     13  C   UNL     1       2.956  -0.646   1.745  0.00  0.00    -0.014 A 
ATOM     14  C   UNL     1       2.472  -1.516   2.720  0.00  0.00    +0.008 A 
ATOM     15  C   UNL     1       3.353  -2.171   3.556  0.00  0.00    +0.001 A 
ENDBRANCH   1  13
BRANCH   2  16
ATOM     16  C   UNL     1       1.430  -2.120  -0.266  0.00  0.00    +0.043 A 
ATOM     17  C   UNL     1       2.702  -2.688  -0.359  0.00  0.00    +0.017 A 
ATOM     18  C   UNL     1       2.839  -4.053  -0.485  0.00  0.00    +0.046 A 
ATOM     19  C   UNL     1       1.714  -4.869  -0.519  0.00  0.00    +0.124 A 
ATOM     20  C   UNL     1       0.446  -4.314  -0.427  0.00  0.00    +0.091 A 
ATOM     21  C   UNL     1       0.298  -2.943  -0.295  0.00  0.00    +0.129 A 
BRANCH  21  22
ATOM     22  O   UNL     1      -0.942  -2.399  -0.199  0.00  0.00    -0.506 OA
ATOM     23  H   UNL     1      -1.336  -2.163  -1.050  0.00  0.00    +0.292 HD
ENDBRANCH  21  22
BRANCH  19  24
ATOM     24  O   UNL     1       1.856  -6.213  -0.644  0.00  0.00    -0.487 OA
BRANCH  24  25
ATOM     25  C   UNL     1       3.190  -6.719  -0.735  0.00  0.00    +0.264 C 
BRANCH  25  26
ATOM     26  C   UNL     1       3.150  -8.220  -0.867  0.00  0.00    -0.010 A 
ATOM     27  C   UNL     1       3.179  -9.014   0.265  0.00  0.00    +0.010 A 
ATOM     28  C   UNL     1       3.138 -10.390   0.145  0.00  0.00    +0.039 A 
ATOM     29  C   UNL     1       3.079 -10.973  -1.109  0.00  0.00    +0.123 A 
ATOM     30  C   UNL     1       3.056 -10.177  -2.242  0.00  0.00    +0.039 A 
ATOM     31  C   UNL     1       3.092  -8.801  -2.119  0.00  0.00    +0.010 A 
ATOM     32  F   UNL     1       3.043 -12.319  -1.228  0.00  0.00    -0.205 F 
ENDBRANCH  25  26
ENDBRANCH  24  25
ENDBRANCH  19  24
ENDBRANCH   2  16
BRANCH   6  33
ATOM     33  C   UNL     1       2.596   2.244   1.941  0.00  0.00    +0.435 C 
ATOM     34  F   UNL     1       3.805   2.675   1.385  0.00  0.00    -0.164 F 
ATOM     35  F   UNL     1       1.834   3.355   2.319  0.00  0.00    -0.164 F 
ATOM     36  F   UNL     1       2.856   1.453   3.066  0.00  0.00    -0.164 F 
ENDBRANCH   6  33
TORSDOF 7
