REMARK  Name = ZINC45639115
REMARK  8 active torsions:
REMARK  status: ('A' for Active; 'I' for Inactive)
REMARK    1  A    between atoms: C_1  and  C_2
REMARK    2  A    between atoms: C_6  and  C_25
REMARK    3  A    between atoms: C_8  and  N_11
REMARK    4  A    between atoms: N_14  and  N_15
REMARK    5  A    between atoms: C_16  and  C_18
REMARK    6  A    between atoms: N_22  and  C_23
REMARK    7  A    between atoms: C_25  and  C_26
REMARK    8  A    between atoms: C_25  and  C_27
REMARK                            x       y       z     vdW  Elec       q    Type
REMARK                         _______ _______ _______ _____ _____    ______ ____
ROOT
ATOM      1  N   UNL     1      -0.985  -1.635   1.115  0.00  0.00    -0.295 N 
ATOM      2  C   UNL     1      -1.671  -1.708   2.273  0.00  0.00    +0.316 C 
ATOM      3  O   UNL     1      -1.212  -1.212   3.284  0.00  0.00    -0.251 OA
ATOM      4  N   UNL     1      -2.866  -2.330   2.310  0.00  0.00    -0.218 N 
ATOM      5  H   UNL     1      -1.351  -2.031   0.309  0.00  0.00    +0.151 HD
ATOM      6  H   UNL     1      -3.360  -2.382   3.143  0.00  0.00    +0.174 HD
ENDROOT
BRANCH   1  12
ATOM      7  C   UNL     1      -0.852   2.282  -0.648  0.00  0.00    +0.007 C 
ATOM      8  C   UNL     1      -0.639   0.780  -0.446  0.00  0.00    -0.012 C 
ATOM      9  C   UNL     1       0.191   0.222  -1.604  0.00  0.00    +0.004 C 
ATOM     10  C   UNL     1       0.404  -1.279  -1.402  0.00  0.00    +0.006 C 
ATOM     11  C   UNL     1       1.144  -1.516  -0.084  0.00  0.00    +0.012 C 
ATOM     12  C   UNL     1       0.314  -0.959   1.075  0.00  0.00    +0.078 C 
ATOM     13  C   UNL     1       0.101   0.543   0.872  0.00  0.00    +0.026 C 
BRANCH  11  14
ATOM     14  C   UNL     1       1.357  -3.018   0.119  0.00  0.00    -0.012 C 
ATOM     15  C   UNL     1       2.187  -3.576  -1.039  0.00  0.00    +0.007 C 
ATOM     16  C   UNL     1       2.097  -3.255   1.437  0.00  0.00    +0.007 C 
ENDBRANCH  11  14
ENDBRANCH   1  12
BRANCH   4  17
ATOM     17  N   UNL     1      -3.395  -2.901   1.145  0.00  0.00    -0.228 N 
ATOM     18  C   UNL     1      -4.590  -3.524   1.182  0.00  0.00    +0.277 C 
ATOM     19  O   UNL     1      -5.162  -3.680   2.245  0.00  0.00    -0.267 OA
ATOM     20  H   UNL     1      -2.901  -2.849   0.312  0.00  0.00    +0.173 HD
BRANCH  18  21
ATOM     21  C   UNL     1      -5.200  -4.013  -0.058  0.00  0.00    +0.107 A 
ATOM     22  C   UNL     1      -4.633  -3.980  -1.314  0.00  0.00    +0.047 A 
ATOM     23  C   UNL     1      -5.557  -4.547  -2.198  0.00  0.00    +0.036 A 
ATOM     24  C   UNL     1      -6.649  -4.908  -1.482  0.00  0.00    +0.101 A 
ATOM     25  N   UNL     1      -6.442  -4.594  -0.179  0.00  0.00    -0.345 N 
ATOM     26  C   UNL     1      -7.386  -4.830   0.917  0.00  0.00    +0.149 C 
ATOM     27 BR   UNL     1      -5.324  -4.769  -4.061  0.00  0.00    -0.049 Br
ENDBRANCH  18  21
ENDBRANCH   4  17
TORSDOF 4
