REMARK  Name = ZINC13501101
REMARK  9 active torsions:
REMARK  status: ('A' for Active; 'I' for Inactive)
REMARK    1  A    between atoms: C_1  and  C_2
REMARK    2  A    between atoms: C_2  and  C_3
REMARK    3  A    between atoms: C_3  and  C_5
REMARK    4  A    between atoms: C_3  and  N_66
REMARK    5  A    between atoms: N_9  and  C_10
REMARK    6  A    between atoms: C_15  and  C_16
REMARK    7  A    between atoms: C_15  and  N_66
REMARK    8  A    between atoms: C_22  and  C_28
REMARK    9  A    between atoms: C_29  and  N_66
REMARK                            x       y       z     vdW  Elec       q    Type
REMARK                         _______ _______ _______ _____ _____    ______ ____
ROOT
ATOM      1  N   UNL     1       1.442  -3.286   5.394  0.00  0.00    +0.391 N 
ATOM      2  H   UNL     1       1.780  -2.331   5.228  0.00  0.00    -0.080 HD
ENDROOT
BRANCH   1   3
ATOM      3  C   UNL     1       1.991  -4.178   4.351  0.00  0.00    -0.067 C 
ATOM      4  C   UNL     1       1.508  -5.630   4.552  0.00  0.00    -0.015 C 
ATOM      5  C   UNL     1       2.732  -6.494   4.159  0.00  0.00    -0.002 C 
ATOM      6  C   UNL     1       3.923  -5.675   4.714  0.00  0.00    -0.002 C 
ATOM      7  C   UNL     1       3.526  -4.207   4.454  0.00  0.00    -0.015 C 
ENDBRANCH   1   3
BRANCH   1   8
ATOM      8  C   UNL     1       1.895  -3.731   6.729  0.00  0.00    +0.003 C 
BRANCH   8   9
ATOM      9  C   UNL     1       0.995  -4.820   7.254  0.00  0.00    +0.138 A 
ATOM     10  N   UNL     1      -0.316  -4.827   7.241  0.00  0.00    -0.115 NA
ATOM     11  N   UNL     1      -0.713  -5.928   7.778  0.00  0.00    -0.023 NA
ATOM     12  N   UNL     1       0.310  -6.624   8.134  0.00  0.00    -0.044 NA
ATOM     13  N   UNL     1       1.382  -5.977   7.823  0.00  0.00    -0.228 N 
BRANCH  13  14
ATOM     14  C   UNL     1       2.760  -6.417   8.050  0.00  0.00    +0.111 C 
ATOM     15  C   UNL     1       3.007  -7.767   7.345  0.00  0.00    +0.027 C 
ATOM     16  C   UNL     1       3.934  -8.539   8.318  0.00  0.00    +0.002 C 
ATOM     17  C   UNL     1       3.380  -8.140   9.708  0.00  0.00    +0.002 C 
ATOM     18  C   UNL     1       2.998  -6.654   9.552  0.00  0.00    +0.027 C 
ENDBRANCH  13  14
ENDBRANCH   8   9
BRANCH   8  20
ATOM     19  C   UNL     1       2.875  -1.487   7.226  0.00  0.00    +0.002 C 
ATOM     20  C   UNL     1       1.856  -2.534   7.681  0.00  0.00    -0.011 C 
ENDBRANCH   8  20
ENDBRANCH   1   8
BRANCH   1  21
ATOM     21  C   UNL     1      -0.035  -3.289   5.335  0.00  0.00    -0.036 C 
BRANCH  21  22
ATOM     22  C   UNL     1      -0.473  -2.460   4.155  0.00  0.00    +0.001 A 
ATOM     23  C   UNL     1      -0.805  -3.067   2.989  0.00  0.00    +0.017 A 
ATOM     24  C   UNL     1      -1.227  -2.233   1.862  0.00  0.00    -0.001 A 
ATOM     25  C   UNL     1      -1.581  -2.802   0.634  0.00  0.00    +0.010 A 
ATOM     26  C   UNL     1      -1.969  -1.996  -0.399  0.00  0.00    +0.001 A 
ATOM     27  C   UNL     1      -2.023  -0.619  -0.238  0.00  0.00    +0.005 A 
ATOM     28  C   UNL     1      -1.673  -0.036   0.961  0.00  0.00    -0.026 A 
ATOM     29  C   UNL     1      -1.273  -0.836   2.026  0.00  0.00    +0.052 A 
ATOM     30  N   UNL     1      -0.923  -0.281   3.239  0.00  0.00    -0.322 N 
ATOM     31  H   UNL     1      -0.956   0.682   3.350  0.00  0.00    +0.169 HD
ATOM     32  C   UNL     1      -0.537  -1.055   4.268  0.00  0.00    +0.251 A 
ATOM     33  O   UNL     1      -0.235  -0.530   5.326  0.00  0.00    -0.268 OA
ATOM     34  C   UNL     1      -1.728   1.462   1.119  0.00  0.00    +0.046 C 
ENDBRANCH  21  22
ENDBRANCH   1  21
TORSDOF 7
