REMARK  Name = ZINC08964749
REMARK  6 active torsions:
REMARK  status: ('A' for Active; 'I' for Inactive)
REMARK    1  A    between atoms: C_1  and  C_2
REMARK    2  A    between atoms: C_2  and  C_4
REMARK    3  A    between atoms: C_6  and  C_31
REMARK    4  A    between atoms: C_24  and  O_29
REMARK    5  A    between atoms: O_29  and  C_30
REMARK    6  A    between atoms: C_31  and  C_33
REMARK                            x       y       z     vdW  Elec       q    Type
REMARK                         _______ _______ _______ _____ _____    ______ ____
ROOT
ATOM      1  C   UNL     1       4.912   0.054   0.424  0.00  0.00    +0.152 C 
ATOM      2  C   UNL     1       5.798  -1.195   0.695  0.00  0.00    +0.109 C 
ATOM      3  C   UNL     1       4.793  -2.332   0.974  0.00  0.00    +0.108 C 
ATOM      4  C   UNL     1       5.055  -2.984   2.288  0.00  0.00    -0.008 A 
ATOM      5  C   UNL     1       5.066  -2.491   3.575  0.00  0.00    +0.006 A 
ATOM      6  C   UNL     1       5.355  -3.392   4.595  0.00  0.00    +0.000 A 
ATOM      7  C   UNL     1       5.619  -4.720   4.327  0.00  0.00    +0.002 A 
ATOM      8  C   UNL     1       5.610  -5.224   3.036  0.00  0.00    +0.023 A 
ATOM      9  C   UNL     1       5.322  -4.330   2.003  0.00  0.00    +0.038 A 
ATOM     10  N   UNL     1       5.247  -4.558   0.640  0.00  0.00    -0.284 N 
ATOM     11  C   UNL     1       4.940  -3.434  -0.045  0.00  0.00    +0.231 C 
ATOM     12  O   UNL     1       4.809  -3.332  -1.246  0.00  0.00    -0.274 OA
ATOM     13  C   UNL     1       3.425  -1.673   0.904  0.00  0.00    +0.117 C 
ATOM     14  N   UNL     1       3.635  -0.521  -0.017  0.00  0.00    -0.311 N 
ATOM     15  C   UNL     1       2.513   0.277  -0.010  0.00  0.00    +0.038 A 
ATOM     16  C   UNL     1       2.555   1.656   0.048  0.00  0.00    +0.027 A 
ATOM     17  C   UNL     1       1.379   2.383   0.069  0.00  0.00    +0.047 A 
ATOM     18  C   UNL     1       0.151   1.736   0.031  0.00  0.00    +0.121 A 
ATOM     19  C   UNL     1       0.091   0.353  -0.032  0.00  0.00    +0.055 A 
ATOM     20  C   UNL     1       1.267  -0.386  -0.055  0.00  0.00    -0.001 A 
ATOM     21  C   UNL     1       1.253  -1.866  -0.134  0.00  0.00    +0.007 C 
ATOM     22  C   UNL     1       2.326  -2.523   0.345  0.00  0.00    -0.003 C 
ATOM     23  H   UNL     1       5.396  -5.423   0.225  0.00  0.00    +0.155 HD
ENDROOT
BRANCH   1  25
ATOM     24  C   UNL     1       6.655   1.838  -0.346  0.00  0.00    +0.088 C 
ATOM     25  C   UNL     1       5.513   0.906  -0.663  0.00  0.00    +0.151 C 
ATOM     26  O   UNL     1       5.081   0.843  -1.789  0.00  0.00    -0.296 OA
ENDBRANCH   1  25
BRANCH  18  27
ATOM     27  O   UNL     1      -0.998   2.463   0.050  0.00  0.00    -0.495 OA
ATOM     28  C   UNL     1      -0.865   3.885   0.115  0.00  0.00    +0.277 C 
ENDBRANCH  18  27
BRANCH   2  29
ATOM     29  C   UNL     1       6.635  -1.518  -0.517  0.00  0.00    +0.170 C 
ATOM     30  O   UNL     1       6.193  -1.321  -1.629  0.00  0.00    -0.292 OA
BRANCH  29  31
ATOM     31  C   UNL     1       7.987  -2.074  -0.350  0.00  0.00    +0.018 A 
ATOM     32  C   UNL     1       8.502  -2.297   0.931  0.00  0.00    +0.013 A 
ATOM     33  C   UNL     1       9.768  -2.821   1.079  0.00  0.00    +0.020 A 
ATOM     34  C   UNL     1      10.533  -3.118  -0.037  0.00  0.00    +0.041 A 
ATOM     35  C   UNL     1      10.032  -2.894  -1.309  0.00  0.00    +0.020 A 
ATOM     36  C   UNL     1       8.766  -2.375  -1.472  0.00  0.00    +0.013 A 
ATOM     37 CL   UNL     1      12.129  -3.772   0.160  0.00  0.00    -0.084 Cl
ENDBRANCH  29  31
ENDBRANCH   2  29
TORSDOF 4
