REMARK  Name = ZINC33024416
REMARK  12 active torsions:
REMARK  status: ('A' for Active; 'I' for Inactive)
REMARK    1  A    between atoms: C_1  and  C_2
REMARK    2  A    between atoms: C_2  and  C_3
REMARK    3  A    between atoms: N_9  and  C_10
REMARK    4  A    between atoms: C_10  and  C_11
REMARK    5  A    between atoms: C_11  and  C_12
REMARK    6  A    between atoms: C_12  and  N_13
REMARK    7  A    between atoms: C_14  and  C_16
REMARK    8  A    between atoms: C_16  and  C_17
REMARK    9  A    between atoms: C_23  and  C_25
REMARK   10  A    between atoms: C_26  and  C_33
REMARK   11  A    between atoms: C_27  and  C_32
REMARK   12  A    between atoms: C_28  and  C_31
REMARK                            x       y       z     vdW  Elec       q    Type
REMARK                         _______ _______ _______ _____ _____    ______ ____
ROOT
ATOM      1  C   UNL     1      -4.819   6.186  -4.933  0.00  0.00    +0.099 C 
ENDROOT
BRANCH   1   2
ATOM      2  C   UNL     1      -5.619   6.359  -6.225  0.00  0.00    +0.001 C 
ATOM      3  C   UNL     1      -4.735   6.005  -7.423  0.00  0.00    +0.023 C 
ATOM      4  C   UNL     1      -5.549   6.145  -8.713  0.00  0.00    +0.108 C 
ATOM      5  N   UNL     1      -6.124   7.497  -8.765  0.00  0.00    -0.296 N 
ATOM      6  C   UNL     1      -6.917   7.971  -7.623  0.00  0.00    +0.108 C 
ATOM      7  C   UNL     1      -6.087   7.811  -6.346  0.00  0.00    +0.023 C 
ATOM      8  C   UNL     1      -5.926   8.286  -9.840  0.00  0.00    +0.263 C 
ATOM      9  O   UNL     1      -6.339   9.431  -9.838  0.00  0.00    -0.268 OA
BRANCH   8  10
ATOM     10  C   UNL     1      -5.215   7.765 -11.012  0.00  0.00    +0.105 A 
ATOM     11  C   UNL     1      -5.701   6.849 -11.920  0.00  0.00    -0.018 A 
ATOM     12  C   UNL     1      -4.697   6.641 -12.871  0.00  0.00    -0.027 A 
ATOM     13  C   UNL     1      -3.635   7.409 -12.530  0.00  0.00    +0.017 A 
ATOM     14  N   UNL     1      -3.937   8.097 -11.401  0.00  0.00    -0.354 N 
ATOM     15  H   UNL     1      -3.351   8.817 -10.811  0.00  0.00    +0.166 HD
ATOM     16  C   UNL     1      -2.331   7.485 -13.281  0.00  0.00    +0.063 C 
ATOM     17  C   UNL     1      -4.780   5.720 -14.062  0.00  0.00    +0.046 C 
ATOM     18  C   UNL     1      -7.060   6.198 -11.895  0.00  0.00    +0.046 C 
ENDBRANCH   8  10
ENDBRANCH   1   2
BRANCH   1  20
ATOM     19  N   UNL     1      -3.753   4.342  -3.675  0.00  0.00    -0.315 N 
ATOM     20  C   UNL     1      -4.463   4.733  -4.752  0.00  0.00    +0.213 C 
ATOM     21  O   UNL     1      -4.814   3.916  -5.576  0.00  0.00    -0.276 OA
ATOM     22  H   UNL     1      -3.434   5.084  -2.928  0.00  0.00    +0.149 HD
BRANCH  19  23
ATOM     23  C   UNL     1      -3.407   2.930  -3.500  0.00  0.00    +0.102 C 
BRANCH  23  24
ATOM     24  C   UNL     1      -2.607   2.757  -2.207  0.00  0.00    +0.000 C 
BRANCH  24  25
ATOM     25  C   UNL     1      -2.245   1.282  -2.024  0.00  0.00    -0.077 C 
BRANCH  25  31
ATOM     26  C   UNL     1      -2.369   1.643   0.367  0.00  0.00    -0.069 C 
ATOM     27  C   UNL     1      -1.699   1.309   1.702  0.00  0.00    -0.015 C 
ATOM     28  C   UNL     1      -0.292   1.915   1.728  0.00  0.00    -0.003 C 
ATOM     29  C   UNL     1       0.510   1.372   0.542  0.00  0.00    -0.019 C 
ATOM     30  C   UNL     1      -0.224   1.704  -0.759  0.00  0.00    -0.078 C 
ATOM     31  N   UNL     1      -1.563   1.102  -0.735  0.00  0.00    +0.382 N 
ATOM     32  H   UNL     1      -1.442   0.022  -0.563  0.00  0.00    -0.081 HD
BRANCH  26  34
ATOM     33  C   UNL     1      -4.641   1.669   1.405  0.00  0.00    +0.002 C 
ATOM     34  C   UNL     1      -3.767   1.022   0.329  0.00  0.00    -0.019 C 
ENDBRANCH  26  34
ENDBRANCH  25  31
ENDBRANCH  24  25
ENDBRANCH  23  24
ENDBRANCH  19  23
ENDBRANCH   1  20
TORSDOF 8
