REMARK  Name = ZINC09610633
REMARK  8 active torsions:
REMARK  status: ('A' for Active; 'I' for Inactive)
REMARK    1  A    between atoms: C_4  and  C_7
REMARK    2  A    between atoms: C_7  and  C_9
REMARK    3  A    between atoms: C_7  and  N_25
REMARK    4  A    between atoms: N_11  and  C_12
REMARK    5  A    between atoms: C_12  and  C_13
REMARK    6  A    between atoms: C_12  and  C_19
REMARK    7  A    between atoms: N_25  and  S_26
REMARK    8  A    between atoms: S_26  and  C_29
REMARK                            x       y       z     vdW  Elec       q    Type
REMARK                         _______ _______ _______ _____ _____    ______ ____
ROOT
ATOM      1  C   UNL     1       3.711  -0.707  -0.038  0.00  0.00    +0.192 C 
ENDROOT
BRANCH   1   5
ATOM      2  C   UNL     1      -0.017   1.378   0.010  0.00  0.00    +0.000 A 
ATOM      3  C   UNL     1       1.171   2.086   0.002  0.00  0.00    +0.000 A 
ATOM      4  C   UNL     1       2.377   1.411  -0.013  0.00  0.00    +0.006 A 
ATOM      5  C   UNL     1       2.396   0.029  -0.020  0.00  0.00    -0.020 A 
ATOM      6  C   UNL     1       1.208  -0.679  -0.012  0.00  0.00    +0.006 A 
ATOM      7  C   UNL     1       0.002  -0.004   0.002  0.00  0.00    +0.000 A 
ENDBRANCH   1   5
BRANCH   1   8
ATOM      8  C   UNL     1       4.044  -1.175   1.356  0.00  0.00    +0.237 C 
ATOM      9  O   UNL     1       4.184  -2.358   1.581  0.00  0.00    -0.274 OA
ATOM     10  N   UNL     1       4.186  -0.278   2.352  0.00  0.00    -0.303 N 
ATOM     11  H   UNL     1       4.074   0.669   2.172  0.00  0.00    +0.150 HD
BRANCH  10  12
ATOM     12  C   UNL     1       4.509  -0.732   3.706  0.00  0.00    +0.134 C 
BRANCH  12  13
ATOM     13  C   UNL     1       6.001  -0.898   3.838  0.00  0.00    -0.023 A 
ATOM     14  C   UNL     1       6.853   0.027   3.263  0.00  0.00    +0.006 A 
ATOM     15  C   UNL     1       8.221  -0.125   3.383  0.00  0.00    +0.000 A 
ATOM     16  C   UNL     1       8.738  -1.202   4.080  0.00  0.00    +0.000 A 
ATOM     17  C   UNL     1       7.887  -2.126   4.655  0.00  0.00    +0.000 A 
ATOM     18  C   UNL     1       6.518  -1.972   4.538  0.00  0.00    +0.006 A 
ENDBRANCH  12  13
BRANCH  12  19
ATOM     19  C   UNL     1       4.027   0.287   4.707  0.00  0.00    -0.023 A 
ATOM     20  C   UNL     1       4.160   1.636   4.438  0.00  0.00    +0.006 A 
ATOM     21  C   UNL     1       3.718   2.571   5.355  0.00  0.00    +0.000 A 
ATOM     22  C   UNL     1       3.141   2.156   6.541  0.00  0.00    +0.000 A 
ATOM     23  C   UNL     1       3.007   0.806   6.810  0.00  0.00    +0.000 A 
ATOM     24  C   UNL     1       3.446  -0.128   5.890  0.00  0.00    +0.006 A 
ENDBRANCH  12  19
ENDBRANCH  10  12
ENDBRANCH   1   8
BRANCH   1  25
ATOM     25  N   UNL     1       3.611  -1.865  -0.930  0.00  0.00    -0.174 NA
ATOM     26  H   UNL     1       3.253  -2.703  -0.599  0.00  0.00    +0.149 HD
BRANCH  25  27
ATOM     27  S   UNL     1       4.111  -1.742  -2.504  0.00  0.00    +0.059 S 
ATOM     28  O   UNL     1       3.914  -3.019  -3.094  0.00  0.00    -0.153 OA
ATOM     29  O   UNL     1       3.517  -0.562  -3.028  0.00  0.00    -0.153 OA
BRANCH  27  30
ATOM     30  C   UNL     1       5.850  -1.461  -2.479  0.00  0.00    +0.106 A 
ATOM     31  C   UNL     1       6.340  -0.168  -2.431  0.00  0.00    +0.030 A 
ATOM     32  C   UNL     1       7.702   0.056  -2.411  0.00  0.00    +0.025 A 
ATOM     33  C   UNL     1       8.581  -1.020  -2.438  0.00  0.00    +0.037 A 
ATOM     34  C   UNL     1       8.086  -2.316  -2.486  0.00  0.00    -0.024 A 
ATOM     35  C   UNL     1       6.722  -2.534  -2.501  0.00  0.00    +0.034 A 
ATOM     36  C   UNL     1       9.039  -3.482  -2.514  0.00  0.00    +0.046 C 
ATOM     37  C   UNL     1      10.297  -3.095  -3.294  0.00  0.00    +0.101 C 
ATOM     38  C   UNL     1      10.812  -1.767  -2.809  0.00  0.00    +0.218 C 
ATOM     39  O   UNL     1      12.007  -1.565  -2.771  0.00  0.00    -0.275 OA
ATOM     40  N   UNL     1       9.962  -0.800  -2.417  0.00  0.00    -0.285 N 
ATOM     41  H   UNL     1      10.309   0.055  -2.119  0.00  0.00    +0.155 HD
ENDBRANCH  27  30
ENDBRANCH  25  27
ENDBRANCH   1  25
TORSDOF 8
