REMARK  Name = ZINC33422074
REMARK  9 active torsions:
REMARK  status: ('A' for Active; 'I' for Inactive)
REMARK    1  A    between atoms: C_1  and  C_2
REMARK    2  A    between atoms: C_2  and  O_3
REMARK    3  A    between atoms: O_3  and  C_4
REMARK    4  A    between atoms: C_8  and  C_10
REMARK    5  A    between atoms: C_10  and  C_11
REMARK    6  A    between atoms: C_12  and  C_25
REMARK    7  A    between atoms: N_14  and  C_19
REMARK    8  A    between atoms: C_19  and  C_20
REMARK    9  A    between atoms: C_28  and  N_31
REMARK                            x       y       z     vdW  Elec       q    Type
REMARK                         _______ _______ _______ _____ _____    ______ ____
ROOT
ATOM      1  C   UNL     1      -1.278   5.993  -0.061  0.00  0.00    +0.076 C 
ATOM      2  C   UNL     1      -1.479   7.486  -0.173  0.00  0.00    +0.145 C 
ATOM      3  N   UNL     1      -2.926   7.712  -0.241  0.00  0.00    -0.276 N 
ATOM      4  C   UNL     1      -3.556   6.527  -0.180  0.00  0.00    +0.288 C 
ATOM      5  O   UNL     1      -4.761   6.378  -0.212  0.00  0.00    -0.266 OA
ATOM      6  C   UNL     1      -2.563   5.424  -0.072  0.00  0.00    +0.249 C 
ATOM      7  O   UNL     1      -2.819   4.236  -0.004  0.00  0.00    -0.282 OA
ENDROOT
BRANCH   2   8
ATOM      8  C   UNL     1      -0.816   8.003  -1.424  0.00  0.00    -0.022 A 
ATOM      9  C   UNL     1      -1.431   7.837  -2.651  0.00  0.00    +0.008 A 
ATOM     10  C   UNL     1      -0.825   8.315  -3.798  0.00  0.00    +0.033 A 
ATOM     11  C   UNL     1       0.400   8.951  -3.719  0.00  0.00    +0.126 A 
ATOM     12  C   UNL     1       1.016   9.113  -2.493  0.00  0.00    +0.033 A 
ATOM     13  C   UNL     1       0.408   8.639  -1.345  0.00  0.00    +0.008 A 
BRANCH  11  14
ATOM     14  N   UNL     1       1.050   9.460  -4.948  0.00  0.00    +0.056 N 
ATOM     15  O   UNL     1       2.129  10.020  -4.878  0.00  0.00    -0.126 OA
ATOM     16  O   UNL     1       0.507   9.317  -6.028  0.00  0.00    -0.126 OA
ENDBRANCH  11  14
ENDBRANCH   2   8
BRANCH   1  17
ATOM     17  C   UNL     1      -0.076   5.322   0.029  0.00  0.00    +0.195 C 
ATOM     18  O   UNL     1       1.085   6.001  -0.087  0.00  0.00    -0.287 OA
BRANCH  17  23
ATOM     19  C   UNL     1       0.688   1.668  -0.383  0.00  0.00    +0.121 A 
ATOM     20  C   UNL     1      -0.033   1.125   0.672  0.00  0.00    +0.045 A 
ATOM     21  C   UNL     1      -0.768   1.944   1.510  0.00  0.00    +0.004 A 
ATOM     22  C   UNL     1      -0.781   3.308   1.310  0.00  0.00    +0.012 A 
ATOM     23  C   UNL     1      -0.059   3.866   0.250  0.00  0.00    +0.026 A 
ATOM     24  C   UNL     1       0.678   3.035  -0.598  0.00  0.00    +0.057 A 
BRANCH  19  25
ATOM     25  O   UNL     1       1.403   0.857  -1.206  0.00  0.00    -0.492 OA
BRANCH  25  27
ATOM     26  C   UNL     1       2.226  -1.291  -1.950  0.00  0.00    +0.048 C 
ATOM     27  C   UNL     1       1.369  -0.544  -0.926  0.00  0.00    +0.225 C 
ENDBRANCH  25  27
ENDBRANCH  19  25
ENDBRANCH  17  23
ENDBRANCH   1  17
BRANCH   3  28
ATOM     28  C   UNL     1      -3.579   9.018  -0.356  0.00  0.00    +0.183 C 
BRANCH  28  29
ATOM     29  C   UNL     1      -3.752   9.367  -1.812  0.00  0.00    +0.122 A 
ATOM     30  C   UNL     1      -4.818   9.061  -2.572  0.00  0.00    +0.046 A 
ATOM     31  C   UNL     1      -4.561   9.576  -3.864  0.00  0.00    +0.041 A 
ATOM     32  C   UNL     1      -3.353  10.166  -3.815  0.00  0.00    +0.195 A 
ATOM     33  O   UNL     1      -2.870  10.041  -2.568  0.00  0.00    -0.466 OA
ENDBRANCH  28  29
ENDBRANCH   3  28
TORSDOF 8
