REMARK  Name = ZINC13499151
REMARK  15 active torsions:
REMARK  status: ('A' for Active; 'I' for Inactive)
REMARK    1  A    between atoms: C_1  and  C_2
REMARK    2  A    between atoms: C_7  and  C_15
REMARK    3  A    between atoms: C_13  and  C_14
REMARK    4  A    between atoms: C_15  and  N_69
REMARK    5  A    between atoms: C_16  and  C_17
REMARK    6  A    between atoms: C_16  and  N_69
REMARK    7  A    between atoms: C_17  and  C_18
REMARK    8  A    between atoms: C_18  and  O_19
REMARK    9  A    between atoms: C_20  and  C_22
REMARK   10  A    between atoms: C_20  and  C_34
REMARK   11  A    between atoms: C_20  and  N_69
REMARK   12  A    between atoms: N_26  and  C_27
REMARK   13  A    between atoms: C_27  and  C_28
REMARK   14  A    between atoms: C_34  and  C_35
REMARK   15  A    between atoms: C_34  and  C_36
REMARK                            x       y       z     vdW  Elec       q    Type
REMARK                         _______ _______ _______ _____ _____    ______ ____
ROOT
ATOM      1  N   UNL     1      -3.572   1.846  -1.374  0.00  0.00    +0.389 N 
ATOM      2  H   UNL     1      -4.354   1.196  -1.516  0.00  0.00    -0.080 HD
ENDROOT
BRANCH   1   3
ATOM      3  C   UNL     1      -3.692   2.455  -0.033  0.00  0.00    -0.037 C 
BRANCH   3  10
ATOM      4  C   UNL     1      -4.820  -3.193   5.486  0.00  0.00    +0.044 C 
ATOM      5  C   UNL     1      -4.388  -2.116   4.525  0.00  0.00    -0.046 A 
ATOM      6  C   UNL     1      -3.084  -1.642   4.564  0.00  0.00    +0.004 A 
ATOM      7  C   UNL     1      -2.672  -0.666   3.702  0.00  0.00    +0.010 A 
ATOM      8  C   UNL     1      -3.573  -0.139   2.771  0.00  0.00    -0.001 A 
ATOM      9  C   UNL     1      -3.165   0.908   1.832  0.00  0.00    +0.017 A 
ATOM     10  C   UNL     1      -4.081   1.382   0.952  0.00  0.00    +0.001 A 
ATOM     11  C   UNL     1      -5.396   0.869   0.950  0.00  0.00    +0.251 A 
ATOM     12  O   UNL     1      -6.204   1.309   0.150  0.00  0.00    -0.268 OA
ATOM     13  N   UNL     1      -5.780  -0.092   1.808  0.00  0.00    -0.322 N 
ATOM     14  H   UNL     1      -6.692  -0.422   1.780  0.00  0.00    +0.169 HD
ATOM     15  C   UNL     1      -4.896  -0.616   2.728  0.00  0.00    +0.052 A 
ATOM     16  C   UNL     1      -5.293  -1.610   3.616  0.00  0.00    -0.024 A 
ATOM     17  C   UNL     1      -6.706  -2.133   3.584  0.00  0.00    +0.046 C 
ENDBRANCH   3  10
ENDBRANCH   1   3
BRANCH   1  18
ATOM     18  C   UNL     1      -2.301   1.099  -1.478  0.00  0.00    -0.075 C 
BRANCH  18  19
ATOM     19  C   UNL     1      -2.544  -0.341  -1.019  0.00  0.00    +0.009 C 
BRANCH  19  20
ATOM     20  C   UNL     1      -1.222  -1.110  -1.031  0.00  0.00    +0.154 C 
BRANCH  20  21
ATOM     21  O   UNL     1      -1.448  -2.454  -0.603  0.00  0.00    -0.395 OA
ATOM     22  H   UNL     1      -0.651  -3.001  -0.586  0.00  0.00    +0.209 HD
ENDBRANCH  20  21
ENDBRANCH  19  20
ENDBRANCH  18  19
ENDBRANCH   1  18
BRANCH   1  23
ATOM     23  C   UNL     1      -3.627   2.897  -2.412  0.00  0.00    +0.006 C 
BRANCH  23  24
ATOM     24  C   UNL     1      -4.005   2.260  -3.724  0.00  0.00    +0.139 A 
ATOM     25  N   UNL     1      -3.191   1.700  -4.585  0.00  0.00    -0.115 NA
ATOM     26  N   UNL     1      -3.893   1.271  -5.577  0.00  0.00    -0.023 NA
ATOM     27  N   UNL     1      -5.134   1.550  -5.374  0.00  0.00    -0.044 NA
ATOM     28  N   UNL     1      -5.243   2.160  -4.242  0.00  0.00    -0.226 N 
BRANCH  28  29
ATOM     29  C   UNL     1      -6.482   2.652  -3.635  0.00  0.00    +0.182 C 
BRANCH  29  30
ATOM     30  C   UNL     1      -6.848   3.980  -4.246  0.00  0.00    -0.026 A 
ATOM     31  C   UNL     1      -6.446   5.155  -3.637  0.00  0.00    +0.005 A 
ATOM     32  C   UNL     1      -6.778   6.373  -4.200  0.00  0.00    +0.000 A 
ATOM     33  C   UNL     1      -7.519   6.417  -5.365  0.00  0.00    +0.000 A 
ATOM     34  C   UNL     1      -7.926   5.243  -5.971  0.00  0.00    +0.000 A 
ATOM     35  C   UNL     1      -7.590   4.024  -5.411  0.00  0.00    +0.005 A 
ENDBRANCH  29  30
ENDBRANCH  28  29
ENDBRANCH  23  24
BRANCH  23  36
ATOM     36  C   UNL     1      -2.266   3.582  -2.551  0.00  0.00    -0.024 C 
ATOM     37  C   UNL     1      -2.348   4.665  -3.629  0.00  0.00    +0.006 C 
ATOM     38  C   UNL     1      -1.877   4.220  -1.216  0.00  0.00    +0.006 C 
ENDBRANCH  23  36
ENDBRANCH   1  23
TORSDOF 11
