REMARK  Name = ZINC60510911
REMARK  5 active torsions:
REMARK  status: ('A' for Active; 'I' for Inactive)
REMARK    1  A    between atoms: C_1  and  C_2
REMARK    2  A    between atoms: C_2  and  N_3
REMARK    3  A    between atoms: C_7  and  N_9
REMARK    4  A    between atoms: N_9  and  S_10
REMARK    5  A    between atoms: S_10  and  C_13
REMARK                            x       y       z     vdW  Elec       q    Type
REMARK                         _______ _______ _______ _____ _____    ______ ____
ROOT
ATOM      1  S   UNL     1      -3.991  -4.741  -1.118  0.00  0.00    +0.060 S 
ATOM      2  O   UNL     1      -3.867  -6.153  -1.008  0.00  0.00    -0.153 OA
ATOM      3  O   UNL     1      -5.135  -4.038  -0.654  0.00  0.00    -0.153 OA
ENDROOT
BRANCH   1   4
ATOM      4  C   UNL     1      -3.819  -4.352  -2.828  0.00  0.00    +0.127 A 
ATOM      5  C   UNL     1      -4.747  -3.531  -3.444  0.00  0.00    +0.077 A 
ATOM      6  C   UNL     1      -4.612  -3.225  -4.786  0.00  0.00    +0.144 A 
ATOM      7  C   UNL     1      -3.543  -3.746  -5.514  0.00  0.00    +0.077 A 
ATOM      8  C   UNL     1      -2.617  -4.567  -4.893  0.00  0.00    +0.049 A 
ATOM      9  C   UNL     1      -2.755  -4.864  -3.547  0.00  0.00    +0.069 A 
ATOM     10 CL   UNL     1      -1.592  -5.888  -2.764  0.00  0.00    -0.081 Cl
ATOM     11  N   UNL     1      -3.420  -3.429  -6.874  0.00  0.00    -0.280 N 
ATOM     12  C   UNL     1      -4.134  -2.396  -7.373  0.00  0.00    +0.255 C 
ATOM     13  O   UNL     1      -4.067  -2.123  -8.552  0.00  0.00    -0.272 OA
ATOM     14  C   UNL     1      -5.015  -1.585  -6.457  0.00  0.00    +0.325 C 
ATOM     15  O   UNL     1      -5.514  -2.418  -5.407  0.00  0.00    -0.481 OA
ATOM     16  H   UNL     1      -2.831  -3.943  -7.449  0.00  0.00    +0.155 HD
ENDBRANCH   1   4
BRANCH   1  17
ATOM     17  N   UNL     1      -2.685  -4.090  -0.334  0.00  0.00    -0.189 NA
ATOM     18  H   UNL     1      -2.042  -4.671   0.101  0.00  0.00    +0.148 HD
BRANCH  17  23
ATOM     19  N   UNL     1      -0.824  -0.852  -0.329  0.00  0.00    +0.381 N 
ATOM     20  C   UNL     1      -1.313  -0.321   0.949  0.00  0.00    -0.079 C 
ATOM     21  C   UNL     1      -2.817  -0.574   1.069  0.00  0.00    -0.017 C 
ATOM     22  C   UNL     1      -3.083  -2.081   1.006  0.00  0.00    +0.017 C 
ATOM     23  C   UNL     1      -2.502  -2.637  -0.298  0.00  0.00    +0.060 C 
ATOM     24  C   UNL     1      -1.010  -2.308  -0.367  0.00  0.00    -0.058 C 
ATOM     25  H   UNL     1      -1.339  -0.428  -1.086  0.00  0.00    -0.082 HD
BRANCH  19  27
ATOM     26  C   UNL     1       0.787   0.978  -0.559  0.00  0.00    -0.017 C 
ATOM     27  C   UNL     1       0.604  -0.538  -0.473  0.00  0.00    -0.082 C 
ENDBRANCH  19  27
ENDBRANCH  17  23
ENDBRANCH   1  17
TORSDOF 4
