REMARK  Name = ZINC22258299
REMARK  8 active torsions:
REMARK  status: ('A' for Active; 'I' for Inactive)
REMARK    1  A    between atoms: C_1  and  C_2
REMARK    2  A    between atoms: C_7  and  C_9
REMARK    3  A    between atoms: C_7  and  C_10
REMARK    4  A    between atoms: N_13  and  C_17
REMARK    5  A    between atoms: C_17  and  C_18
REMARK    6  A    between atoms: N_20  and  N_21
REMARK    7  A    between atoms: C_22  and  C_24
REMARK    8  A    between atoms: C_29  and  O_30
REMARK                            x       y       z     vdW  Elec       q    Type
REMARK                         _______ _______ _______ _____ _____    ______ ____
ROOT
ATOM      1  C   UNL     1      -4.079  -4.264  -1.458  0.00  0.00    +0.215 C 
ENDROOT
BRANCH   1  13
ATOM      2  C   UNL     1      -0.159   1.471  -0.048  0.00  0.00    +0.007 C 
ATOM      3  C   UNL     1      -0.085  -0.057  -0.027  0.00  0.00    -0.011 C 
ATOM      4  C   UNL     1      -1.501  -0.636   0.015  0.00  0.00    +0.038 C 
ATOM      5  C   UNL     1      -1.428  -2.159   0.057  0.00  0.00    +0.113 C 
ATOM      6  C   UNL     1      -0.642  -2.627   1.276  0.00  0.00    +0.041 C 
ATOM      7  C   UNL     1       0.772  -2.041   1.230  0.00  0.00    -0.032 C 
ATOM      8  C   UNL     1       0.688  -0.513   1.212  0.00  0.00    +0.009 C 
ATOM      9  C   UNL     1       1.553  -2.495   2.465  0.00  0.00    +0.011 C 
ATOM     10  C   UNL     1       1.485  -2.527  -0.033  0.00  0.00    +0.011 C 
ATOM     11  C   UNL     1      -2.817  -2.754   0.064  0.00  0.00    +0.247 C 
ATOM     12  O   UNL     1      -3.679  -2.595   0.901  0.00  0.00    -0.273 OA
ATOM     13  N   UNL     1      -2.895  -3.499  -1.058  0.00  0.00    -0.215 N 
ATOM     14  C   UNL     1      -1.756  -3.453  -1.761  0.00  0.00    +0.310 C 
ATOM     15  O   UNL     1      -1.585  -4.042  -2.810  0.00  0.00    -0.252 OA
ATOM     16  N   UNL     1      -0.823  -2.679  -1.176  0.00  0.00    -0.285 N 
ATOM     17  H   UNL     1       0.073  -2.500  -1.504  0.00  0.00    +0.151 HD
ENDBRANCH   1  13
BRANCH   1  18
ATOM     18  C   UNL     1      -4.972  -3.399  -2.310  0.00  0.00    +0.247 C 
ATOM     19  O   UNL     1      -4.651  -2.256  -2.558  0.00  0.00    -0.273 OA
ATOM     20  N   UNL     1      -6.127  -3.895  -2.795  0.00  0.00    -0.233 N 
ATOM     21  H   UNL     1      -6.383  -4.809  -2.596  0.00  0.00    +0.173 HD
BRANCH  20  22
ATOM     22  N   UNL     1      -6.957  -3.091  -3.587  0.00  0.00    -0.230 N 
ATOM     23  C   UNL     1      -8.113  -3.587  -4.072  0.00  0.00    +0.264 C 
ATOM     24  O   UNL     1      -8.434  -4.733  -3.823  0.00  0.00    -0.269 OA
ATOM     25  H   UNL     1      -6.701  -2.177  -3.785  0.00  0.00    +0.173 HD
BRANCH  23  26
ATOM     26  C   UNL     1      -8.987  -2.741  -4.906  0.00  0.00    +0.079 A 
ATOM     27  C   UNL     1      -8.619  -1.425  -5.199  0.00  0.00    +0.017 A 
ATOM     28  C   UNL     1      -9.440  -0.639  -5.978  0.00  0.00    +0.001 A 
ATOM     29  C   UNL     1     -10.630  -1.148  -6.473  0.00  0.00    +0.004 A 
ATOM     30  C   UNL     1     -11.006  -2.446  -6.190  0.00  0.00    +0.046 A 
ATOM     31  C   UNL     1     -10.189  -3.253  -5.413  0.00  0.00    +0.129 A 
BRANCH  31  32
ATOM     32  O   UNL     1     -10.554  -4.530  -5.139  0.00  0.00    -0.506 OA
ATOM     33  H   UNL     1     -11.083  -4.625  -4.336  0.00  0.00    +0.292 HD
ENDBRANCH  31  32
ENDBRANCH  23  26
ENDBRANCH  20  22
ENDBRANCH   1  18
TORSDOF 5
