REMARK  Name = ZINC36308159
REMARK  14 active torsions:
REMARK  status: ('A' for Active; 'I' for Inactive)
REMARK    1  A    between atoms: C_1  and  N_2
REMARK    2  A    between atoms: C_3  and  O_29
REMARK    3  A    between atoms: C_4  and  C_13
REMARK    4  A    between atoms: C_5  and  C_7
REMARK    5  A    between atoms: C_13  and  N_14
REMARK    6  A    between atoms: N_14  and  C_15
REMARK    7  A    between atoms: N_14  and  C_21
REMARK    8  A    between atoms: C_15  and  C_16
REMARK    9  A    between atoms: C_21  and  C_22
REMARK   10  A    between atoms: C_22  and  C_24
REMARK   11  A    between atoms: C_22  and  O_28
REMARK   12  A    between atoms: C_24  and  C_25
REMARK   13  A    between atoms: C_25  and  C_26
REMARK   14  A    between atoms: O_29  and  C_30
REMARK                            x       y       z     vdW  Elec       q    Type
REMARK                         _______ _______ _______ _____ _____    ______ ____
ROOT
ATOM      1  C   UNL     1       1.290   0.266  -0.526  0.00  0.00    +0.176 C 
ATOM      2  N   UNL     1       0.817  -1.119  -0.473  0.00  0.00    -0.235 N 
ATOM      3  C   UNL     1       0.546  -1.912  -1.542  0.00  0.00    +0.221 A 
ATOM      4  C   UNL     1       0.134  -3.116  -1.070  0.00  0.00    +0.025 A 
ATOM      5  C   UNL     1       0.153  -3.057   0.336  0.00  0.00    +0.098 A 
ATOM      6  N   UNL     1       0.569  -1.860   0.690  0.00  0.00    -0.168 NA
ENDROOT
BRANCH   5   7
ATOM      7  C   UNL     1      -0.225  -4.156   1.259  0.00  0.00    +0.002 A 
ATOM      8  C   UNL     1      -1.359  -4.924   1.005  0.00  0.00    +0.010 A 
ATOM      9  C   UNL     1      -1.706  -5.945   1.867  0.00  0.00    +0.001 A 
ATOM     10  C   UNL     1      -0.929  -6.207   2.981  0.00  0.00    +0.000 A 
ATOM     11  C   UNL     1       0.198  -5.447   3.238  0.00  0.00    +0.001 A 
ATOM     12  C   UNL     1       0.557  -4.428   2.380  0.00  0.00    +0.010 A 
ENDBRANCH   5   7
BRANCH   4  13
ATOM     13  C   UNL     1      -0.273  -4.304  -1.903  0.00  0.00    -0.035 C 
BRANCH  13  14
ATOM     14  N   UNL     1       0.925  -5.051  -2.308  0.00  0.00    +0.389 N 
ATOM     15  H   UNL     1       1.569  -4.429  -2.773  0.00  0.00    -0.081 HD
BRANCH  14  16
ATOM     16  C   UNL     1       0.542  -6.133  -3.225  0.00  0.00    -0.003 C 
BRANCH  16  17
ATOM     17  C   UNL     1      -0.016  -5.541  -4.494  0.00  0.00    +0.089 A 
ATOM     18  C   UNL     1       0.687  -5.263  -5.607  0.00  0.00    +0.042 A 
ATOM     19  C   UNL     1      -0.225  -4.725  -6.543  0.00  0.00    +0.041 A 
ATOM     20  C   UNL     1      -1.431  -4.707  -5.947  0.00  0.00    +0.195 A 
ATOM     21  O   UNL     1      -1.299  -5.208  -4.708  0.00  0.00    -0.470 OA
ENDBRANCH  16  17
ENDBRANCH  14  16
BRANCH  14  22
ATOM     22  C   UNL     1       1.570  -5.624  -1.119  0.00  0.00    -0.046 C 
BRANCH  22  23
ATOM     23  C   UNL     1       2.884  -6.296  -1.524  0.00  0.00    +0.098 C 
BRANCH  23  24
ATOM     24  O   UNL     1       3.794  -5.307  -2.009  0.00  0.00    -0.394 OA
ATOM     25  H   UNL     1       4.012  -4.622  -1.363  0.00  0.00    +0.210 HD
ENDBRANCH  23  24
BRANCH  23  26
ATOM     26  C   UNL     1       3.493  -6.999  -0.309  0.00  0.00    +0.033 C 
BRANCH  26  27
ATOM     27  C   UNL     1       4.739  -7.774  -0.741  0.00  0.00    +0.029 C 
BRANCH  27  28
ATOM     28  C   UNL     1       5.340  -8.466   0.456  0.00  0.00    -0.034 C 
ATOM     29  C   UNL     1       5.547  -9.760   0.428  0.00  0.00    +0.004 C 
ENDBRANCH  27  28
ENDBRANCH  26  27
ENDBRANCH  23  26
ENDBRANCH  22  23
ENDBRANCH  14  22
ENDBRANCH  13  14
ENDBRANCH   4  13
BRANCH   3  30
ATOM     30  O   UNL     1       0.666  -1.562  -2.848  0.00  0.00    -0.438 OA
BRANCH  30  31
ATOM     31  C   UNL     1      -0.406  -0.990  -3.456  0.00  0.00    +0.130 A 
ATOM     32  C   UNL     1      -1.535  -0.669  -2.717  0.00  0.00    +0.046 A 
ATOM     33  C   UNL     1      -2.623  -0.087  -3.337  0.00  0.00    +0.004 A 
ATOM     34  C   UNL     1      -2.588   0.176  -4.694  0.00  0.00    +0.000 A 
ATOM     35  C   UNL     1      -1.464  -0.143  -5.434  0.00  0.00    +0.004 A 
ATOM     36  C   UNL     1      -0.370  -0.720  -4.817  0.00  0.00    +0.046 A 
ENDBRANCH  30  31
ENDBRANCH   3  30
TORSDOF 13
