REMARK  Name = ZINC40317543
REMARK  16 active torsions:
REMARK  status: ('A' for Active; 'I' for Inactive)
REMARK    1  A    between atoms: C_1  and  C_2
REMARK    2  A    between atoms: C_2  and  N_3
REMARK    3  A    between atoms: N_3  and  C_4
REMARK    4  A    between atoms: N_3  and  C_6
REMARK    5  A    between atoms: C_4  and  C_5
REMARK    6  A    between atoms: C_9  and  C_12
REMARK    7  A    between atoms: C_12  and  N_13
REMARK    8  A    between atoms: N_13  and  C_14
REMARK    9  A    between atoms: N_13  and  C_28
REMARK   10  A    between atoms: C_14  and  C_15
REMARK   11  A    between atoms: C_15  and  C_17
REMARK   12  A    between atoms: C_15  and  O_27
REMARK   13  A    between atoms: C_17  and  O_18
REMARK   14  A    between atoms: O_18  and  C_19
REMARK   15  A    between atoms: C_21  and  C_26
REMARK   16  A    between atoms: C_23  and  C_25
REMARK                            x       y       z     vdW  Elec       q    Type
REMARK                         _______ _______ _______ _____ _____    ______ ____
ROOT
ATOM      1  N   UNL     1      -2.241  -0.326  -6.697  0.00  0.00    +0.387 N 
ATOM      2  H   UNL     1      -1.249  -0.142  -6.721  0.00  0.00    -0.081 HD
ENDROOT
BRANCH   1   3
ATOM      3  C   UNL     1      -2.880   0.563  -5.717  0.00  0.00    -0.045 C 
ATOM      4  C   UNL     1      -1.993   0.681  -4.467  0.00  0.00    +0.009 C 
ATOM      5  C   UNL     1      -2.788   1.342  -3.316  0.00  0.00    +0.164 C 
ATOM      6  S   UNL     1      -4.523   0.869  -3.700  0.00  0.00    -0.033 S 
ATOM      7  O   UNL     1      -5.276   2.045  -3.961  0.00  0.00    -0.174 OA
ATOM      8  O   UNL     1      -4.981  -0.050  -2.717  0.00  0.00    -0.174 OA
ATOM      9  C   UNL     1      -4.250  -0.033  -5.284  0.00  0.00    +0.151 C 
ENDBRANCH   1   3
BRANCH   1  10
ATOM     10  C   UNL     1      -2.470  -1.725  -6.312  0.00  0.00    -0.042 C 
BRANCH  10  14
ATOM     11  C   UNL     1      -0.261  -2.606  -2.761  0.00  0.00    +0.030 A 
ATOM     12  C   UNL     1      -1.617  -2.319  -2.683  0.00  0.00    +0.023 A 
ATOM     13  C   UNL     1      -2.328  -2.034  -3.833  0.00  0.00    +0.003 A 
ATOM     14  C   UNL     1      -1.691  -2.035  -5.060  0.00  0.00    -0.064 A 
ATOM     15  C   UNL     1      -0.340  -2.321  -5.141  0.00  0.00    +0.003 A 
ATOM     16  C   UNL     1       0.378  -2.601  -3.995  0.00  0.00    +0.023 A 
BRANCH  11  17
ATOM     17  N   UNL     1       0.461  -2.894  -1.601  0.00  0.00    -0.330 N 
BRANCH  17  19
ATOM     18  C   UNL     1      -0.148  -1.499   0.314  0.00  0.00    +0.024 C 
ATOM     19  C   UNL     1      -0.213  -2.899  -0.300  0.00  0.00    +0.102 C 
ENDBRANCH  17  19
BRANCH  17  20
ATOM     20  C   UNL     1       1.894  -3.191  -1.684  0.00  0.00    +0.102 C 
ATOM     21  C   UNL     1       2.092  -4.696  -1.874  0.00  0.00    +0.024 C 
ENDBRANCH  17  20
ENDBRANCH  11  17
ENDBRANCH  10  14
ENDBRANCH   1  10
BRANCH   1  22
ATOM     22  C   UNL     1      -2.817  -0.084  -8.027  0.00  0.00    -0.043 C 
BRANCH  22  23
ATOM     23  C   UNL     1      -2.437   1.321  -8.499  0.00  0.00    +0.135 C 
BRANCH  23  24
ATOM     24  O   UNL     1      -1.015   1.417  -8.611  0.00  0.00    -0.390 OA
ATOM     25  H   UNL     1      -0.627   0.791  -9.238  0.00  0.00    +0.210 HD
ENDBRANCH  23  24
BRANCH  23  26
ATOM     26  C   UNL     1      -3.076   1.591  -9.862  0.00  0.00    +0.258 C 
BRANCH  26  27
ATOM     27  O   UNL     1      -2.818   2.942 -10.250  0.00  0.00    -0.489 OA
BRANCH  27  28
ATOM     28  C   UNL     1      -3.320   3.348 -11.446  0.00  0.00    +0.121 A 
ATOM     29  C   UNL     1      -4.051   2.465 -12.228  0.00  0.00    +0.049 A 
ATOM     30  C   UNL     1      -4.561   2.880 -13.443  0.00  0.00    -0.047 A 
ATOM     31  C   UNL     1      -4.343   4.173 -13.880  0.00  0.00    +0.007 A 
ATOM     32  C   UNL     1      -3.615   5.054 -13.103  0.00  0.00    -0.047 A 
ATOM     33  C   UNL     1      -3.108   4.647 -11.885  0.00  0.00    +0.049 A 
ATOM     34  C   UNL     1      -3.378   6.463 -13.583  0.00  0.00    +0.044 C 
ATOM     35  C   UNL     1      -5.356   1.921 -14.292  0.00  0.00    +0.044 C 
ENDBRANCH  27  28
ENDBRANCH  26  27
ENDBRANCH  23  26
ENDBRANCH  22  23
ENDBRANCH   1  22
TORSDOF 12
