REMARK  Name = ZINC11972325
REMARK  9 active torsions:
REMARK  status: ('A' for Active; 'I' for Inactive)
REMARK    1  A    between atoms: C_1  and  C_2
REMARK    2  A    between atoms: C_7  and  C_8
REMARK    3  A    between atoms: C_8  and  C_9
REMARK    4  A    between atoms: C_9  and  C_11
REMARK    5  A    between atoms: C_9  and  N_26
REMARK    6  A    between atoms: C_17  and  C_19
REMARK    7  A    between atoms: N_26  and  C_27
REMARK    8  A    between atoms: C_28  and  C_30
REMARK    9  A    between atoms: C_30  and  N_31
REMARK                            x       y       z     vdW  Elec       q    Type
REMARK                         _______ _______ _______ _____ _____    ______ ____
ROOT
ATOM      1  C   UNL     1      -1.711  -0.276   2.651  0.00  0.00    +0.083 C 
ENDROOT
BRANCH   1   2
ATOM      2  C   UNL     1      -1.751   0.536   3.948  0.00  0.00    +0.013 C 
ATOM      3  C   UNL     1      -1.058  -0.250   5.063  0.00  0.00    +0.024 C 
ATOM      4  C   UNL     1      -1.069   0.580   6.350  0.00  0.00    +0.108 C 
ATOM      5  N   UNL     1      -2.455   0.962   6.654  0.00  0.00    -0.298 N 
ATOM      6  C   UNL     1      -3.243   1.643   5.617  0.00  0.00    +0.108 C 
ATOM      7  C   UNL     1      -3.207   0.801   4.338  0.00  0.00    +0.024 C 
ATOM      8  C   UNL     1      -2.993   0.694   7.860  0.00  0.00    +0.247 C 
ATOM      9  O   UNL     1      -4.169   0.924   8.066  0.00  0.00    -0.270 OA
BRANCH   8  10
ATOM     10  C   UNL     1      -2.153   0.118   8.933  0.00  0.00    +0.040 A 
ATOM     11  C   UNL     1      -2.654  -0.872   9.786  0.00  0.00    +0.034 A 
ATOM     12  C   UNL     1      -1.834  -1.385  10.770  0.00  0.00    +0.134 A 
ATOM     13  N   UNL     1      -0.598  -0.947  10.919  0.00  0.00    -0.147 N 
ATOM     14  O   UNL     1       0.206  -1.498  11.946  0.00  0.00    -0.164 OA
ATOM     15  C   UNL     1      -0.089  -0.011  10.140  0.00  0.00    +0.134 A 
ATOM     16  C   UNL     1      -0.837   0.553   9.127  0.00  0.00    +0.034 A 
ENDBRANCH   8  10
ENDBRANCH   1   2
BRANCH   1  17
ATOM     17  N   UNL     1      -2.374   0.477   1.583  0.00  0.00    -0.299 N 
ATOM     18  C   UNL     1      -1.917   1.828   1.248  0.00  0.00    +0.132 C 
ATOM     19  C   UNL     1      -3.403  -0.073   0.910  0.00  0.00    +0.237 C 
ATOM     20  O   UNL     1      -3.781  -1.192   1.188  0.00  0.00    -0.274 OA
BRANCH  19  21
ATOM     21  C   UNL     1      -4.085   0.701  -0.189  0.00  0.00    +0.239 C 
BRANCH  21  22
ATOM     22  N   UNL     1      -5.163  -0.109  -0.761  0.00  0.00    -0.263 N 
ATOM     23  C   UNL     1      -6.457   0.257  -0.873  0.00  0.00    +0.109 A 
ATOM     24  C   UNL     1      -7.127  -0.766  -1.452  0.00  0.00    +0.041 A 
ATOM     25  C   UNL     1      -6.210  -1.793  -1.702  0.00  0.00    +0.134 A 
ATOM     26  N   UNL     1      -5.032  -1.398  -1.294  0.00  0.00    -0.179 NA
ENDBRANCH  21  22
ENDBRANCH  19  21
ENDBRANCH   1  17
BRANCH   1  27
ATOM     27  C   UNL     1      -0.256  -0.541   2.261  0.00  0.00    +0.058 C 
BRANCH  27  34
ATOM     28  C   UNL     1      -0.622  -3.393   2.548  0.00  0.00    +0.044 C 
ATOM     29  C   UNL     1      -0.392  -2.796   1.183  0.00  0.00    -0.047 A 
ATOM     30  C   UNL     1      -0.349  -3.614   0.069  0.00  0.00    +0.003 A 
ATOM     31  C   UNL     1      -0.143  -3.066  -1.183  0.00  0.00    +0.000 A 
ATOM     32  C   UNL     1       0.033  -1.702  -1.320  0.00  0.00    +0.000 A 
ATOM     33  C   UNL     1      -0.004  -0.885  -0.206  0.00  0.00    +0.004 A 
ATOM     34  C   UNL     1      -0.216  -1.432   1.046  0.00  0.00    -0.043 A 
ENDBRANCH  27  34
ENDBRANCH   1  27
TORSDOF 7
