REMARK  Name = ZINC39681242
REMARK  7 active torsions:
REMARK  status: ('A' for Active; 'I' for Inactive)
REMARK    1  A    between atoms: C_4  and  C_33
REMARK    2  A    between atoms: C_5  and  C_7
REMARK    3  A    between atoms: C_11  and  C_20
REMARK    4  A    between atoms: N_22  and  C_23
REMARK    5  A    between atoms: C_23  and  C_24
REMARK    6  A    between atoms: C_24  and  O_25
REMARK    7  A    between atoms: O_25  and  C_26
REMARK                            x       y       z     vdW  Elec       q    Type
REMARK                         _______ _______ _______ _____ _____    ______ ____
ROOT
ATOM      1  C   UNL     1       1.331  -1.960  -0.158  0.00  0.00    +0.247 C 
ATOM      2  O   UNL     1       2.352  -2.619  -0.186  0.00  0.00    -0.270 OA
ATOM      3  N   UNL     1       0.143  -2.567   0.036  0.00  0.00    -0.296 N 
ATOM      4  C   UNL     1      -1.204  -1.949   0.032  0.00  0.00    +0.121 C 
ATOM      5  C   UNL     1      -2.104  -2.979  -0.687  0.00  0.00    +0.100 C 
ATOM      6  C   UNL     1      -1.382  -4.325  -0.505  0.00  0.00    -0.004 C 
ATOM      7  C   UNL     1      -0.112  -4.004   0.295  0.00  0.00    +0.115 C 
ATOM      8  C   UNL     1      -1.010  -4.912  -1.863  0.00  0.00    -0.010 C 
ATOM      9  C   UNL     1      -0.345  -6.276  -1.659  0.00  0.00    -0.082 C 
ATOM     10  N   UNL     1      -1.269  -7.172  -0.953  0.00  0.00    +0.379 N 
ATOM     11  C   UNL     1      -1.550  -6.646   0.388  0.00  0.00    -0.082 C 
ATOM     12  C   UNL     1      -2.265  -5.297   0.271  0.00  0.00    -0.010 C 
ATOM     13  H   UNL     1      -2.131  -7.241  -1.473  0.00  0.00    -0.086 HD
ATOM     14  H   UNL     1      -0.853  -8.088  -0.874  0.00  0.00    -0.086 HD
ENDROOT
BRANCH   1  19
ATOM     15  C   UNL     1       0.413   1.680  -0.044  0.00  0.00    +0.001 A 
ATOM     16  C   UNL     1       1.505   2.252  -0.672  0.00  0.00    +0.001 A 
ATOM     17  C   UNL     1       2.541   1.459  -1.133  0.00  0.00    +0.013 A 
ATOM     18  C   UNL     1       2.490   0.090  -0.969  0.00  0.00    +0.067 A 
ATOM     19  C   UNL     1       1.392  -0.494  -0.337  0.00  0.00    +0.049 A 
ATOM     20  C   UNL     1       0.351   0.312   0.126  0.00  0.00    +0.013 A 
BRANCH  18  21
ATOM     21  C   UNL     1       3.619  -0.773  -1.472  0.00  0.00    +0.418 C 
ATOM     22  F   UNL     1       4.595   0.035  -2.064  0.00  0.00    -0.166 F 
ATOM     23  F   UNL     1       4.181  -1.476  -0.402  0.00  0.00    -0.166 F 
ATOM     24  F   UNL     1       3.127  -1.679  -2.418  0.00  0.00    -0.166 F 
ENDBRANCH  18  21
ENDBRANCH   1  19
BRANCH   5  25
ATOM     25  C   UNL     1      -2.224  -2.639  -2.150  0.00  0.00    +0.218 C 
ATOM     26  O   UNL     1      -1.303  -2.100  -2.725  0.00  0.00    -0.275 OA
ATOM     27  N   UNL     1      -3.357  -2.933  -2.819  0.00  0.00    -0.312 N 
ATOM     28  H   UNL     1      -4.068  -3.423  -2.377  0.00  0.00    +0.149 HD
BRANCH  27  29
ATOM     29  C   UNL     1      -3.514  -2.514  -4.214  0.00  0.00    +0.145 C 
BRANCH  29  30
ATOM     30  C   UNL     1      -4.924  -2.860  -4.695  0.00  0.00    +0.248 C 
BRANCH  30  31
ATOM     31  O   UNL     1      -5.879  -2.083  -3.969  0.00  0.00    -0.489 OA
BRANCH  31  32
ATOM     32  C   UNL     1      -7.192  -2.317  -4.230  0.00  0.00    +0.139 A 
ATOM     33  C   UNL     1      -7.557  -3.342  -5.090  0.00  0.00    +0.047 A 
ATOM     34  C   UNL     1      -8.893  -3.579  -5.353  0.00  0.00    +0.004 A 
ATOM     35  C   UNL     1      -9.865  -2.794  -4.762  0.00  0.00    +0.002 A 
ATOM     36  C   UNL     1      -9.505  -1.770  -3.905  0.00  0.00    +0.023 A 
ATOM     37  C   UNL     1      -8.170  -1.533  -3.633  0.00  0.00    +0.083 A 
ATOM     38 CL   UNL     1      -7.718  -0.253  -2.552  0.00  0.00    -0.080 Cl
ENDBRANCH  31  32
ENDBRANCH  30  31
ENDBRANCH  29  30
ENDBRANCH  27  29
ENDBRANCH   5  25
TORSDOF 7
