REMARK  Name = ZINC01266446
REMARK  8 active torsions:
REMARK  status: ('A' for Active; 'I' for Inactive)
REMARK    1  A    between atoms: C_1  and  C_2
REMARK    2  A    between atoms: N_8  and  C_9
REMARK    3  A    between atoms: C_9  and  C_10
REMARK    4  A    between atoms: C_16  and  C_24
REMARK    5  A    between atoms: C_18  and  C_22
REMARK    6  A    between atoms: C_19  and  N_21
REMARK    7  A    between atoms: C_27  and  O_31
REMARK    8  A    between atoms: O_31  and  C_32
REMARK                            x       y       z     vdW  Elec       q    Type
REMARK                         _______ _______ _______ _____ _____    ______ ____
ROOT
ATOM      1  C   UNL     1       2.454   3.948  -0.430  0.00  0.00    +0.064 C 
ATOM      2  C   UNL     1       1.144   3.239  -0.197  0.00  0.00    +0.023 A 
ATOM      3  C   UNL     1       0.024   3.962   0.017  0.00  0.00    +0.068 A 
ATOM      4  C   UNL     1      -1.204   3.303   0.236  0.00  0.00    +0.141 A 
ATOM      5  C   UNL     1      -1.234   1.925   0.220  0.00  0.00    +0.072 A 
ATOM      6  C   UNL     1      -0.046   1.216  -0.002  0.00  0.00    +0.259 A 
ATOM      7  O   UNL     1      -0.057  -0.005  -0.015  0.00  0.00    -0.267 OA
ATOM      8  N   UNL     1       1.107   1.880  -0.206  0.00  0.00    -0.310 N 
ATOM      9  C   UNL     1      -2.521   1.182   0.453  0.00  0.00    +0.103 C 
ATOM     10  C   UNL     1      -3.547   2.099   1.058  0.00  0.00    +0.098 C 
ATOM     11  C   UNL     1      -3.395   3.444   1.023  0.00  0.00    +0.199 C 
ATOM     12  O   UNL     1      -2.325   4.023   0.450  0.00  0.00    -0.441 OA
ENDROOT
BRANCH   9  13
ATOM     13  C   UNL     1      -3.034   0.656  -0.863  0.00  0.00    -0.033 A 
ATOM     14  C   UNL     1      -3.348   1.536  -1.882  0.00  0.00    +0.008 A 
ATOM     15  C   UNL     1      -3.813   1.056  -3.091  0.00  0.00    +0.047 A 
ATOM     16  C   UNL     1      -3.976  -0.308  -3.279  0.00  0.00    +0.134 A 
ATOM     17  C   UNL     1      -3.666  -1.189  -2.252  0.00  0.00    +0.060 A 
ATOM     18  C   UNL     1      -3.195  -0.705  -1.046  0.00  0.00    +0.023 A 
ATOM     19 BR   UNL     1      -3.886  -3.051  -2.503  0.00  0.00    -0.047 Br
BRANCH  16  20
ATOM     20  O   UNL     1      -4.440  -0.782  -4.465  0.00  0.00    -0.494 OA
ATOM     21  C   UNL     1      -4.739   0.182  -5.476  0.00  0.00    +0.277 C 
ENDBRANCH  16  20
ENDBRANCH   9  13
BRANCH  11  22
ATOM     22  N   UNL     1      -4.360   4.239   1.588  0.00  0.00    -0.328 N 
ATOM     23  H   UNL     1      -4.265   5.205   1.570  0.00  0.00    +0.145 HD
ATOM     24  H   UNL     1      -5.138   3.836   2.005  0.00  0.00    +0.145 HD
ENDBRANCH  11  22
BRANCH  10  25
ATOM     25  C   UNL     1      -4.708   1.540   1.682  0.00  0.00    +0.101 C 
ATOM     26  N   UNL     1      -5.629   1.097   2.178  0.00  0.00    -0.191 NA
ENDBRANCH  10  25
BRANCH   8  27
ATOM     27  C   UNL     1       2.341   1.127  -0.443  0.00  0.00    +0.156 C 
BRANCH  27  28
ATOM     28  C   UNL     1       2.571   0.985  -1.948  0.00  0.00    +0.138 C 
ATOM     29  C   UNL     1       3.834   0.129  -2.221  0.00  0.00    +0.035 C 
ATOM     30  C   UNL     1       3.521  -0.413  -3.643  0.00  0.00    +0.031 C 
ATOM     31  C   UNL     1       1.987  -0.583  -3.598  0.00  0.00    +0.160 C 
ATOM     32  O   UNL     1       1.488   0.259  -2.552  0.00  0.00    -0.375 OA
ENDBRANCH  27  28
ENDBRANCH   8  27
TORSDOF 6
