REMARK  Name = ZINC38684171
REMARK  13 active torsions:
REMARK  status: ('A' for Active; 'I' for Inactive)
REMARK    1  A    between atoms: C_1  and  C_2
REMARK    2  A    between atoms: C_2  and  C_3
REMARK    3  A    between atoms: C_2  and  C_4
REMARK    4  A    between atoms: C_4  and  O_5
REMARK    5  A    between atoms: O_5  and  C_6
REMARK    6  A    between atoms: C_9  and  C_14
REMARK    7  A    between atoms: C_11  and  O_12
REMARK    8  A    between atoms: O_12  and  C_13
REMARK    9  A    between atoms: C_19  and  O_28
REMARK   10  A    between atoms: C_23  and  N_27
REMARK   11  A    between atoms: C_24  and  C_25
REMARK   12  A    between atoms: O_28  and  C_29
REMARK   13  A    between atoms: C_29  and  C_31
REMARK                            x       y       z     vdW  Elec       q    Type
REMARK                         _______ _______ _______ _____ _____    ______ ____
ROOT
ATOM      1  C   UNL     1      -6.457  -4.563  -0.104  0.00  0.00    +0.098 C 
ATOM      2  C   UNL     1      -7.257  -4.075  -1.283  0.00  0.00    +0.008 A 
ATOM      3  C   UNL     1      -6.893  -4.462  -2.560  0.00  0.00    +0.012 A 
ATOM      4  C   UNL     1      -7.616  -4.025  -3.652  0.00  0.00    +0.047 A 
ATOM      5  C   UNL     1      -8.713  -3.194  -3.471  0.00  0.00    +0.135 A 
ATOM      6  C   UNL     1      -9.080  -2.805  -2.193  0.00  0.00    +0.093 A 
ATOM      7  C   UNL     1      -8.351  -3.245  -1.095  0.00  0.00    +0.138 A 
ATOM      8  O   UNL     1      -8.724  -2.855   0.148  0.00  0.00    -0.441 OA
ATOM      9  C   UNL     1      -8.306  -3.548   1.221  0.00  0.00    +0.199 C 
ATOM     10  C   UNL     1      -7.238  -4.373   1.165  0.00  0.00    +0.098 C 
ENDROOT
BRANCH   1  14
ATOM     11  C   UNL     1      -2.806  -2.349   0.138  0.00  0.00    +0.162 A 
ATOM     12  C   UNL     1      -4.024  -1.694   0.226  0.00  0.00    +0.050 A 
ATOM     13  C   UNL     1      -5.202  -2.413   0.147  0.00  0.00    +0.008 A 
ATOM     14  C   UNL     1      -5.169  -3.785  -0.019  0.00  0.00    -0.031 A 
ATOM     15  C   UNL     1      -3.957  -4.444  -0.108  0.00  0.00    +0.054 A 
ATOM     16  C   UNL     1      -2.772  -3.729  -0.036  0.00  0.00    +0.162 A 
BRANCH  16  17
ATOM     17  O   UNL     1      -1.579  -4.376  -0.129  0.00  0.00    -0.491 OA
ATOM     18  C   UNL     1      -1.622  -5.793  -0.306  0.00  0.00    +0.277 C 
ENDBRANCH  16  17
BRANCH  11  19
ATOM     19  O   UNL     1      -1.645  -1.644   0.215  0.00  0.00    -0.488 OA
BRANCH  19  20
ATOM     20  C   UNL     1      -1.756  -0.230   0.393  0.00  0.00    +0.232 C 
BRANCH  20  22
ATOM     21  C   UNL     1      -0.475   1.911   0.522  0.00  0.00    +0.010 C 
ATOM     22  C   UNL     1      -0.357   0.387   0.457  0.00  0.00    +0.020 C 
ATOM     23  C   UNL     1       0.369  -0.123   1.703  0.00  0.00    +0.010 C 
ENDBRANCH  20  22
ENDBRANCH  19  20
ENDBRANCH  11  19
ENDBRANCH   1  14
BRANCH   9  24
ATOM     24  N   UNL     1      -8.984  -3.412   2.407  0.00  0.00    -0.328 N 
ATOM     25  H   UNL     1      -9.752  -2.823   2.462  0.00  0.00    +0.145 HD
ATOM     26  H   UNL     1      -8.694  -3.906   3.190  0.00  0.00    +0.145 HD
ENDBRANCH   9  24
BRANCH  10  27
ATOM     27  C   UNL     1      -6.843  -5.082   2.345  0.00  0.00    +0.101 C 
ATOM     28  N   UNL     1      -6.529  -5.645   3.281  0.00  0.00    -0.191 NA
ENDBRANCH  10  27
BRANCH   5  29
ATOM     29  O   UNL     1      -9.425  -2.763  -4.545  0.00  0.00    -0.422 OA
BRANCH  29  30
ATOM     30  C   UNL     1      -9.352  -1.456  -4.871  0.00  0.00    +0.351 C 
ATOM     31  O   UNL     1      -8.583  -0.724  -4.278  0.00  0.00    -0.244 OA
BRANCH  30  32
ATOM     32  C   UNL     1     -10.197  -0.920  -5.939  0.00  0.00    +0.097 A 
ATOM     33  C   UNL     1     -10.271   0.376  -6.429  0.00  0.00    +0.022 A 
ATOM     34  C   UNL     1     -11.168   0.579  -7.448  0.00  0.00    +0.008 A 
ATOM     35  C   UNL     1     -11.903  -0.469  -7.898  0.00  0.00    +0.046 A 
ATOM     36  S   UNL     1     -11.393  -1.764  -6.956  0.00  0.00    -0.090 S 
ENDBRANCH  30  32
ENDBRANCH  29  30
ENDBRANCH   5  29
TORSDOF 10
