REMARK  Name = ZINC59170682
REMARK  7 active torsions:
REMARK  status: ('A' for Active; 'I' for Inactive)
REMARK    1  A    between atoms: C_1  and  C_2
REMARK    2  A    between atoms: C_5  and  S_8
REMARK    3  A    between atoms: S_8  and  N_11
REMARK    4  A    between atoms: N_11  and  N_12
REMARK    5  A    between atoms: C_14  and  C_26
REMARK    6  A    between atoms: C_18  and  N_23
REMARK    7  A    between atoms: N_28  and  C_29
REMARK                            x       y       z     vdW  Elec       q    Type
REMARK                         _______ _______ _______ _____ _____    ______ ____
ROOT
ATOM      1  N   UNL     1       2.333  -3.841   0.156  0.00  0.00    -0.260 N 
ATOM      2  C   UNL     1       3.489  -4.564   0.216  0.00  0.00    +0.225 A 
ATOM      3  C   UNL     1       4.226  -4.564   1.399  0.00  0.00    +0.099 A 
ATOM      4  C   UNL     1       5.424  -5.303   1.485  0.00  0.00    +0.030 A 
ATOM      5  C   UNL     1       5.836  -6.022   0.355  0.00  0.00    +0.020 A 
ATOM      6  C   UNL     1       7.018  -6.787   0.351  0.00  0.00    +0.044 A 
ATOM      7  C   UNL     1       7.371  -7.467  -0.774  0.00  0.00    +0.127 A 
ATOM      8  C   UNL     1       6.587  -7.423  -1.925  0.00  0.00    +0.036 A 
ATOM      9  C   UNL     1       5.423  -6.691  -1.976  0.00  0.00    +0.049 A 
ATOM     10  C   UNL     1       5.010  -5.975  -0.855  0.00  0.00    +0.138 A 
ATOM     11  O   UNL     1       3.879  -5.254  -0.861  0.00  0.00    -0.437 OA
ATOM     12  H   UNL     1       1.997  -3.397   0.950  0.00  0.00    +0.189 HD
ENDROOT
BRANCH   3  13
ATOM     13  C   UNL     1       3.750  -3.788   2.568  0.00  0.00    +0.253 C 
ATOM     14  O   UNL     1       2.885  -4.244   3.289  0.00  0.00    -0.270 OA
ATOM     15  N   UNL     1       4.277  -2.575   2.831  0.00  0.00    -0.281 N 
ATOM     16  H   UNL     1       4.899  -2.171   2.206  0.00  0.00    +0.155 HD
BRANCH  15  17
ATOM     17  C   UNL     1       3.926  -1.900   4.005  0.00  0.00    +0.034 A 
ATOM     18  C   UNL     1       3.646  -2.616   5.162  0.00  0.00    +0.026 A 
ATOM     19  C   UNL     1       3.300  -1.948   6.319  0.00  0.00    +0.040 A 
ATOM     20  C   UNL     1       3.232  -0.565   6.327  0.00  0.00    +0.124 A 
ATOM     21  C   UNL     1       3.510   0.151   5.175  0.00  0.00    +0.040 A 
ATOM     22  C   UNL     1       3.863  -0.513   4.016  0.00  0.00    +0.026 A 
ATOM     23  F   UNL     1       2.892   0.087   7.461  0.00  0.00    -0.205 F 
ENDBRANCH  15  17
ENDBRANCH   3  13
BRANCH   7  24
ATOM     24  N   UNL     1       8.615  -8.270  -0.775  0.00  0.00    +0.056 N 
ATOM     25  O   UNL     1       9.366  -8.321   0.306  0.00  0.00    -0.126 OA
ATOM     26  O   UNL     1       8.970  -8.933  -1.856  0.00  0.00    -0.126 OA
ENDBRANCH   7  24
BRANCH   1  27
ATOM     27  N   UNL     1       1.686  -3.749  -0.956  0.00  0.00    -0.157 N 
ATOM     28  H   UNL     1       1.980  -4.253  -1.731  0.00  0.00    +0.194 HD
BRANCH  27  29
ATOM     29  S   UNL     1       0.354  -2.772  -1.061  0.00  0.00    +0.085 S 
ATOM     30  O   UNL     1      -0.571  -3.240  -0.090  0.00  0.00    -0.149 OA
ATOM     31  O   UNL     1       0.027  -2.677  -2.441  0.00  0.00    -0.149 OA
BRANCH  29  36
ATOM     32  C   UNL     1       2.045   2.748   0.692  0.00  0.00    +0.044 C 
ATOM     33  C   UNL     1       1.623   1.369   0.254  0.00  0.00    -0.050 A 
ATOM     34  C   UNL     1       1.817   0.971  -1.055  0.00  0.00    +0.005 A 
ATOM     35  C   UNL     1       1.429  -0.294  -1.457  0.00  0.00    +0.029 A 
ATOM     36  C   UNL     1       0.849  -1.160  -0.549  0.00  0.00    +0.110 A 
ATOM     37  C   UNL     1       0.656  -0.761   0.760  0.00  0.00    +0.029 A 
ATOM     38  C   UNL     1       1.047   0.502   1.163  0.00  0.00    +0.005 A 
ENDBRANCH  29  36
ENDBRANCH  27  29
ENDBRANCH   1  27
TORSDOF 6
