REMARK  Name = ZINC63520809
REMARK  10 active torsions:
REMARK  status: ('A' for Active; 'I' for Inactive)
REMARK    1  A    between atoms: C_1  and  O_2
REMARK    2  A    between atoms: O_2  and  C_3
REMARK    3  A    between atoms: C_6  and  C_9
REMARK    4  A    between atoms: C_11  and  C_27
REMARK    5  A    between atoms: C_11  and  O_35
REMARK    6  A    between atoms: N_12  and  C_16
REMARK    7  A    between atoms: C_16  and  C_17
REMARK    8  A    between atoms: C_17  and  C_18
REMARK    9  A    between atoms: C_30  and  O_33
REMARK   10  A    between atoms: O_33  and  C_34
REMARK                            x       y       z     vdW  Elec       q    Type
REMARK                         _______ _______ _______ _____ _____    ______ ____
ROOT
ATOM      1  C   UNL     1       2.505  -2.503  -4.381  0.00  0.00    +0.263 C 
ATOM      2  C   UNL     1       3.905  -3.032  -3.990  0.00  0.00    +0.206 C 
ATOM      3  N   UNL     1       3.979  -4.303  -4.738  0.00  0.00    -0.231 N 
ATOM      4  C   UNL     1       2.734  -4.609  -5.150  0.00  0.00    +0.406 C 
ATOM      5  O   UNL     1       2.469  -5.590  -5.817  0.00  0.00    -0.226 OA
ATOM      6  O   UNL     1       1.816  -3.716  -4.745  0.00  0.00    -0.437 OA
ENDROOT
BRANCH   1  10
ATOM      7  C   UNL     1       0.606  -0.607  -1.056  0.00  0.00    +0.120 A 
ATOM      8  C   UNL     1       1.173   0.161  -2.062  0.00  0.00    +0.046 A 
ATOM      9  C   UNL     1       1.786  -0.455  -3.136  0.00  0.00    +0.011 A 
ATOM     10  C   UNL     1       1.835  -1.835  -3.209  0.00  0.00    -0.002 A 
ATOM     11  C   UNL     1       1.270  -2.602  -2.207  0.00  0.00    +0.011 A 
ATOM     12  C   UNL     1       0.661  -1.992  -1.128  0.00  0.00    +0.046 A 
BRANCH   7  14
ATOM     13  C   UNL     1      -0.017   1.425   0.010  0.00  0.00    +0.277 C 
ATOM     14  O   UNL     1       0.002  -0.004   0.002  0.00  0.00    -0.495 OA
ENDBRANCH   7  14
ENDBRANCH   1  10
BRANCH   2  15
ATOM     15  C   UNL     1       3.991  -3.277  -2.506  0.00  0.00    +0.007 A 
ATOM     16  C   UNL     1       4.303  -2.236  -1.651  0.00  0.00    +0.012 A 
ATOM     17  C   UNL     1       4.383  -2.458  -0.290  0.00  0.00    +0.046 A 
ATOM     18  C   UNL     1       4.148  -3.728   0.219  0.00  0.00    +0.120 A 
ATOM     19  C   UNL     1       3.835  -4.770  -0.640  0.00  0.00    +0.046 A 
ATOM     20  C   UNL     1       3.751  -4.542  -2.000  0.00  0.00    +0.012 A 
BRANCH  18  21
ATOM     21  O   UNL     1       4.226  -3.949   1.558  0.00  0.00    -0.495 OA
ATOM     22  C   UNL     1       3.973  -5.280   2.011  0.00  0.00    +0.277 C 
ENDBRANCH  18  21
ENDBRANCH   2  15
BRANCH   2  23
ATOM     23  O   UNL     1       4.927  -2.130  -4.418  0.00  0.00    -0.364 OA
ATOM     24  H   UNL     1       5.824  -2.417  -4.196  0.00  0.00    +0.213 HD
ENDBRANCH   2  23
BRANCH   3  25
ATOM     25  C   UNL     1       5.189  -5.090  -4.987  0.00  0.00    +0.119 C 
BRANCH  25  26
ATOM     26  C   UNL     1       5.387  -6.096  -3.852  0.00  0.00    +0.052 C 
BRANCH  26  27
ATOM     27  C   UNL     1       6.632  -6.905  -4.108  0.00  0.00    -0.040 C 
ATOM     28  C   UNL     1       7.871  -6.667  -3.621  0.00  0.00    -0.001 A 
ATOM     29  C   UNL     1       8.410  -5.623  -2.741  0.00  0.00    +0.010 A 
ATOM     30  C   UNL     1       9.724  -5.648  -2.422  0.00  0.00    +0.001 A 
ATOM     31  C   UNL     1      10.582  -6.643  -2.910  0.00  0.00    +0.002 A 
ATOM     32  C   UNL     1      10.161  -7.635  -3.723  0.00  0.00    +0.026 A 
ATOM     33  C   UNL     1       8.798  -7.707  -4.122  0.00  0.00    +0.043 A 
ATOM     34  N   UNL     1       8.157  -8.554  -4.890  0.00  0.00    -0.380 N 
ATOM     35  C   UNL     1       6.748  -8.151  -4.957  0.00  0.00    +0.144 C 
ATOM     36  H   UNL     1       8.548  -9.322  -5.335  0.00  0.00    +0.160 HD
ENDBRANCH  26  27
ENDBRANCH  25  26
ENDBRANCH   3  25
TORSDOF 8
