REMARK  Name = ZINC38971455
REMARK  10 active torsions:
REMARK  status: ('A' for Active; 'I' for Inactive)
REMARK    1  A    between atoms: C_1  and  C_2
REMARK    2  A    between atoms: C_2  and  C_3
REMARK    3  A    between atoms: C_3  and  C_4
REMARK    4  A    between atoms: C_4  and  C_5
REMARK    5  A    between atoms: C_8  and  N_11
REMARK    6  A    between atoms: N_11  and  C_12
REMARK    7  A    between atoms: N_15  and  S_16
REMARK    8  A    between atoms: S_16  and  C_19
REMARK    9  A    between atoms: C_22  and  C_26
REMARK   10  A    between atoms: C_23  and  C_25
REMARK                            x       y       z     vdW  Elec       q    Type
REMARK                         _______ _______ _______ _____ _____    ______ ____
ROOT
ATOM      1  C   UNL     1       2.787  -4.082   7.094  0.00  0.00    +0.237 C 
ATOM      2  C   UNL     1       3.537  -3.306   8.152  0.00  0.00    +0.192 C 
ATOM      3  N   UNL     1       3.746  -2.030   8.011  0.00  0.00    -0.110 NA
ATOM      4  N   UNL     1       3.985  -3.953   9.240  0.00  0.00    -0.226 NA
ATOM      5  C   UNL     1       3.786  -5.243   9.406  0.00  0.00    +0.089 A 
ATOM      6  C   UNL     1       4.272  -5.894  10.569  0.00  0.00    +0.030 A 
ATOM      7  C   UNL     1       4.072  -7.219  10.744  0.00  0.00    +0.002 A 
ATOM      8  C   UNL     1       3.386  -8.014   9.810  0.00  0.00    +0.002 A 
ATOM      9  C   UNL     1       2.882  -7.494   8.669  0.00  0.00    +0.027 A 
ATOM     10  C   UNL     1       3.058  -6.059   8.403  0.00  0.00    +0.063 A 
ATOM     11  N   UNL     1       2.585  -5.523   7.314  0.00  0.00    -0.359 N 
ATOM     12  H   UNL     1       2.110  -6.062   6.662  0.00  0.00    +0.162 HD
ENDROOT
BRANCH   3  13
ATOM     13  S   UNL     1       4.569  -1.191   9.178  0.00  0.00    +0.100 S 
ATOM     14  O   UNL     1       3.754  -1.208  10.342  0.00  0.00    -0.146 OA
ATOM     15  O   UNL     1       5.900  -1.688   9.173  0.00  0.00    -0.146 OA
BRANCH  13  16
ATOM     16  C   UNL     1       4.657   0.487   8.649  0.00  0.00    +0.113 A 
ATOM     17  C   UNL     1       5.720   0.914   7.875  0.00  0.00    +0.029 A 
ATOM     18  C   UNL     1       5.788   2.230   7.461  0.00  0.00    +0.005 A 
ATOM     19  C   UNL     1       4.794   3.121   7.819  0.00  0.00    -0.047 A 
ATOM     20  C   UNL     1       3.730   2.695   8.592  0.00  0.00    -0.046 A 
ATOM     21  C   UNL     1       3.659   1.376   9.004  0.00  0.00    +0.032 A 
ATOM     22  C   UNL     1       2.646   3.665   8.984  0.00  0.00    +0.044 C 
ATOM     23  C   UNL     1       4.869   4.557   7.368  0.00  0.00    +0.044 C 
ENDBRANCH  13  16
ENDBRANCH   3  13
BRANCH   1  24
ATOM     24  N   UNL     1       3.505  -3.920   5.827  0.00  0.00    -0.318 N 
ATOM     25  H   UNL     1       4.458  -4.100   5.783  0.00  0.00    +0.148 HD
BRANCH  24  29
ATOM     26  C   UNL     1       1.459  -2.685   2.417  0.00  0.00    -0.047 A 
ATOM     27  C   UNL     1       0.758  -3.000   3.567  0.00  0.00    +0.005 A 
ATOM     28  C   UNL     1       1.433  -3.409   4.699  0.00  0.00    +0.023 A 
ATOM     29  C   UNL     1       2.819  -3.506   4.683  0.00  0.00    +0.029 A 
ATOM     30  C   UNL     1       3.521  -3.189   3.527  0.00  0.00    +0.023 A 
ATOM     31  C   UNL     1       2.838  -2.786   2.396  0.00  0.00    +0.005 A 
BRANCH  26  32
ATOM     32  C   UNL     1       0.719  -2.239   1.183  0.00  0.00    +0.035 C 
BRANCH  32  33
ATOM     33  C   UNL     1       0.362  -3.459   0.333  0.00  0.00    +0.004 C 
BRANCH  33  35
ATOM     34  C   UNL     1      -0.747  -4.226  -1.771  0.00  0.00    +0.004 C 
ATOM     35  C   UNL     1      -0.390  -3.005  -0.920  0.00  0.00    -0.003 C 
ENDBRANCH  33  35
ENDBRANCH  32  33
ENDBRANCH  26  32
ENDBRANCH  24  29
ENDBRANCH   1  24
TORSDOF 7
