REMARK  Name = ZINC08820602
REMARK  10 active torsions:
REMARK  status: ('A' for Active; 'I' for Inactive)
REMARK    1  A    between atoms: C_1  and  C_2
REMARK    2  A    between atoms: C_2  and  C_10
REMARK    3  A    between atoms: C_3  and  C_4
REMARK    4  A    between atoms: N_14  and  C_18
REMARK    5  A    between atoms: C_18  and  C_19
REMARK    6  A    between atoms: C_19  and  C_20
REMARK    7  A    between atoms: C_20  and  C_21
REMARK    8  A    between atoms: N_23  and  N_24
REMARK    9  A    between atoms: C_25  and  C_27
REMARK   10  A    between atoms: C_30  and  N_33
REMARK                            x       y       z     vdW  Elec       q    Type
REMARK                         _______ _______ _______ _____ _____    ______ ____
ROOT
ATOM      1  C   UNL     1       3.733   0.311  -2.821  0.00  0.00    +0.029 C 
ENDROOT
BRANCH   1   2
ATOM      2  C   UNL     1       3.562   0.403  -1.304  0.00  0.00    +0.115 C 
BRANCH   2   7
ATOM      3  C   UNL     1      -1.099  -0.936  -0.234  0.00  0.00    +0.023 C 
ATOM      4  C   UNL     1      -0.058  -0.087  -0.477  0.00  0.00    +0.077 C 
ATOM      5  C   UNL     1       1.349  -0.392  -0.795  0.00  0.00    +0.258 C 
ATOM      6  O   UNL     1       1.751  -1.538  -0.879  0.00  0.00    -0.269 OA
ATOM      7  N   UNL     1       2.152   0.641  -0.984  0.00  0.00    -0.255 N 
ATOM      8  C   UNL     1       1.703   1.909  -0.890  0.00  0.00    +0.121 C 
ATOM      9  S   UNL     1       2.578   3.366  -1.099  0.00  0.00    -0.027 S 
ATOM     10  S   UNL     1      -0.026   1.700  -0.495  0.00  0.00    -0.061 S 
BRANCH   3  12
ATOM     11  C   UNL     1      -2.675   1.034  -0.348  0.00  0.00    +0.044 C 
ATOM     12  C   UNL     1      -2.405  -0.427  -0.095  0.00  0.00    -0.049 C 
ATOM     13  C   UNL     1      -3.418  -1.250   0.265  0.00  0.00    +0.011 C 
BRANCH  13  14
ATOM     14  C   UNL     1      -4.756  -0.700   0.526  0.00  0.00    -0.025 A 
ATOM     15  C   UNL     1      -4.895   0.548   1.144  0.00  0.00    +0.008 A 
ATOM     16  C   UNL     1      -6.153   1.060   1.379  0.00  0.00    +0.001 A 
ATOM     17  C   UNL     1      -7.277   0.338   1.017  0.00  0.00    +0.000 A 
ATOM     18  C   UNL     1      -7.148  -0.899   0.411  0.00  0.00    +0.001 A 
ATOM     19  C   UNL     1      -5.897  -1.423   0.163  0.00  0.00    +0.008 A 
ENDBRANCH  13  14
ENDBRANCH   3  12
ENDBRANCH   2   7
ENDBRANCH   1   2
BRANCH   1  20
ATOM     20  C   UNL     1       5.205   0.062  -3.155  0.00  0.00    +0.099 C 
BRANCH  20  21
ATOM     21  C   UNL     1       5.374  -0.028  -4.650  0.00  0.00    +0.229 C 
ATOM     22  O   UNL     1       4.411   0.095  -5.377  0.00  0.00    -0.274 OA
ATOM     23  N   UNL     1       6.594  -0.244  -5.179  0.00  0.00    -0.234 N 
ATOM     24  H   UNL     1       7.364  -0.343  -4.597  0.00  0.00    +0.173 HD
BRANCH  23  25
ATOM     25  N   UNL     1       6.750  -0.328  -6.568  0.00  0.00    -0.230 N 
ATOM     26  C   UNL     1       7.971  -0.545  -7.097  0.00  0.00    +0.260 C 
ATOM     27  O   UNL     1       8.936  -0.668  -6.369  0.00  0.00    -0.269 OA
ATOM     28  H   UNL     1       5.980  -0.231  -7.150  0.00  0.00    +0.173 HD
BRANCH  26  29
ATOM     29  C   UNL     1       8.136  -0.634  -8.564  0.00  0.00    +0.038 A 
ATOM     30  C   UNL     1       7.029  -0.499  -9.403  0.00  0.00    +0.015 A 
ATOM     31  C   UNL     1       7.191  -0.578 -10.771  0.00  0.00    +0.033 A 
ATOM     32  C   UNL     1       8.445  -0.801 -11.311  0.00  0.00    +0.126 A 
ATOM     33  C   UNL     1       9.546  -0.940 -10.484  0.00  0.00    +0.033 A 
ATOM     34  C   UNL     1       9.399  -0.858  -9.115  0.00  0.00    +0.015 A 
BRANCH  32  35
ATOM     35  N   UNL     1       8.610  -0.890 -12.779  0.00  0.00    +0.056 N 
ATOM     36  O   UNL     1       9.713  -1.086 -13.257  0.00  0.00    -0.126 OA
ATOM     37  O   UNL     1       7.643  -0.768 -13.509  0.00  0.00    -0.126 OA
ENDBRANCH  32  35
ENDBRANCH  26  29
ENDBRANCH  23  25
ENDBRANCH  20  21
ENDBRANCH   1  20
TORSDOF 9
