REMARK  Name = ZINC36304428
REMARK  16 active torsions:
REMARK  status: ('A' for Active; 'I' for Inactive)
REMARK    1  A    between atoms: C_1  and  C_2
REMARK    2  A    between atoms: C_2  and  C_3
REMARK    3  A    between atoms: C_3  and  C_4
REMARK    4  A    between atoms: C_4  and  C_6
REMARK    5  A    between atoms: C_4  and  O_37
REMARK    6  A    between atoms: C_6  and  N_7
REMARK    7  A    between atoms: N_7  and  C_8
REMARK    8  A    between atoms: N_7  and  C_15
REMARK    9  A    between atoms: C_8  and  C_9
REMARK   10  A    between atoms: C_15  and  C_16
REMARK   11  A    between atoms: C_17  and  C_36
REMARK   12  A    between atoms: N_19  and  C_30
REMARK   13  A    between atoms: C_20  and  O_21
REMARK   14  A    between atoms: O_21  and  C_22
REMARK   15  A    between atoms: C_27  and  O_28
REMARK   16  A    between atoms: O_28  and  C_29
REMARK                            x       y       z     vdW  Elec       q    Type
REMARK                         _______ _______ _______ _____ _____    ______ ____
ROOT
ATOM      1  C   UNL     1      -4.286  -6.344  -1.042  0.00  0.00    +0.021 A 
ATOM      2  C   UNL     1      -3.867  -6.613  -2.348  0.00  0.00    +0.065 A 
ATOM      3  N   UNL     1      -3.626  -7.895  -2.451  0.00  0.00    -0.168 NA
ATOM      4  N   UNL     1      -3.884  -8.493  -1.211  0.00  0.00    -0.200 N 
ATOM      5  C   UNL     1      -4.285  -7.517  -0.353  0.00  0.00    +0.225 A 
ATOM      6  C   UNL     1      -3.717  -5.597  -3.452  0.00  0.00    +0.068 C 
ENDROOT
BRANCH   4   7
ATOM      7  C   UNL     1      -3.747  -9.855  -0.907  0.00  0.00    +0.069 A 
ATOM      8  C   UNL     1      -3.140 -10.245   0.279  0.00  0.00    +0.028 A 
ATOM      9  C   UNL     1      -3.007 -11.587   0.576  0.00  0.00    +0.002 A 
ATOM     10  C   UNL     1      -3.477 -12.542  -0.307  0.00  0.00    +0.000 A 
ATOM     11  C   UNL     1      -4.082 -12.157  -1.489  0.00  0.00    +0.002 A 
ATOM     12  C   UNL     1      -4.224 -10.816  -1.788  0.00  0.00    +0.028 A 
ENDBRANCH   4   7
BRANCH   1  13
ATOM     13  C   UNL     1      -4.667  -4.993  -0.492  0.00  0.00    -0.035 C 
BRANCH  13  14
ATOM     14  N   UNL     1      -3.474  -4.335   0.057  0.00  0.00    +0.387 N 
ATOM     15  H   UNL     1      -3.040  -4.939   0.739  0.00  0.00    -0.081 HD
BRANCH  14  16
ATOM     16  C   UNL     1      -3.864  -3.073   0.700  0.00  0.00    -0.046 C 
BRANCH  16  17
ATOM     17  C   UNL     1      -2.740  -2.603   1.625  0.00  0.00    +0.098 C 
BRANCH  17  18
ATOM     18  O   UNL     1      -2.448  -3.628   2.578  0.00  0.00    -0.394 OA
ATOM     19  H   UNL     1      -3.198  -3.868   3.139  0.00  0.00    +0.210 HD
ENDBRANCH  17  18
BRANCH  17  20
ATOM     20  C   UNL     1      -3.180  -1.335   2.359  0.00  0.00    +0.029 C 
BRANCH  20  22
ATOM     21  C   UNL     1      -2.454   0.473   3.924  0.00  0.00    +0.004 C 
ATOM     22  C   UNL     1      -2.014  -0.795   3.190  0.00  0.00    -0.001 C 
ENDBRANCH  20  22
ENDBRANCH  17  20
ENDBRANCH  16  17
ENDBRANCH  14  16
BRANCH  14  23
ATOM     23  C   UNL     1      -2.523  -4.059  -1.028  0.00  0.00    -0.042 C 
BRANCH  23  24
ATOM     24  C   UNL     1      -1.227  -3.558  -0.444  0.00  0.00    -0.064 A 
ATOM     25  C   UNL     1      -0.773  -2.290  -0.756  0.00  0.00    +0.002 A 
ATOM     26  C   UNL     1       0.415  -1.830  -0.221  0.00  0.00    +0.000 A 
ATOM     27  C   UNL     1       1.151  -2.639   0.626  0.00  0.00    +0.000 A 
ATOM     28  C   UNL     1       0.697  -3.907   0.938  0.00  0.00    +0.000 A 
ATOM     29  C   UNL     1      -0.494  -4.365   0.406  0.00  0.00    +0.002 A 
ENDBRANCH  23  24
ENDBRANCH  14  23
ENDBRANCH  13  14
ENDBRANCH   1  13
BRANCH   5  30
ATOM     30  O   UNL     1      -4.625  -7.683   0.950  0.00  0.00    -0.434 OA
BRANCH  30  31
ATOM     31  C   UNL     1      -5.904  -8.043   1.235  0.00  0.00    +0.172 A 
ATOM     32  C   UNL     1      -6.790  -8.331   0.209  0.00  0.00    +0.050 A 
ATOM     33  C   UNL     1      -8.091  -8.697   0.500  0.00  0.00    +0.004 A 
ATOM     34  C   UNL     1      -8.511  -8.778   1.815  0.00  0.00    +0.004 A 
ATOM     35  C   UNL     1      -7.633  -8.492   2.844  0.00  0.00    +0.049 A 
ATOM     36  C   UNL     1      -6.326  -8.129   2.559  0.00  0.00    +0.162 A 
BRANCH  36  37
ATOM     37  O   UNL     1      -5.460  -7.853   3.570  0.00  0.00    -0.491 OA
ATOM     38  C   UNL     1      -5.962  -7.963   4.903  0.00  0.00    +0.277 C 
ENDBRANCH  36  37
ENDBRANCH  30  31
ENDBRANCH   5  30
TORSDOF 13
