REMARK  Name = ZINC39777004
REMARK  8 active torsions:
REMARK  status: ('A' for Active; 'I' for Inactive)
REMARK    1  A    between atoms: C_1  and  C_2
REMARK    2  A    between atoms: C_2  and  O_3
REMARK    3  A    between atoms: O_3  and  C_4
REMARK    4  A    between atoms: C_4  and  C_6
REMARK    5  A    between atoms: N_9  and  C_12
REMARK    6  A    between atoms: C_12  and  N_13
REMARK    7  A    between atoms: N_16  and  C_29
REMARK    8  A    between atoms: C_17  and  C_20
REMARK                            x       y       z     vdW  Elec       q    Type
REMARK                         _______ _______ _______ _____ _____    ______ ____
ROOT
ATOM      1  N   UNL     1       1.801  -6.073   5.912  0.00  0.00    -0.263 N 
ATOM      2  C   UNL     1       0.846  -6.579   6.703  0.00  0.00    +0.154 C 
ATOM      3  S   UNL     1      -0.176  -5.635   7.701  0.00  0.00    -0.017 S 
ATOM      4  N   UNL     1       0.787  -7.920   6.616  0.00  0.00    -0.260 N 
ATOM      5  C   UNL     1       1.825  -8.332   5.657  0.00  0.00    +0.198 C 
ATOM      6  N   UNL     1       2.450  -7.063   5.231  0.00  0.00    -0.215 NA
ATOM      7  H   UNL     1       2.363  -6.933   4.234  0.00  0.00    +0.147 HD
ENDROOT
BRANCH   5   8
ATOM      8  C   UNL     1       2.837  -9.226   6.327  0.00  0.00    +0.014 A 
ATOM      9  C   UNL     1       4.230  -9.423   5.921  0.00  0.00    +0.006 A 
ATOM     10  C   UNL     1       5.022  -8.911   4.891  0.00  0.00    +0.010 A 
ATOM     11  C   UNL     1       6.327  -9.304   4.780  0.00  0.00    +0.001 A 
ATOM     12  C   UNL     1       6.870 -10.208   5.682  0.00  0.00    +0.002 A 
ATOM     13  C   UNL     1       6.106 -10.725   6.705  0.00  0.00    +0.026 A 
ATOM     14  C   UNL     1       4.777 -10.339   6.838  0.00  0.00    +0.047 A 
ATOM     15  N   UNL     1       3.779 -10.666   7.729  0.00  0.00    -0.360 N 
ATOM     16  C   UNL     1       2.633  -9.989   7.412  0.00  0.00    +0.090 A 
ATOM     17  H   UNL     1       3.876 -11.281   8.473  0.00  0.00    +0.165 HD
ENDBRANCH   5   8
BRANCH   4  18
ATOM     18  C   UNL     1      -0.092  -8.763   7.305  0.00  0.00    +0.037 A 
ATOM     19  C   UNL     1      -0.140  -8.734   8.692  0.00  0.00    +0.025 A 
ATOM     20  C   UNL     1      -1.009  -9.566   9.370  0.00  0.00    +0.022 A 
ATOM     21  C   UNL     1      -1.832 -10.429   8.667  0.00  0.00    +0.041 A 
ATOM     22  C   UNL     1      -1.787 -10.460   7.285  0.00  0.00    +0.022 A 
ATOM     23  C   UNL     1      -0.923  -9.626   6.602  0.00  0.00    +0.025 A 
ATOM     24 CL   UNL     1      -2.923 -11.474   9.522  0.00  0.00    -0.084 Cl
ENDBRANCH   4  18
BRANCH   1  25
ATOM     25  C   UNL     1       2.107  -4.646   5.790  0.00  0.00    +0.051 C 
BRANCH  25  29
ATOM     26  C   UNL     1       0.021  -2.327   2.886  0.00  0.00    +0.094 C 
ATOM     27  C   UNL     1      -0.417  -3.770   3.154  0.00  0.00    -0.004 C 
ATOM     28  C   UNL     1       0.123  -4.217   4.514  0.00  0.00    -0.076 C 
ATOM     29  N   UNL     1       1.589  -4.142   4.511  0.00  0.00    +0.391 N 
ATOM     30  C   UNL     1       2.016  -2.750   4.326  0.00  0.00    -0.076 C 
ATOM     31  C   UNL     1       1.549  -2.246   2.958  0.00  0.00    -0.004 C 
ATOM     32  H   UNL     1       1.952  -4.707   3.757  0.00  0.00    -0.079 HD
BRANCH  26  33
ATOM     33  C   UNL     1      -0.441  -1.906   1.515  0.00  0.00    +0.310 C 
ATOM     34  O   UNL     1       0.367  -1.575   0.680  0.00  0.00    -0.251 OA
BRANCH  33  35
ATOM     35  O   UNL     1      -1.751  -1.899   1.221  0.00  0.00    -0.465 OA
BRANCH  35  37
ATOM     36  C   UNL     1      -3.640  -1.545  -0.244  0.00  0.00    +0.048 C 
ATOM     37  C   UNL     1      -2.118  -1.489  -0.098  0.00  0.00    +0.229 C 
ENDBRANCH  35  37
ENDBRANCH  33  35
ENDBRANCH  26  33
ENDBRANCH  25  29
ENDBRANCH   1  25
TORSDOF 7
