REMARK  Name = ZINC44886859
REMARK  5 active torsions:
REMARK  status: ('A' for Active; 'I' for Inactive)
REMARK    1  A    between atoms: C_1  and  C_2
REMARK    2  A    between atoms: C_2  and  N_9
REMARK    3  A    between atoms: N_9  and  S_10
REMARK    4  A    between atoms: S_10  and  C_13
REMARK    5  A    between atoms: C_15  and  N_21
REMARK                            x       y       z     vdW  Elec       q    Type
REMARK                         _______ _______ _______ _____ _____    ______ ____
ROOT
ATOM      1  S   UNL     1       0.041   0.072  -2.701  0.00  0.00    +0.062 S 
ATOM      2  O   UNL     1       0.025   1.478  -2.497  0.00  0.00    -0.153 OA
ATOM      3  O   UNL     1       0.717  -0.531  -3.796  0.00  0.00    -0.153 OA
ENDROOT
BRANCH   1   4
ATOM      4  C   UNL     1      -1.642  -0.440  -2.805  0.00  0.00    +0.143 A 
ATOM      5  C   UNL     1      -2.654   0.498  -2.741  0.00  0.00    +0.054 A 
ATOM      6  C   UNL     1      -3.980   0.094  -2.824  0.00  0.00    +0.028 A 
ATOM      7  C   UNL     1      -4.287  -1.252  -2.970  0.00  0.00    +0.045 A 
ATOM      8  C   UNL     1      -3.271  -2.188  -3.033  0.00  0.00    +0.080 A 
ATOM      9  C   UNL     1      -1.948  -1.782  -2.956  0.00  0.00    +0.168 A 
ATOM     10  F   UNL     1      -0.957  -2.697  -3.023  0.00  0.00    -0.202 F 
ATOM     11 CL   UNL     1      -3.653  -3.872  -3.216  0.00  0.00    -0.080 Cl
BRANCH   6  12
ATOM     12  N   UNL     1      -5.006   1.042  -2.759  0.00  0.00    -0.358 N 
ATOM     13  H   UNL     1      -4.791   1.983  -2.656  0.00  0.00    +0.142 HD
ATOM     14  H   UNL     1      -5.932   0.760  -2.816  0.00  0.00    +0.142 HD
ENDBRANCH   6  12
ENDBRANCH   1   4
BRANCH   1  15
ATOM     15  N   UNL     1       0.673  -0.599  -1.326  0.00  0.00    -0.182 NA
ATOM     16  H   UNL     1       1.350  -1.291  -1.390  0.00  0.00    +0.149 HD
BRANCH  15  18
ATOM     17  C   UNL     1       0.293   1.379   0.039  0.00  0.00    +0.031 C 
ATOM     18  C   UNL     1       0.210  -0.148  -0.011  0.00  0.00    +0.058 C 
ATOM     19  C   UNL     1      -1.250  -0.565   0.160  0.00  0.00    +0.047 C 
ATOM     20  C   UNL     1      -1.335  -1.975   0.809  0.00  0.00    +0.168 C 
ATOM     21  S   UNL     1       0.035  -1.831   2.039  0.00  0.00    -0.029 S 
ATOM     22  O   UNL     1      -0.435  -1.131   3.182  0.00  0.00    -0.174 OA
ATOM     23  O   UNL     1       0.656  -3.099   2.197  0.00  0.00    -0.174 OA
ATOM     24  C   UNL     1       1.145  -0.729   1.068  0.00  0.00    +0.189 C 
ENDBRANCH  15  18
ENDBRANCH   1  15
TORSDOF 4
