REMARK  Name = ZINC08740361
REMARK  7 active torsions:
REMARK  status: ('A' for Active; 'I' for Inactive)
REMARK    1  A    between atoms: C_1  and  C_2
REMARK    2  A    between atoms: N_7  and  C_8
REMARK    3  A    between atoms: C_12  and  O_14
REMARK    4  A    between atoms: O_14  and  C_15
REMARK    5  A    between atoms: C_16  and  C_17
REMARK    6  A    between atoms: C_16  and  N_71
REMARK    7  A    between atoms: C_24  and  C_37
REMARK                            x       y       z     vdW  Elec       q    Type
REMARK                         _______ _______ _______ _____ _____    ______ ____
ROOT
ATOM      1  C   UNL     1      -1.612   3.495   9.699  0.00  0.00    -0.064 C 
ENDROOT
BRANCH   1   2
ATOM      2  C   UNL     1      -1.582   5.019   9.822  0.00  0.00    +0.088 C 
ATOM      3  C   UNL     1      -2.366   5.480  11.088  0.00  0.00    +0.042 C 
ATOM      4  C   UNL     1      -1.667   6.739  11.598  0.00  0.00    +0.014 C 
ATOM      5  C   UNL     1      -2.587   7.534  12.521  0.00  0.00    +0.030 C 
ATOM      6  C   UNL     1      -3.804   7.992  11.706  0.00  0.00    -0.023 C 
ATOM      7  C   UNL     1      -4.694   8.878  12.578  0.00  0.00    +0.007 C 
ATOM      8  C   UNL     1      -3.932  10.140  12.984  0.00  0.00    +0.003 C 
ATOM      9  C   UNL     1      -2.721   9.753  13.838  0.00  0.00    +0.037 C 
ATOM     10  C   UNL     1      -1.853   8.767  13.051  0.00  0.00    +0.096 C 
ATOM     11  C   UNL     1      -0.393   8.608  13.470  0.00  0.00    +0.196 C 
ATOM     12  O   UNL     1      -0.778   9.294  12.276  0.00  0.00    -0.368 OA
ATOM     13  C   UNL     1      -4.578   6.745  11.276  0.00  0.00    +0.052 C 
ATOM     14  C   UNL     1      -3.723   5.828  10.437  0.00  0.00    +0.181 C 
ATOM     15  O   UNL     1      -3.346   6.405   9.154  0.00  0.00    -0.461 OA
ATOM     16  C   UNL     1      -2.328   5.660   8.667  0.00  0.00    +0.309 C 
ATOM     17  O   UNL     1      -2.056   5.527   7.497  0.00  0.00    -0.251 OA
ATOM     18  C   UNL     1      -3.355   8.772  10.469  0.00  0.00    +0.011 C 
ENDBRANCH   1   2
BRANCH   1  25
ATOM     19  C   UNL     1       2.804   2.878   7.617  0.00  0.00    +0.026 C 
ATOM     20  C   UNL     1       1.291   2.823   7.395  0.00  0.00    +0.054 C 
ATOM     21  C   UNL     1       0.570   3.179   8.697  0.00  0.00    -0.056 C 
ATOM     22  C   UNL     1      -1.267   1.731   8.075  0.00  0.00    -0.060 C 
ATOM     23  C   UNL     1      -0.546   1.376   6.773  0.00  0.00    +0.087 C 
ATOM     24  N   UNL     1       0.906   1.468   6.979  0.00  0.00    -0.331 N 
ATOM     25  N   UNL     1      -0.888   3.104   8.470  0.00  0.00    +0.382 N 
ATOM     26  H   UNL     1      -1.142   3.751   7.714  0.00  0.00    -0.082 HD
BRANCH  24  27
ATOM     27  C   UNL     1       1.600   1.080   5.830  0.00  0.00    +0.033 A 
ATOM     28  C   UNL     1       1.398   1.757   4.634  0.00  0.00    +0.023 A 
ATOM     29  C   UNL     1       2.084   1.373   3.498  0.00  0.00    +0.005 A 
ATOM     30  C   UNL     1       2.977   0.319   3.550  0.00  0.00    +0.046 A 
ATOM     31  C   UNL     1       3.178  -0.364   4.741  0.00  0.00    +0.122 A 
ATOM     32  C   UNL     1       2.492   0.018   5.883  0.00  0.00    +0.068 A 
BRANCH  31  33
ATOM     33  O   UNL     1       4.053  -1.403   4.789  0.00  0.00    -0.495 OA
ATOM     34  C   UNL     1       4.725  -1.742   3.574  0.00  0.00    +0.277 C 
ENDBRANCH  31  33
ENDBRANCH  24  27
ENDBRANCH   1  25
TORSDOF 4
