REMARK  Name = ZINC46816230
REMARK  10 active torsions:
REMARK  status: ('A' for Active; 'I' for Inactive)
REMARK    1  A    between atoms: C_1  and  C_2
REMARK    2  A    between atoms: C_2  and  C_3
REMARK    3  A    between atoms: C_4  and  C_16
REMARK    4  A    between atoms: C_11  and  O_14
REMARK    5  A    between atoms: O_14  and  C_15
REMARK    6  A    between atoms: N_18  and  C_19
REMARK    7  A    between atoms: C_19  and  C_20
REMARK    8  A    between atoms: C_23  and  C_26
REMARK    9  A    between atoms: C_26  and  N_27
REMARK   10  A    between atoms: C_31  and  C_34
REMARK                            x       y       z     vdW  Elec       q    Type
REMARK                         _______ _______ _______ _____ _____    ______ ____
ROOT
ATOM      1  C   UNL     1      -1.748  -0.660   2.535  0.00  0.00    +0.248 C 
ATOM      2  O   UNL     1      -0.632  -0.251   2.795  0.00  0.00    -0.270 OA
ATOM      3  N   UNL     1      -2.598  -0.977   3.532  0.00  0.00    -0.307 N 
ATOM      4  H   UNL     1      -3.487  -1.303   3.325  0.00  0.00    +0.149 HD
ENDROOT
BRANCH   1   6
ATOM      5  C   UNL     1      -1.412  -0.526   0.013  0.00  0.00    +0.059 A 
ATOM      6  C   UNL     1      -2.170  -0.809   1.131  0.00  0.00    +0.078 A 
ATOM      7  C   UNL     1      -3.427  -1.270   0.677  0.00  0.00    +0.148 A 
ATOM      8  N   UNL     1      -3.415  -1.261  -0.627  0.00  0.00    -0.172 NA
ATOM      9  N   UNL     1      -2.170  -0.795  -1.066  0.00  0.00    -0.216 N 
ATOM     10  C   UNL     1      -1.779  -0.639  -2.401  0.00  0.00    +0.176 A 
ATOM     11  C   UNL     1      -2.391  -1.393  -3.401  0.00  0.00    +0.055 A 
ATOM     12  C   UNL     1      -1.970  -1.203  -4.707  0.00  0.00    +0.072 A 
ATOM     13  C   UNL     1      -0.961  -0.270  -4.939  0.00  0.00    +0.234 A 
ATOM     14  N   UNL     1      -0.438   0.400  -3.926  0.00  0.00    -0.110 NA
ATOM     15  N   UNL     1      -0.832   0.229  -2.717  0.00  0.00    -0.126 NA
BRANCH   5  17
ATOM     16  C   UNL     1      -0.019   1.526   0.010  0.00  0.00    +0.010 C 
ATOM     17  C   UNL     1       0.002  -0.004   0.002  0.00  0.00    +0.053 C 
ENDBRANCH   5  17
BRANCH  13  18
ATOM     18  O   UNL     1      -0.516  -0.051  -6.202  0.00  0.00    -0.479 OA
ATOM     19  C   UNL     1       0.520   0.920  -6.365  0.00  0.00    +0.279 C 
ENDBRANCH  13  18
ENDBRANCH   1   6
BRANCH   3  20
ATOM     20  C   UNL     1      -2.178  -0.828   4.928  0.00  0.00    +0.139 C 
BRANCH  20  21
ATOM     21  C   UNL     1      -3.304  -1.246   5.838  0.00  0.00    -0.030 A 
ATOM     22  C   UNL     1      -4.237  -0.316   6.255  0.00  0.00    +0.005 A 
ATOM     23  C   UNL     1      -5.270  -0.699   7.090  0.00  0.00    +0.002 A 
ATOM     24  C   UNL     1      -5.370  -2.014   7.507  0.00  0.00    -0.064 A 
ATOM     25  C   UNL     1      -4.438  -2.944   7.089  0.00  0.00    +0.002 A 
ATOM     26  C   UNL     1      -3.407  -2.562   6.251  0.00  0.00    +0.005 A 
BRANCH  24  27
ATOM     27  C   UNL     1      -6.495  -2.432   8.418  0.00  0.00    -0.043 C 
BRANCH  27  28
ATOM     28  N   UNL     1      -7.646  -2.858   7.611  0.00  0.00    +0.383 N 
ATOM     29  C   UNL     1      -7.288  -4.058   6.847  0.00  0.00    -0.078 C 
ATOM     30  C   UNL     1      -8.456  -4.459   5.943  0.00  0.00    -0.018 C 
ATOM     31  C   UNL     1      -9.686  -4.751   6.807  0.00  0.00    -0.001 C 
ATOM     32  C   UNL     1     -10.006  -3.516   7.655  0.00  0.00    -0.031 C 
ATOM     33  C   UNL     1      -8.781  -3.150   8.495  0.00  0.00    -0.075 C 
ATOM     34  C   UNL     1     -11.187  -3.823   8.579  0.00  0.00    +0.005 C 
ATOM     35  H   UNL     1      -7.901  -2.118   6.973  0.00  0.00    -0.081 HD
ENDBRANCH  27  28
ENDBRANCH  24  27
ENDBRANCH  20  21
ENDBRANCH   3  20
TORSDOF 7
