REMARK  Name = ZINC31166937
REMARK  8 active torsions:
REMARK  status: ('A' for Active; 'I' for Inactive)
REMARK    1  A    between atoms: C_1  and  C_2
REMARK    2  A    between atoms: C_10  and  O_25
REMARK    3  A    between atoms: C_11  and  O_24
REMARK    4  A    between atoms: C_12  and  C_13
REMARK    5  A    between atoms: C_13  and  C_15
REMARK    6  A    between atoms: C_19  and  O_23
REMARK    7  A    between atoms: C_20  and  C_21
REMARK    8  A    between atoms: C_26  and  O_28
REMARK                            x       y       z     vdW  Elec       q    Type
REMARK                         _______ _______ _______ _____ _____    ______ ____
ROOT
ATOM      1  C   UNL     1       0.017   1.005   0.101  0.00  0.00    +0.011 C 
ATOM      2  C   UNL     1      -0.707   1.519   1.348  0.00  0.00    +0.026 C 
ATOM      3  C   UNL     1      -0.724   3.053   1.334  0.00  0.00    +0.085 C 
ATOM      4  C   UNL     1      -1.531   3.506   2.533  0.00  0.00    +0.165 C 
ATOM      5  O   UNL     1      -2.329   4.415   2.445  0.00  0.00    -0.292 OA
ATOM      6  C   UNL     1      -1.312   2.805   3.811  0.00  0.00    +0.038 A 
ATOM      7  C   UNL     1      -0.578   1.623   3.844  0.00  0.00    -0.004 A 
ATOM      8  C   UNL     1      -0.392   0.968   5.052  0.00  0.00    +0.056 A 
ATOM      9  C   UNL     1      -0.925   1.479   6.224  0.00  0.00    +0.159 A 
ATOM     10  C   UNL     1      -1.660   2.667   6.209  0.00  0.00    +0.170 A 
ATOM     11  C   UNL     1      -1.857   3.338   5.001  0.00  0.00    +0.078 A 
ATOM     12  C   UNL     1       0.022   1.032   2.597  0.00  0.00    +0.149 C 
ENDROOT
BRANCH  11  13
ATOM     13  C   UNL     1      -2.630   4.594   4.967  0.00  0.00    +0.198 C 
ATOM     14  O   UNL     1      -3.842   4.560   4.880  0.00  0.00    -0.286 OA
BRANCH  13  15
ATOM     15  C   UNL     1      -1.930   5.894   5.039  0.00  0.00    +0.036 A 
ATOM     16  C   UNL     1      -0.540   5.942   5.020  0.00  0.00    +0.012 A 
ATOM     17  C   UNL     1       0.115   7.160   5.082  0.00  0.00    +0.004 A 
ATOM     18  C   UNL     1      -0.599   8.338   5.174  0.00  0.00    +0.046 A 
ATOM     19  C   UNL     1      -1.989   8.317   5.200  0.00  0.00    +0.128 A 
ATOM     20  C   UNL     1      -2.668   7.094   5.132  0.00  0.00    +0.066 A 
BRANCH  20  21
ATOM     21  C   UNL     1      -4.136   7.059   5.160  0.00  0.00    +0.263 C 
ATOM     22  O   UNL     1      -4.763   8.082   5.340  0.00  0.00    -0.296 OA
ENDBRANCH  20  21
BRANCH  19  23
ATOM     23  O   UNL     1      -2.685   9.477   5.290  0.00  0.00    -0.506 OA
ATOM     24  H   UNL     1      -3.785   9.459   5.310  0.00  0.00    +0.292 HD
ENDBRANCH  19  23
ENDBRANCH  13  15
ENDBRANCH  11  13
BRANCH  10  25
ATOM     25  O   UNL     1      -2.178   3.164   7.360  0.00  0.00    -0.503 OA
ATOM     26  H   UNL     1      -2.756   4.100   7.343  0.00  0.00    +0.292 HD
ENDBRANCH  10  25
BRANCH   9  27
ATOM     27  O   UNL     1      -0.731   0.821   7.396  0.00  0.00    -0.503 OA
ATOM     28  H   UNL     1      -1.152   1.223   8.329  0.00  0.00    +0.292 HD
ENDBRANCH   9  27
BRANCH  12  29
ATOM     29  O   UNL     1      -0.064  -0.392   2.665  0.00  0.00    -0.387 OA
ATOM     30  H   UNL     1       0.404  -0.933   3.501  0.00  0.00    +0.210 HD
ENDBRANCH  12  29
TORSDOF 7
