REMARK  Name = ZINC33315062
REMARK  7 active torsions:
REMARK  status: ('A' for Active; 'I' for Inactive)
REMARK    1  A    between atoms: C_1  and  C_2
REMARK    2  A    between atoms: C_2  and  O_3
REMARK    3  A    between atoms: O_3  and  C_4
REMARK    4  A    between atoms: C_4  and  C_6
REMARK    5  A    between atoms: C_6  and  C_7
REMARK    6  A    between atoms: C_7  and  N_8
REMARK    7  A    between atoms: C_24  and  C_26
REMARK                            x       y       z     vdW  Elec       q    Type
REMARK                         _______ _______ _______ _____ _____    ______ ____
ROOT
ATOM      1  N   UNL     1       3.902   7.178  -1.550  0.00  0.00    -0.299 N 
ATOM      2  C   UNL     1       2.701   6.940  -0.987  0.00  0.00    +0.303 C 
ATOM      3  O   UNL     1       1.768   7.690  -1.203  0.00  0.00    -0.253 OA
ATOM      4  N   UNL     1       2.534   5.871  -0.184  0.00  0.00    -0.273 N 
ATOM      5  C   UNL     1       1.264   5.652   0.525  0.00  0.00    +0.115 C 
ATOM      6  C   UNL     1       0.619   4.360   0.006  0.00  0.00    +0.056 C 
ATOM      7  C   UNL     1       1.676   3.290  -0.082  0.00  0.00    -0.015 A 
ATOM      8  C   UNL     1       1.479   1.846  -0.176  0.00  0.00    +0.003 A 
ATOM      9  C   UNL     1       0.357   1.015  -0.214  0.00  0.00    +0.010 A 
ATOM     10  C   UNL     1       0.517  -0.339  -0.311  0.00  0.00    +0.001 A 
ATOM     11  C   UNL     1       1.786  -0.897  -0.372  0.00  0.00    +0.002 A 
ATOM     12  C   UNL     1       2.907  -0.097  -0.336  0.00  0.00    +0.026 A 
ATOM     13  C   UNL     1       2.769   1.284  -0.238  0.00  0.00    +0.047 A 
ATOM     14  N   UNL     1       3.671   2.324  -0.181  0.00  0.00    -0.356 N 
ATOM     15  H   UNL     1       4.751   2.118  -0.214  0.00  0.00    +0.166 HD
ATOM     16  C   UNL     1       3.004   3.512  -0.087  0.00  0.00    +0.046 A 
ATOM     17  C   UNL     1       3.618   4.892   0.005  0.00  0.00    +0.157 C 
ATOM     18  H   UNL     1       4.722   6.457  -1.423  0.00  0.00    +0.150 HD
ENDROOT
BRANCH  17  19
ATOM     19  C   UNL     1       4.249   5.082   1.361  0.00  0.00    +0.014 A 
ATOM     20  C   UNL     1       3.918   4.236   2.402  0.00  0.00    +0.008 A 
ATOM     21  C   UNL     1       4.501   4.407   3.644  0.00  0.00    +0.001 A 
ATOM     22  C   UNL     1       5.406   5.432   3.849  0.00  0.00    +0.003 A 
ATOM     23  C   UNL     1       5.733   6.283   2.811  0.00  0.00    +0.039 A 
ATOM     24  C   UNL     1       5.155   6.109   1.565  0.00  0.00    +0.129 A 
ATOM     25  F   UNL     1       5.474   6.941   0.550  0.00  0.00    -0.205 F 
ENDBRANCH  17  19
BRANCH   1  26
ATOM     26  C   UNL     1       4.115   8.399  -2.333  0.00  0.00    +0.117 C 
BRANCH  26  27
ATOM     27  C   UNL     1       5.552   8.424  -2.857  0.00  0.00    +0.139 C 
BRANCH  27  28
ATOM     28  C   UNL     1       5.771   9.680  -3.661  0.00  0.00    +0.309 C 
ATOM     29  O   UNL     1       4.870  10.472  -3.801  0.00  0.00    -0.251 OA
BRANCH  28  30
ATOM     30  O   UNL     1       6.967   9.917  -4.222  0.00  0.00    -0.465 OA
BRANCH  30  32
ATOM     31  C   UNL     1       8.527  11.241  -5.542  0.00  0.00    +0.048 C 
ATOM     32  C   UNL     1       7.106  11.146  -4.983  0.00  0.00    +0.229 C 
ENDBRANCH  30  32
ENDBRANCH  28  30
ENDBRANCH  27  28
ENDBRANCH  26  27
ENDBRANCH   1  26
TORSDOF 6
