REMARK  Name = ZINC24884654
REMARK  10 active torsions:
REMARK  status: ('A' for Active; 'I' for Inactive)
REMARK    1  A    between atoms: C_1  and  S_2
REMARK    2  A    between atoms: S_2  and  C_5
REMARK    3  A    between atoms: C_9  and  S_11
REMARK    4  A    between atoms: S_11  and  N_14
REMARK    5  A    between atoms: N_14  and  C_15
REMARK    6  A    between atoms: N_14  and  C_21
REMARK    7  A    between atoms: C_15  and  C_16
REMARK    8  A    between atoms: N_24  and  C_27
REMARK    9  A    between atoms: C_27  and  C_28
REMARK   10  A    between atoms: C_28  and  C_29
REMARK                            x       y       z     vdW  Elec       q    Type
REMARK                         _______ _______ _______ _____ _____    ______ ____
ROOT
ATOM      1  N   UNL     1       7.966  -1.628  -1.818  0.00  0.00    -0.166 NA
ENDROOT
BRANCH   1   2
ATOM      2  C   UNL     1       6.537  -1.307  -1.861  0.00  0.00    +0.077 C 
ATOM      3  C   UNL     1       6.301  -0.154  -2.840  0.00  0.00    +0.002 C 
ATOM      4  C   UNL     1       4.817   0.218  -2.834  0.00  0.00    -0.077 C 
ATOM      5  N   UNL     1       4.414   0.612  -1.478  0.00  0.00    +0.380 N 
ATOM      6  C   UNL     1       4.588  -0.495  -0.530  0.00  0.00    -0.077 C 
ATOM      7  C   UNL     1       6.065  -0.888  -0.466  0.00  0.00    +0.002 C 
ATOM      8  H   UNL     1       5.073   1.433  -1.159  0.00  0.00    -0.082 HD
BRANCH   5   9
ATOM      9  C   UNL     1       3.031   1.107  -1.463  0.00  0.00    -0.074 C 
BRANCH   9  10
ATOM     10  C   UNL     1       2.565   1.272  -0.015  0.00  0.00    +0.024 C 
BRANCH  10  11
ATOM     11  C   UNL     1       1.146   1.780   0.001  0.00  0.00    -0.012 A 
ATOM     12  C   UNL     1      -0.013   1.076   0.008  0.00  0.00    +0.011 A 
ATOM     13  C   UNL     1      -1.213   1.761   0.017  0.00  0.00    +0.008 A 
ATOM     14  C   UNL     1      -1.196   3.116   0.030  0.00  0.00    +0.045 A 
ATOM     15  S   UNL     1       0.555   3.464   0.015  0.00  0.00    -0.102 S 
ENDBRANCH  10  11
ENDBRANCH   9  10
ENDBRANCH   5   9
ENDBRANCH   1   2
BRANCH   1  16
ATOM     16  S   UNL     1       8.488  -3.143  -2.239  0.00  0.00    +0.062 S 
ATOM     17  O   UNL     1       9.739  -3.335  -1.594  0.00  0.00    -0.153 OA
ATOM     18  O   UNL     1       7.387  -4.020  -2.043  0.00  0.00    -0.153 OA
BRANCH  16  23
ATOM     19  C   UNL     1       8.062  -3.422  -6.224  0.00  0.00    +0.090 A 
ATOM     20  C   UNL     1       9.321  -3.085  -6.688  0.00  0.00    +0.027 A 
ATOM     21  C   UNL     1      10.324  -2.764  -5.793  0.00  0.00    +0.004 A 
ATOM     22  C   UNL     1      10.069  -2.782  -4.434  0.00  0.00    +0.028 A 
ATOM     23  C   UNL     1       8.812  -3.120  -3.970  0.00  0.00    +0.107 A 
ATOM     24  C   UNL     1       7.810  -3.446  -4.866  0.00  0.00    +0.055 A 
BRANCH  19  26
ATOM     25  C   UNL     1       6.923  -5.624  -7.600  0.00  0.00    +0.200 C 
ATOM     26  S   UNL     1       6.784  -3.830  -7.366  0.00  0.00    -0.006 S 
ATOM     27  O   UNL     1       5.576  -3.518  -6.684  0.00  0.00    -0.170 OA
ATOM     28  O   UNL     1       7.136  -3.151  -8.563  0.00  0.00    -0.170 OA
ENDBRANCH  19  26
ENDBRANCH  16  23
ENDBRANCH   1  16
BRANCH   1  29
ATOM     29  C   UNL     1       8.934  -0.610  -1.403  0.00  0.00    +0.184 C 
BRANCH  29  30
ATOM     30  C   UNL     1       9.039  -0.599   0.100  0.00  0.00    +0.120 A 
ATOM     31  C   UNL     1       9.890  -1.338   0.835  0.00  0.00    +0.046 A 
ATOM     32  C   UNL     1       9.650  -1.014   2.190  0.00  0.00    +0.041 A 
ATOM     33  C   UNL     1       8.660  -0.103   2.203  0.00  0.00    +0.195 A 
ATOM     34  O   UNL     1       8.294   0.144   0.934  0.00  0.00    -0.466 OA
ENDBRANCH  29  30
ENDBRANCH   1  29
TORSDOF 9
