REMARK  Name = ZINC25162701
REMARK  11 active torsions:
REMARK  status: ('A' for Active; 'I' for Inactive)
REMARK    1  A    between atoms: C_6  and  C_7
REMARK    2  A    between atoms: C_9  and  C_12
REMARK    3  A    between atoms: C_12  and  C_13
REMARK    4  A    between atoms: C_13  and  C_14
REMARK    5  A    between atoms: N_16  and  C_17
REMARK    6  A    between atoms: C_17  and  C_18
REMARK    7  A    between atoms: C_18  and  C_19
REMARK    8  A    between atoms: C_19  and  C_20
REMARK    9  A    between atoms: C_21  and  C_33
REMARK   10  A    between atoms: C_22  and  N_32
REMARK   11  A    between atoms: N_23  and  C_25
REMARK                            x       y       z     vdW  Elec       q    Type
REMARK                         _______ _______ _______ _____ _____    ______ ____
ROOT
ATOM      1  C   UNL     1      -0.037   1.099  -2.490  0.00  0.00    +0.104 C 
ENDROOT
BRANCH   1   4
ATOM      2  C   UNL     1      -0.292   1.272  -4.907  0.00  0.00    +0.213 C 
ATOM      3  O   UNL     1       0.702   0.589  -5.032  0.00  0.00    -0.276 OA
ATOM      4  N   UNL     1      -0.745   1.585  -3.677  0.00  0.00    -0.315 N 
ATOM      5  H   UNL     1      -1.647   2.204  -3.564  0.00  0.00    +0.149 HD
BRANCH   2   6
ATOM      6  C   UNL     1      -1.021   1.771  -6.128  0.00  0.00    +0.105 C 
BRANCH   6   7
ATOM      7  C   UNL     1      -0.305   1.278  -7.387  0.00  0.00    +0.108 C 
BRANCH   7  10
ATOM      8  C   UNL     1      -1.697   2.925 -10.263  0.00  0.00    +0.202 A 
ATOM      9  N   UNL     1      -0.813   2.903  -9.239  0.00  0.00    -0.191 NA
ATOM     10  C   UNL     1      -1.034   1.777  -8.608  0.00  0.00    +0.228 A 
ATOM     11  O   UNL     1      -2.022   1.151  -9.254  0.00  0.00    -0.338 OA
ATOM     12  N   UNL     1      -2.395   1.821 -10.194  0.00  0.00    -0.056 NA
BRANCH   8  18
ATOM     13  C   UNL     1      -1.032   5.129 -11.220  0.00  0.00    +0.013 A 
ATOM     14  C   UNL     1      -1.172   6.124 -12.166  0.00  0.00    +0.021 A 
ATOM     15  C   UNL     1      -2.127   6.006 -13.162  0.00  0.00    +0.041 A 
ATOM     16  C   UNL     1      -2.942   4.888 -13.217  0.00  0.00    +0.021 A 
ATOM     17  C   UNL     1      -2.806   3.886 -12.279  0.00  0.00    +0.013 A 
ATOM     18  C   UNL     1      -1.847   4.000 -11.275  0.00  0.00    +0.023 A 
ATOM     19 CL   UNL     1      -2.302   7.264 -14.346  0.00  0.00    -0.084 Cl
ENDBRANCH   8  18
ENDBRANCH   7  10
ENDBRANCH   6   7
ENDBRANCH   2   6
ENDBRANCH   1   4
BRANCH   1  20
ATOM     20  C   UNL     1      -0.753   1.593  -1.232  0.00  0.00    +0.025 C 
BRANCH  20  21
ATOM     21  C   UNL     1      -0.013   1.086   0.008  0.00  0.00    +0.060 C 
BRANCH  21  22
ATOM     22  C   UNL     1      -0.718   1.572   1.248  0.00  0.00    +0.083 A 
ATOM     23  C   UNL     1      -1.755   0.894   1.931  0.00  0.00    +0.114 A 
ATOM     24  C   UNL     1      -2.116   1.690   3.015  0.00  0.00    +0.138 A 
ATOM     25  N   UNL     1      -1.331   2.790   2.979  0.00  0.00    -0.217 N 
ATOM     26  N   UNL     1      -0.474   2.687   1.879  0.00  0.00    -0.168 NA
BRANCH  25  27
ATOM     27  C   UNL     1      -1.367   3.853   3.893  0.00  0.00    +0.068 A 
ATOM     28  C   UNL     1      -2.576   4.255   4.445  0.00  0.00    +0.030 A 
ATOM     29  C   UNL     1      -2.609   5.299   5.348  0.00  0.00    +0.040 A 
ATOM     30  C   UNL     1      -1.438   5.952   5.696  0.00  0.00    +0.124 A 
ATOM     31  C   UNL     1      -0.232   5.555   5.144  0.00  0.00    +0.040 A 
ATOM     32  C   UNL     1      -0.194   4.508   4.244  0.00  0.00    +0.030 A 
ATOM     33  F   UNL     1      -1.473   6.977   6.576  0.00  0.00    -0.205 F 
ENDBRANCH  25  27
BRANCH  24  34
ATOM     34  N   UNL     1      -3.092   1.408   3.951  0.00  0.00    -0.342 N 
ATOM     35  H   UNL     1      -3.291   2.116   4.769  0.00  0.00    +0.144 HD
ATOM     36  H   UNL     1      -3.671   0.475   3.879  0.00  0.00    +0.144 HD
ENDBRANCH  24  34
BRANCH  23  37
ATOM     37  C   UNL     1      -2.325  -0.370   1.575  0.00  0.00    +0.104 C 
ATOM     38  N   UNL     1      -2.777  -1.373   1.293  0.00  0.00    -0.191 NA
ENDBRANCH  23  37
ENDBRANCH  21  22
ENDBRANCH  20  21
ENDBRANCH   1  20
TORSDOF 11
