REMARK  Name = ZINC08870821
REMARK  10 active torsions:
REMARK  status: ('A' for Active; 'I' for Inactive)
REMARK    1  A    between atoms: C_1  and  C_2
REMARK    2  A    between atoms: C_5  and  N_29
REMARK    3  A    between atoms: C_7  and  S_8
REMARK    4  A    between atoms: S_8  and  N_11
REMARK    5  A    between atoms: N_11  and  C_12
REMARK    6  A    between atoms: C_14  and  S_23
REMARK    7  A    between atoms: C_15  and  O_22
REMARK    8  A    between atoms: S_23  and  C_24
REMARK    9  A    between atoms: C_24  and  C_26
REMARK   10  A    between atoms: C_24  and  C_27
REMARK                            x       y       z     vdW  Elec       q    Type
REMARK                         _______ _______ _______ _____ _____    ______ ____
ROOT
ATOM      1  C   UNL     1       1.962   0.250   3.934  0.00  0.00    +0.057 A 
ATOM      2  C   UNL     1       1.236   0.316   2.766  0.00  0.00    +0.043 A 
ATOM      3  C   UNL     1       0.815  -0.849   2.120  0.00  0.00    +0.052 A 
ATOM      4  C   UNL     1       1.126  -2.094   2.634  0.00  0.00    +0.138 A 
ATOM      5  C   UNL     1       1.870  -2.190   3.824  0.00  0.00    +0.026 A 
ATOM      6  C   UNL     1       2.293  -1.008   4.482  0.00  0.00    +0.008 A 
ATOM      7  C   UNL     1       3.036  -1.108   5.669  0.00  0.00    +0.010 A 
ATOM      8  C   UNL     1       3.341  -2.336   6.171  0.00  0.00    +0.001 A 
ATOM      9  C   UNL     1       2.926  -3.499   5.525  0.00  0.00    +0.001 A 
ATOM     10  C   UNL     1       2.204  -3.441   4.373  0.00  0.00    +0.012 A 
ENDROOT
BRANCH   1  11
ATOM     11  N   UNL     1       2.372   1.423   4.572  0.00  0.00    -0.216 N 
ATOM     12  H   UNL     1       3.229   1.454   5.024  0.00  0.00    +0.174 HD
BRANCH  11  13
ATOM     13  S   UNL     1       1.394   2.759   4.556  0.00  0.00    +0.073 S 
ATOM     14  O   UNL     1       2.013   3.724   5.396  0.00  0.00    -0.150 OA
ATOM     15  O   UNL     1       1.086   3.021   3.194  0.00  0.00    -0.150 OA
BRANCH  13  22
ATOM     16  C   UNL     1       1.151   1.986   7.470  0.00  0.00    +0.046 C 
ATOM     17  C   UNL     1      -0.131   1.968   6.677  0.00  0.00    -0.024 A 
ATOM     18  C   UNL     1      -1.318   1.614   7.290  0.00  0.00    +0.007 A 
ATOM     19  C   UNL     1      -2.494   1.599   6.563  0.00  0.00    +0.033 A 
ATOM     20  C   UNL     1      -2.482   1.938   5.223  0.00  0.00    +0.128 A 
ATOM     21  C   UNL     1      -1.296   2.297   4.611  0.00  0.00    +0.061 A 
ATOM     22  C   UNL     1      -0.119   2.307   5.337  0.00  0.00    +0.114 A 
BRANCH  20  23
ATOM     23  N   UNL     1      -3.740   1.922   4.444  0.00  0.00    +0.056 N 
ATOM     24  O   UNL     1      -4.787   1.610   4.984  0.00  0.00    -0.126 OA
ATOM     25  O   UNL     1      -3.730   2.220   3.263  0.00  0.00    -0.126 OA
ENDBRANCH  20  23
ENDBRANCH  13  22
ENDBRANCH  11  13
ENDBRANCH   1  11
BRANCH   4  26
ATOM     26  O   UNL     1       0.714  -3.221   1.993  0.00  0.00    -0.505 OA
ATOM     27  H   UNL     1       1.343  -3.554   1.338  0.00  0.00    +0.292 HD
ENDBRANCH   4  26
BRANCH   3  28
ATOM     28  S   UNL     1      -0.117  -0.731   0.629  0.00  0.00    -0.107 S 
BRANCH  28  29
ATOM     29  C   UNL     1      -0.115   1.043   0.250  0.00  0.00    +0.161 C 
ATOM     30  C   UNL     1       1.290   1.470  -0.182  0.00  0.00    +0.031 C 
BRANCH  29  31
ATOM     31  C   UNL     1      -1.089   1.320  -0.867  0.00  0.00    +0.369 C 
ATOM     32  O   UNL     1      -1.445   0.423  -1.593  0.00  0.00    -0.245 OA
ATOM     33  O   UNL     1      -1.560   2.562  -1.054  0.00  0.00    -0.245 OA
ENDBRANCH  29  31
ENDBRANCH  28  29
ENDBRANCH   3  28
TORSDOF 8
