REMARK  Name = ZINC39531028
REMARK  9 active torsions:
REMARK  status: ('A' for Active; 'I' for Inactive)
REMARK    1  A    between atoms: C_4  and  C_7
REMARK    2  A    between atoms: C_7  and  C_8
REMARK    3  A    between atoms: C_11  and  C_14
REMARK    4  A    between atoms: C_14  and  C_16
REMARK    5  A    between atoms: C_14  and  N_19
REMARK    6  A    between atoms: C_16  and  N_17
REMARK    7  A    between atoms: N_17  and  O_18
REMARK    8  A    between atoms: C_23  and  C_26
REMARK    9  A    between atoms: C_31  and  O_32
REMARK                            x       y       z     vdW  Elec       q    Type
REMARK                         _______ _______ _______ _____ _____    ______ ____
ROOT
ATOM      1  C   UNL     1       5.458  -1.695   5.382  0.00  0.00    +0.103 C 
ENDROOT
BRANCH   1   2
ATOM      2  N   UNL     1       4.429  -2.331   6.215  0.00  0.00    -0.297 NA
ATOM      3  C   UNL     1       3.145  -1.625   6.096  0.00  0.00    +0.066 C 
ATOM      4  C   UNL     1       2.088  -2.353   6.929  0.00  0.00    -0.066 C 
ATOM      5  N   UNL     1       2.515  -2.395   8.334  0.00  0.00    +0.385 N 
ATOM      6  C   UNL     1       3.786  -3.123   8.440  0.00  0.00    -0.023 C 
ATOM      7  C   UNL     1       4.857  -2.403   7.619  0.00  0.00    +0.074 C 
ATOM      8  H   UNL     1       2.638  -1.453   8.676  0.00  0.00    -0.085 HD
ATOM      9  H   UNL     1       1.812  -2.863   8.885  0.00  0.00    -0.085 HD
BRANCH   6  10
ATOM     10  C   UNL     1       4.213  -3.181   9.884  0.00  0.00    -0.019 A 
ATOM     11  C   UNL     1       3.692  -2.284  10.796  0.00  0.00    +0.005 A 
ATOM     12  C   UNL     1       4.084  -2.336  12.120  0.00  0.00    +0.000 A 
ATOM     13  C   UNL     1       4.999  -3.286  12.536  0.00  0.00    +0.004 A 
ATOM     14  C   UNL     1       5.523  -4.185  11.628  0.00  0.00    +0.045 A 
ATOM     15  C   UNL     1       5.127  -4.139  10.299  0.00  0.00    +0.118 A 
BRANCH  15  16
ATOM     16  O   UNL     1       5.637  -5.026   9.406  0.00  0.00    -0.507 OA
ATOM     17  H   UNL     1       6.448  -4.726   8.972  0.00  0.00    +0.292 HD
ENDBRANCH  15  16
ENDBRANCH   6  10
ENDBRANCH   1   2
BRANCH   1  21
ATOM     18  C   UNL     1       4.224  -1.758   1.293  0.00  0.00    -0.043 A 
ATOM     19  C   UNL     1       4.853  -0.640   1.808  0.00  0.00    +0.004 A 
ATOM     20  C   UNL     1       5.253  -0.619   3.131  0.00  0.00    +0.005 A 
ATOM     21  C   UNL     1       5.022  -1.716   3.940  0.00  0.00    -0.029 A 
ATOM     22  C   UNL     1       4.392  -2.834   3.425  0.00  0.00    +0.005 A 
ATOM     23  C   UNL     1       3.989  -2.853   2.103  0.00  0.00    +0.004 A 
BRANCH  18  24
ATOM     24  C   UNL     1       3.789  -1.780  -0.150  0.00  0.00    +0.070 C 
BRANCH  24  28
ATOM     25  C   UNL     1      -0.190  -0.258  -0.462  0.00  0.00    +0.000 A 
ATOM     26  C   UNL     1       0.888   0.601  -0.559  0.00  0.00    +0.000 A 
ATOM     27  C   UNL     1       2.176   0.109  -0.458  0.00  0.00    +0.004 A 
ATOM     28  C   UNL     1       2.385  -1.243  -0.259  0.00  0.00    -0.043 A 
ATOM     29  C   UNL     1       1.307  -2.102  -0.162  0.00  0.00    +0.004 A 
ATOM     30  C   UNL     1       0.019  -1.610  -0.264  0.00  0.00    +0.000 A 
ENDBRANCH  24  28
ENDBRANCH  18  24
ENDBRANCH   1  21
BRANCH   1  31
ATOM     31  C   UNL     1       6.776  -2.458   5.528  0.00  0.00    +0.134 C 
BRANCH  31  32
ATOM     32  N   UNL     1       7.826  -1.774   4.761  0.00  0.00    -0.202 NA
ATOM     33  H   UNL     1       7.976  -0.839   5.109  0.00  0.00    +0.154 HD
BRANCH  32  34
ATOM     34  O   UNL     1       9.070  -2.544   4.773  0.00  0.00    -0.315 OA
ATOM     35  H   UNL     1       9.793  -2.131   4.280  0.00  0.00    +0.236 HD
ENDBRANCH  32  34
ENDBRANCH  31  32
ENDBRANCH   1  31
TORSDOF 9
