REMARK  Name = ZINC13065385
REMARK  8 active torsions:
REMARK  status: ('A' for Active; 'I' for Inactive)
REMARK    1  A    between atoms: C_4  and  C_7
REMARK    2  A    between atoms: C_7  and  N_8
REMARK    3  A    between atoms: C_9  and  C_13
REMARK    4  A    between atoms: C_13  and  N_61
REMARK    5  A    between atoms: C_14  and  C_15
REMARK    6  A    between atoms: C_14  and  N_61
REMARK    7  A    between atoms: C_30  and  C_31
REMARK    8  A    between atoms: C_30  and  N_61
REMARK                            x       y       z     vdW  Elec       q    Type
REMARK                         _______ _______ _______ _____ _____    ______ ____
ROOT
ATOM      1  N   UNL     1       2.933   0.805   1.395  0.00  0.00    +0.389 N 
ATOM      2  H   UNL     1       2.983   1.582   2.065  0.00  0.00    -0.081 HD
ENDROOT
BRANCH   1   3
ATOM      3  C   UNL     1       4.262   0.166   1.300  0.00  0.00    +0.001 C 
BRANCH   3   5
ATOM      4  N   UNL     1       5.461   0.392   3.540  0.00  0.00    -0.227 N 
ATOM      5  C   UNL     1       4.686  -0.287   2.673  0.00  0.00    +0.135 A 
ATOM      6  N   UNL     1       4.375  -1.420   3.254  0.00  0.00    -0.115 NA
ATOM      7  N   UNL     1       4.927  -1.435   4.418  0.00  0.00    -0.023 NA
ATOM      8  N   UNL     1       5.581  -0.340   4.596  0.00  0.00    -0.044 NA
BRANCH   4   9
ATOM      9  C   UNL     1       6.054   1.714   3.326  0.00  0.00    +0.182 C 
BRANCH   9  13
ATOM     10  C   UNL     1       3.352   4.725   4.698  0.00  0.00    +0.000 A 
ATOM     11  C   UNL     1       4.289   4.190   5.563  0.00  0.00    +0.000 A 
ATOM     12  C   UNL     1       5.162   3.216   5.119  0.00  0.00    +0.005 A 
ATOM     13  C   UNL     1       5.101   2.776   3.810  0.00  0.00    -0.026 A 
ATOM     14  C   UNL     1       4.168   3.315   2.943  0.00  0.00    +0.005 A 
ATOM     15  C   UNL     1       3.290   4.286   3.389  0.00  0.00    +0.000 A 
ENDBRANCH   9  13
ENDBRANCH   4   9
ENDBRANCH   3   5
ENDBRANCH   1   3
BRANCH   1  16
ATOM     16  C   UNL     1       2.531   1.335   0.075  0.00  0.00    -0.037 C 
BRANCH  16  17
ATOM     17  C   UNL     1       1.287   2.168   0.244  0.00  0.00    +0.001 A 
ATOM     18  C   UNL     1       1.390   3.510   0.417  0.00  0.00    +0.017 A 
ATOM     19  C   UNL     1       0.164   4.290   0.578  0.00  0.00    +0.002 A 
ATOM     20  C   UNL     1       0.209   5.678   0.762  0.00  0.00    +0.059 A 
ATOM     21  C   UNL     1      -0.962   6.386   0.911  0.00  0.00    +0.167 A 
ATOM     22  C   UNL     1      -2.196   5.724   0.880  0.00  0.00    +0.168 A 
ATOM     23  C   UNL     1      -2.251   4.354   0.700  0.00  0.00    +0.075 A 
ATOM     24  C   UNL     1      -1.078   3.626   0.548  0.00  0.00    +0.053 A 
ATOM     25  N   UNL     1      -1.113   2.259   0.361  0.00  0.00    -0.322 N 
ATOM     26  H   UNL     1      -1.969   1.802   0.335  0.00  0.00    +0.169 HD
ATOM     27  C   UNL     1       0.020   1.550   0.220  0.00  0.00    +0.251 A 
ATOM     28  O   UNL     1      -0.049   0.343   0.063  0.00  0.00    -0.268 OA
ATOM     29  O   UNL     1      -3.187   6.647   1.050  0.00  0.00    -0.453 OA
ATOM     30  C   UNL     1      -2.540   7.812   1.594  0.00  0.00    +0.466 C 
ATOM     31  O   UNL     1      -1.191   7.720   1.100  0.00  0.00    -0.453 OA
ENDBRANCH  16  17
ENDBRANCH   1  16
BRANCH   1  32
ATOM     32  C   UNL     1       1.934  -0.175   1.871  0.00  0.00    -0.046 C 
BRANCH  32  33
ATOM     33  C   UNL     1       1.840  -1.358   0.904  0.00  0.00    +0.102 C 
ATOM     34  C   UNL     1       0.672  -2.286   1.303  0.00  0.00    +0.032 C 
ATOM     35  C   UNL     1       1.204  -3.707   1.010  0.00  0.00    +0.030 C 
ATOM     36  C   UNL     1       2.632  -3.469   0.470  0.00  0.00    +0.160 C 
ATOM     37  O   UNL     1       3.020  -2.185   1.006  0.00  0.00    -0.378 OA
ENDBRANCH  32  33
ENDBRANCH   1  32
TORSDOF 8
