REMARK  Name = ZINC44713873
REMARK  7 active torsions:
REMARK  status: ('A' for Active; 'I' for Inactive)
REMARK    1  A    between atoms: C_1  and  C_2
REMARK    2  A    between atoms: C_3  and  C_9
REMARK    3  A    between atoms: C_4  and  C_8
REMARK    4  A    between atoms: C_9  and  C_11
REMARK    5  A    between atoms: C_9  and  N_12
REMARK    6  A    between atoms: C_13  and  C_15
REMARK    7  A    between atoms: C_26  and  C_28
REMARK                            x       y       z     vdW  Elec       q    Type
REMARK                         _______ _______ _______ _____ _____    ______ ____
ROOT
ATOM      1  C   UNL     1      -3.206  -1.627  -4.882  0.00  0.00    +0.100 C 
ATOM      2  C   UNL     1      -2.306  -2.790  -5.357  0.00  0.00    +0.121 C 
ATOM      3  N   UNL     1      -2.743  -3.058  -6.747  0.00  0.00    -0.296 N 
ATOM      4  C   UNL     1      -2.994  -1.714  -7.320  0.00  0.00    +0.115 C 
ATOM      5  C   UNL     1      -3.655  -0.923  -6.174  0.00  0.00    -0.004 C 
ATOM      6  C   UNL     1      -3.169   0.523  -6.184  0.00  0.00    -0.010 C 
ATOM      7  C   UNL     1      -3.677   1.219  -7.449  0.00  0.00    -0.082 C 
ATOM      8  N   UNL     1      -5.144   1.175  -7.479  0.00  0.00    +0.379 N 
ATOM      9  C   UNL     1      -5.601  -0.218  -7.564  0.00  0.00    -0.082 C 
ATOM     10  C   UNL     1      -5.174  -0.975  -6.303  0.00  0.00    -0.010 C 
ATOM     11  C   UNL     1      -2.881  -4.254  -7.354  0.00  0.00    +0.248 C 
ATOM     12  O   UNL     1      -3.156  -4.307  -8.537  0.00  0.00    -0.270 OA
ATOM     13  H   UNL     1      -5.509   1.597  -6.639  0.00  0.00    -0.086 HD
ATOM     14  H   UNL     1      -5.478   1.686  -8.282  0.00  0.00    -0.086 HD
ENDROOT
BRANCH  11  15
ATOM     15  C   UNL     1      -2.698  -5.500  -6.581  0.00  0.00    +0.057 A 
ATOM     16  C   UNL     1      -1.731  -5.566  -5.576  0.00  0.00    +0.014 A 
ATOM     17  C   UNL     1      -1.565  -6.732  -4.858  0.00  0.00    +0.002 A 
ATOM     18  C   UNL     1      -2.354  -7.836  -5.130  0.00  0.00    +0.021 A 
ATOM     19  C   UNL     1      -3.314  -7.779  -6.125  0.00  0.00    +0.060 A 
ATOM     20  C   UNL     1      -3.496  -6.615  -6.848  0.00  0.00    +0.071 A 
ATOM     21 CL   UNL     1      -4.706  -6.542  -8.091  0.00  0.00    -0.081 Cl
ATOM     22 CL   UNL     1      -4.298  -9.170  -6.460  0.00  0.00    -0.082 Cl
ENDBRANCH  11  15
BRANCH   1  24
ATOM     23  N   UNL     1      -3.064   0.130  -3.147  0.00  0.00    -0.308 N 
ATOM     24  C   UNL     1      -2.421  -0.678  -4.013  0.00  0.00    +0.219 C 
ATOM     25  O   UNL     1      -1.212  -0.642  -4.092  0.00  0.00    -0.275 OA
ATOM     26  H   UNL     1      -4.032   0.101  -3.083  0.00  0.00    +0.149 HD
BRANCH  23  27
ATOM     27  C   UNL     1      -2.302   1.052  -2.301  0.00  0.00    +0.104 C 
ATOM     28  C   UNL     1      -1.750   0.297  -1.091  0.00  0.00    +0.033 C 
BRANCH  27  31
ATOM     29  C   UNL     1      -5.199   0.719  -1.167  0.00  0.00    +0.065 C 
ATOM     30  C   UNL     1      -4.457   2.020  -1.340  0.00  0.00    +0.038 A 
ATOM     31  C   UNL     1      -3.204   2.164  -1.831  0.00  0.00    +0.015 A 
ATOM     32  C   UNL     1      -2.894   3.528  -1.824  0.00  0.00    +0.065 A 
ATOM     33  N   UNL     1      -3.923   4.179  -1.346  0.00  0.00    -0.179 NA
ATOM     34  N   UNL     1      -4.925   3.249  -1.038  0.00  0.00    -0.281 N 
ATOM     35  H   UNL     1      -5.799   3.452  -0.671  0.00  0.00    +0.189 HD
ATOM     36  C   UNL     1      -1.597   4.142  -2.286  0.00  0.00    +0.068 C 
ENDBRANCH  27  31
ENDBRANCH  23  27
ENDBRANCH   1  24
TORSDOF 4
