REMARK  Name = ZINC10403487
REMARK  12 active torsions:
REMARK  status: ('A' for Active; 'I' for Inactive)
REMARK    1  A    between atoms: C_1  and  C_2
REMARK    2  A    between atoms: C_5  and  C_8
REMARK    3  A    between atoms: C_8  and  N_9
REMARK    4  A    between atoms: N_12  and  C_13
REMARK    5  A    between atoms: C_13  and  C_14
REMARK    6  A    between atoms: N_16  and  N_17
REMARK    7  A    between atoms: C_18  and  C_20
REMARK    8  A    between atoms: C_20  and  C_22
REMARK    9  A    between atoms: C_20  and  O_23
REMARK   10  A    between atoms: O_23  and  C_24
REMARK   11  A    between atoms: C_25  and  C_32
REMARK   12  A    between atoms: C_29  and  C_30
REMARK                            x       y       z     vdW  Elec       q    Type
REMARK                         _______ _______ _______ _____ _____    ______ ____
ROOT
ATOM      1  C   UNL     1       6.305  -7.163   0.659  0.00  0.00    +0.246 C 
ATOM      2  O   UNL     1       7.287  -6.594   1.088  0.00  0.00    -0.273 OA
ATOM      3  N   UNL     1       6.367  -8.474   0.352  0.00  0.00    -0.233 N 
ATOM      4  H   UNL     1       5.582  -8.929   0.009  0.00  0.00    +0.173 HD
ENDROOT
BRANCH   3   5
ATOM      5  N   UNL     1       7.564  -9.179   0.529  0.00  0.00    -0.231 N 
ATOM      6  C   UNL     1       7.626 -10.490   0.223  0.00  0.00    +0.270 C 
ATOM      7  O   UNL     1       6.644 -11.059  -0.206  0.00  0.00    -0.270 OA
ATOM      8  H   UNL     1       8.349  -8.724   0.872  0.00  0.00    +0.173 HD
BRANCH   6   9
ATOM      9  C   UNL     1       8.914 -11.249   0.413  0.00  0.00    +0.257 C 
ATOM     10  C   UNL     1       9.260 -11.300   1.903  0.00  0.00    +0.062 C 
BRANCH   9  11
ATOM     11  O   UNL     1       8.761 -12.579  -0.086  0.00  0.00    -0.479 OA
BRANCH  11  12
ATOM     12  C   UNL     1       9.881 -13.197  -0.546  0.00  0.00    +0.127 A 
ATOM     13  C   UNL     1      10.571 -14.082   0.269  0.00  0.00    -0.007 A 
ATOM     14  C   UNL     1      11.709 -14.710  -0.200  0.00  0.00    +0.027 A 
ATOM     15  C   UNL     1      12.161 -14.456  -1.483  0.00  0.00    +0.042 A 
ATOM     16  C   UNL     1      11.474 -13.573  -2.298  0.00  0.00    +0.027 A 
ATOM     17  C   UNL     1      10.332 -12.949  -1.835  0.00  0.00    -0.007 A 
ATOM     18  C   UNL     1       9.582 -11.992  -2.725  0.00  0.00    +0.047 C 
ATOM     19 CL   UNL     1      13.591 -15.245  -2.070  0.00  0.00    -0.084 Cl
ATOM     20  C   UNL     1      10.079 -14.358   1.667  0.00  0.00    +0.047 C 
ENDBRANCH  11  12
ENDBRANCH   9  11
ENDBRANCH   6   9
ENDBRANCH   3   5
BRANCH   1  21
ATOM     21  C   UNL     1       5.017  -6.404   0.468  0.00  0.00    +0.203 C 
BRANCH  21  25
ATOM     22  N   UNL     1       4.361  -2.852   1.155  0.00  0.00    -0.295 N 
ATOM     23  C   UNL     1       4.185  -4.136   0.785  0.00  0.00    +0.300 C 
ATOM     24  O   UNL     1       3.102  -4.508   0.375  0.00  0.00    -0.253 OA
ATOM     25  N   UNL     1       5.209  -5.008   0.870  0.00  0.00    -0.291 N 
ATOM     26  H   UNL     1       5.225  -2.555   1.482  0.00  0.00    +0.151 HD
ATOM     27  H   UNL     1       6.073  -4.712   1.197  0.00  0.00    +0.151 HD
BRANCH  22  28
ATOM     28  C   UNL     1       3.248  -1.904   1.062  0.00  0.00    +0.141 C 
BRANCH  28  33
ATOM     29  C   UNL     1       4.994   3.302   2.864  0.00  0.00    +0.044 C 
ATOM     30  C   UNL     1       4.538   1.944   2.394  0.00  0.00    -0.050 A 
ATOM     31  C   UNL     1       4.659   1.598   1.061  0.00  0.00    +0.003 A 
ATOM     32  C   UNL     1       4.241   0.353   0.630  0.00  0.00    +0.005 A 
ATOM     33  C   UNL     1       3.704  -0.546   1.532  0.00  0.00    -0.030 A 
ATOM     34  C   UNL     1       3.584  -0.201   2.865  0.00  0.00    +0.005 A 
ATOM     35  C   UNL     1       4.006   1.043   3.297  0.00  0.00    +0.003 A 
ENDBRANCH  28  33
ENDBRANCH  22  28
ENDBRANCH  21  25
ENDBRANCH   1  21
TORSDOF 8
