REMARK  Name = ZINC06824902
REMARK  7 active torsions:
REMARK  status: ('A' for Active; 'I' for Inactive)
REMARK    1  A    between atoms: C_1  and  C_2
REMARK    2  A    between atoms: C_3  and  O_21
REMARK    3  A    between atoms: C_4  and  C_12
REMARK    4  A    between atoms: C_5  and  C_8
REMARK    5  A    between atoms: C_8  and  O_9
REMARK    6  A    between atoms: O_9  and  P_10
REMARK    7  A    between atoms: N_13  and  C_14
REMARK                            x       y       z     vdW  Elec       q    Type
REMARK                         _______ _______ _______ _____ _____    ______ ____
ROOT
ATOM      1  C   UNL     1      -3.433   4.553   6.411  0.00  0.00    +0.069 C 
ATOM      2  C   UNL     1      -3.108   3.659   5.242  0.00  0.00    +0.080 A 
ATOM      3  C   UNL     1      -4.135   3.017   4.565  0.00  0.00    +0.147 A 
ATOM      4  C   UNL     1      -3.814   2.191   3.473  0.00  0.00    +0.043 A 
ATOM      5  C   UNL     1      -2.462   2.049   3.129  0.00  0.00    +0.009 A 
ATOM      6  C   UNL     1      -1.511   2.727   3.861  0.00  0.00    +0.117 A 
ATOM      7  N   UNL     1      -1.853   3.497   4.876  0.00  0.00    -0.256 NA
ENDROOT
BRANCH   4   8
ATOM      8  C   UNL     1      -4.866   1.492   2.717  0.00  0.00    +0.123 C 
ATOM      9  N   UNL     1      -6.116   1.638   3.054  0.00  0.00    -0.254 NA
BRANCH   9  10
ATOM     10  C   UNL     1      -7.101   1.079   2.285  0.00  0.00    +0.078 A 
ATOM     11  C   UNL     1      -7.089   1.246   0.898  0.00  0.00    +0.029 A 
ATOM     12  C   UNL     1      -8.082   0.677   0.130  0.00  0.00    +0.002 A 
ATOM     13  C   UNL     1      -9.095  -0.050   0.730  0.00  0.00    +0.001 A 
ATOM     14  C   UNL     1      -9.117  -0.216   2.103  0.00  0.00    +0.017 A 
ATOM     15  C   UNL     1      -8.127   0.344   2.885  0.00  0.00    +0.043 A 
ATOM     16 BR   UNL     1      -8.159   0.117   4.762  0.00  0.00    -0.048 Br
ENDBRANCH   9  10
ENDBRANCH   4   8
BRANCH   3  17
ATOM     17  O   UNL     1      -5.426   3.188   4.946  0.00  0.00    -0.504 OA
ATOM     18  H   UNL     1      -5.871   3.927   4.509  0.00  0.00    +0.292 HD
ENDBRANCH   3  17
BRANCH   5  19
ATOM     19  C   UNL     1      -2.056   1.173   1.972  0.00  0.00    +0.210 C 
BRANCH  19  20
ATOM     20  O   UNL     1      -0.635   1.204   1.827  0.00  0.00    -0.279 OA
BRANCH  20  21
ATOM     21  P   UNL     1       0.148   0.381   0.687  0.00  0.00    +0.532 P 
ATOM     22  O   UNL     1      -0.399   0.735  -0.642  0.00  0.00    -0.222 OA
ATOM     23  O   UNL     1      -0.039  -1.198   0.941  0.00  0.00    -0.115 OA
ATOM     24  O   UNL     1       1.714   0.750   0.738  0.00  0.00    -0.115 OA
ENDBRANCH  20  21
ENDBRANCH  19  20
ENDBRANCH   5  19
TORSDOF 6
