REMARK  Name = ZINC38700701
REMARK  10 active torsions:
REMARK  status: ('A' for Active; 'I' for Inactive)
REMARK    1  A    between atoms: C_1  and  O_2
REMARK    2  A    between atoms: O_2  and  C_3
REMARK    3  A    between atoms: C_6  and  C_10
REMARK    4  A    between atoms: C_10  and  O_12
REMARK    5  A    between atoms: O_12  and  C_13
REMARK    6  A    between atoms: C_20  and  N_34
REMARK    7  A    between atoms: C_21  and  C_32
REMARK    8  A    between atoms: C_22  and  C_24
REMARK    9  A    between atoms: C_27  and  S_30
REMARK   10  A    between atoms: S_30  and  C_31
REMARK                            x       y       z     vdW  Elec       q    Type
REMARK                         _______ _______ _______ _____ _____    ______ ____
ROOT
ATOM      1  C   UNL     1      -6.746  -3.593  -1.171  0.00  0.00    +0.135 A 
ATOM      2  C   UNL     1      -7.413  -3.903   0.006  0.00  0.00    +0.047 A 
ATOM      3  C   UNL     1      -8.617  -4.577  -0.040  0.00  0.00    +0.012 A 
ATOM      4  C   UNL     1      -9.163  -4.947  -1.257  0.00  0.00    +0.008 A 
ATOM      5  C   UNL     1      -8.502  -4.639  -2.436  0.00  0.00    +0.138 A 
ATOM      6  C   UNL     1      -7.293  -3.956  -2.391  0.00  0.00    +0.093 A 
ATOM      7  O   UNL     1      -9.021  -4.993  -3.637  0.00  0.00    -0.441 OA
ATOM      8  C   UNL     1      -9.955  -5.956  -3.707  0.00  0.00    +0.199 C 
ATOM      9  C   UNL     1     -10.680  -6.330  -2.626  0.00  0.00    +0.098 C 
ATOM     10  C   UNL     1     -10.477  -5.681  -1.286  0.00  0.00    +0.098 C 
ENDROOT
BRANCH  10  11
ATOM     11  C   UNL     1     -11.599  -4.708  -1.027  0.00  0.00    -0.035 A 
ATOM     12  C   UNL     1     -11.796  -3.639  -1.883  0.00  0.00    +0.005 A 
ATOM     13  C   UNL     1     -12.822  -2.745  -1.648  0.00  0.00    +0.015 A 
ATOM     14  C   UNL     1     -13.657  -2.921  -0.551  0.00  0.00    +0.008 A 
ATOM     15  C   UNL     1     -13.456  -3.996   0.306  0.00  0.00    +0.015 A 
ATOM     16  C   UNL     1     -12.431  -4.889   0.062  0.00  0.00    +0.005 A 
BRANCH  14  17
ATOM     17  S   UNL     1     -14.968  -1.783  -0.248  0.00  0.00    -0.129 S 
ATOM     18  C   UNL     1     -15.758  -2.415   1.257  0.00  0.00    +0.090 C 
ENDBRANCH  14  17
ENDBRANCH  10  11
BRANCH   8  19
ATOM     19  N   UNL     1     -10.180  -6.580  -4.908  0.00  0.00    -0.328 N 
ATOM     20  H   UNL     1      -9.669  -6.323  -5.691  0.00  0.00    +0.145 HD
ATOM     21  H   UNL     1     -10.851  -7.277  -4.974  0.00  0.00    +0.145 HD
ENDBRANCH   8  19
BRANCH   9  22
ATOM     22  C   UNL     1     -11.661  -7.364  -2.764  0.00  0.00    +0.101 C 
ATOM     23  N   UNL     1     -12.440  -8.184  -2.873  0.00  0.00    -0.191 NA
ENDBRANCH   9  22
BRANCH   1  24
ATOM     24  O   UNL     1      -5.560  -2.930  -1.128  0.00  0.00    -0.422 OA
BRANCH  24  25
ATOM     25  C   UNL     1      -4.457  -3.627  -0.790  0.00  0.00    +0.345 C 
ATOM     26  O   UNL     1      -4.554  -4.790  -0.450  0.00  0.00    -0.245 OA
BRANCH  25  30
ATOM     27  C   UNL     1      -0.644  -1.761  -0.918  0.00  0.00    +0.157 A 
ATOM     28  C   UNL     1      -0.753  -3.091  -0.528  0.00  0.00    +0.085 A 
ATOM     29  C   UNL     1      -1.988  -3.700  -0.485  0.00  0.00    +0.038 A 
ATOM     30  C   UNL     1      -3.134  -2.979  -0.834  0.00  0.00    +0.062 A 
ATOM     31  C   UNL     1      -3.021  -1.642  -1.226  0.00  0.00    +0.038 A 
ATOM     32  C   UNL     1      -1.782  -1.038  -1.262  0.00  0.00    +0.085 A 
ATOM     33 CL   UNL     1      -1.641   0.624  -1.741  0.00  0.00    -0.080 Cl
ATOM     34 CL   UNL     1       0.670  -3.986  -0.094  0.00  0.00    -0.080 Cl
BRANCH  27  36
ATOM     35  C   UNL     1       1.021  -0.518   0.233  0.00  0.00    +0.277 C 
ATOM     36  O   UNL     1       0.574  -1.165  -0.960  0.00  0.00    -0.492 OA
ENDBRANCH  27  36
ENDBRANCH  25  30
ENDBRANCH  24  25
ENDBRANCH   1  24
TORSDOF 8
