REMARK  Name = ZINC22854875
REMARK  6 active torsions:
REMARK  status: ('A' for Active; 'I' for Inactive)
REMARK    1  A    between atoms: C_1  and  C_2
REMARK    2  A    between atoms: C_2  and  C_3
REMARK    3  A    between atoms: C_9  and  C_11
REMARK    4  A    between atoms: C_11  and  C_13
REMARK    5  A    between atoms: C_11  and  N_18
REMARK    6  A    between atoms: N_21  and  C_24
REMARK                            x       y       z     vdW  Elec       q    Type
REMARK                         _______ _______ _______ _____ _____    ______ ____
ROOT
ATOM      1  C   UNL     1       0.002  -0.004   0.002  0.00  0.00    +0.042 C 
ENDROOT
BRANCH   1   8
ATOM      2  C   UNL     1      -0.277   5.936   0.441  0.00  0.00    +0.152 A 
ATOM      3  N   UNL     1       0.930   5.374   0.421  0.00  0.00    -0.205 NA
ATOM      4  C   UNL     1       0.802   4.079   0.322  0.00  0.00    +0.199 A 
ATOM      5  N   UNL     1      -0.519   3.754   0.274  0.00  0.00    -0.170 N 
ATOM      6  N   UNL     1      -1.187   5.003   0.356  0.00  0.00    -0.146 NA
ATOM      7  C   UNL     1      -0.835   2.421   0.164  0.00  0.00    +0.282 A 
ATOM      8  C   UNL     1       0.128   1.493   0.117  0.00  0.00    +0.053 A 
ATOM      9  S   UNL     1       1.603   2.497   0.218  0.00  0.00    -0.050 S 
ATOM     10  O   UNL     1      -2.140   2.041   0.106  0.00  0.00    -0.265 OA
BRANCH   2  12
ATOM     11  C   UNL     1      -0.616   8.022  -0.856  0.00  0.00    +0.012 C 
ATOM     12  C   UNL     1      -0.549   7.414   0.546  0.00  0.00    +0.075 C 
ENDBRANCH   2  12
ENDBRANCH   1   8
BRANCH   1  13
ATOM     13  N   UNL     1       0.889  -0.646   0.981  0.00  0.00    +0.392 N 
ATOM     14  C   UNL     1       0.841  -2.110   0.855  0.00  0.00    -0.058 C 
ATOM     15  C   UNL     1       1.835  -2.737   1.835  0.00  0.00    +0.086 C 
ATOM     16  N   UNL     1       1.500  -2.318   3.203  0.00  0.00    -0.331 N 
ATOM     17  C   UNL     1       1.549  -0.854   3.329  0.00  0.00    +0.086 C 
ATOM     18  C   UNL     1       0.554  -0.227   2.349  0.00  0.00    -0.058 C 
ATOM     19  H   UNL     1       1.918  -0.321   0.768  0.00  0.00    -0.080 HD
BRANCH  16  20
ATOM     20  C   UNL     1       2.345  -2.929   4.136  0.00  0.00    +0.065 A 
ATOM     21  C   UNL     1       2.147  -2.722   5.494  0.00  0.00    +0.026 A 
ATOM     22  C   UNL     1       2.981  -3.331   6.412  0.00  0.00    +0.002 A 
ATOM     23  C   UNL     1       4.017  -4.138   5.981  0.00  0.00    +0.003 A 
ATOM     24  C   UNL     1       4.221  -4.344   4.629  0.00  0.00    +0.040 A 
ATOM     25  C   UNL     1       3.388  -3.741   3.704  0.00  0.00    +0.144 A 
ATOM     26  F   UNL     1       3.587  -3.941   2.382  0.00  0.00    -0.204 F 
ENDBRANCH  16  20
ENDBRANCH   1  13
BRANCH   1  27
ATOM     27  C   UNL     1       0.392  -0.436  -1.388  0.00  0.00    +0.096 A 
ATOM     28  C   UNL     1      -0.456  -0.819  -2.360  0.00  0.00    +0.043 A 
ATOM     29  C   UNL     1       0.332  -1.135  -3.490  0.00  0.00    +0.041 A 
ATOM     30  C   UNL     1       1.615  -0.928  -3.141  0.00  0.00    +0.195 A 
ATOM     31  O   UNL     1       1.644  -0.498  -1.869  0.00  0.00    -0.469 OA
ENDBRANCH   1  27
TORSDOF 5
