REMARK  Name = ZINC02182380
REMARK  10 active torsions:
REMARK  status: ('A' for Active; 'I' for Inactive)
REMARK    1  A    between atoms: C_1  and  C_2
REMARK    2  A    between atoms: C_2  and  C_3
REMARK    3  A    between atoms: C_2  and  C_4
REMARK    4  A    between atoms: C_2  and  C_5
REMARK    5  A    between atoms: C_12  and  N_20
REMARK    6  A    between atoms: C_13  and  C_14
REMARK    7  A    between atoms: N_16  and  C_17
REMARK    8  A    between atoms: C_17  and  C_18
REMARK    9  A    between atoms: C_18  and  O_19
REMARK   10  A    between atoms: C_21  and  C_23
REMARK                            x       y       z     vdW  Elec       q    Type
REMARK                         _______ _______ _______ _____ _____    ______ ____
ROOT
ATOM      1  C   UNL     1       3.958  -1.296   0.339  0.00  0.00    -0.000 C 
ATOM      2  C   UNL     1       4.465  -0.117  -0.497  0.00  0.00    +0.009 C 
ATOM      3  C   UNL     1       3.798   1.178  -0.029  0.00  0.00    +0.037 C 
ATOM      4  C   UNL     1       2.288   0.974  -0.015  0.00  0.00    -0.023 A 
ATOM      5  C   UNL     1       1.753  -0.266  -0.016  0.00  0.00    -0.004 A 
ATOM      6  S   UNL     1       0.002  -0.004   0.002  0.00  0.00    -0.077 S 
ATOM      7  C   UNL     1      -0.021   1.728   0.011  0.00  0.00    +0.085 A 
ATOM      8  C   UNL     1       1.326   2.063   0.001  0.00  0.00    +0.069 A 
ATOM      9  C   UNL     1       2.492  -1.569  -0.028  0.00  0.00    +0.046 C 
ENDROOT
BRANCH   1  11
ATOM     10  C   UNL     1       6.264  -2.257   0.389  0.00  0.00    +0.011 C 
ATOM     11  C   UNL     1       4.801  -2.537   0.039  0.00  0.00    -0.035 C 
ATOM     12  C   UNL     1       4.293  -3.713   0.875  0.00  0.00    +0.011 C 
ATOM     13  C   UNL     1       4.690  -2.882  -1.448  0.00  0.00    +0.011 C 
ENDBRANCH   1  11
BRANCH   8  14
ATOM     14  C   UNL     1       1.762   3.463   0.003  0.00  0.00    +0.247 C 
ATOM     15  O   UNL     1       1.953   4.038   1.058  0.00  0.00    -0.270 OA
ATOM     16  N   UNL     1       1.950   4.112  -1.163  0.00  0.00    -0.309 N 
ATOM     17  H   UNL     1       1.798   3.653  -2.003  0.00  0.00    +0.149 HD
BRANCH  16  18
ATOM     18  C   UNL     1       2.386   5.511  -1.160  0.00  0.00    +0.132 C 
BRANCH  18  19
ATOM     19  C   UNL     1       2.523   6.005  -2.601  0.00  0.00    +0.174 C 
BRANCH  19  20
ATOM     20  O   UNL     1       1.239   6.010  -3.227  0.00  0.00    -0.393 OA
ATOM     21  H   UNL     1       1.250   6.313  -4.146  0.00  0.00    +0.209 HD
ENDBRANCH  19  20
ENDBRANCH  18  19
ENDBRANCH  16  18
ENDBRANCH   8  14
BRANCH   7  22
ATOM     22  N   UNL     1      -1.119   2.574   0.022  0.00  0.00    -0.275 N 
ATOM     23  C   UNL     1      -2.365   2.062   0.026  0.00  0.00    +0.250 C 
ATOM     24  O   UNL     1      -2.526   0.857   0.020  0.00  0.00    -0.270 OA
ATOM     25  H   UNL     1      -0.990   3.536   0.026  0.00  0.00    +0.156 HD
BRANCH  23  26
ATOM     26  C   UNL     1      -3.535   2.964   0.036  0.00  0.00    +0.055 A 
ATOM     27  C   UNL     1      -3.353   4.348   0.042  0.00  0.00    +0.014 A 
ATOM     28  C   UNL     1      -4.449   5.185   0.052  0.00  0.00    +0.001 A 
ATOM     29  C   UNL     1      -5.728   4.656   0.056  0.00  0.00    +0.001 A 
ATOM     30  C   UNL     1      -5.917   3.286   0.050  0.00  0.00    +0.021 A 
ATOM     31  C   UNL     1      -4.828   2.436   0.035  0.00  0.00    +0.053 A 
ATOM     32 CL   UNL     1      -5.067   0.716   0.019  0.00  0.00    -0.083 Cl
ENDBRANCH  23  26
ENDBRANCH   7  22
TORSDOF 7
