REMARK  Name = ZINC02177239
REMARK  5 active torsions:
REMARK  status: ('A' for Active; 'I' for Inactive)
REMARK    1  A    between atoms: N_9  and  C_29
REMARK    2  A    between atoms: C_10  and  C_13
REMARK    3  A    between atoms: C_16  and  O_19
REMARK    4  A    between atoms: O_19  and  C_20
REMARK    5  A    between atoms: C_20  and  C_21
REMARK                            x       y       z     vdW  Elec       q    Type
REMARK                         _______ _______ _______ _____ _____    ______ ____
ROOT
ATOM      1  C   UNL     1       3.509   3.124  -4.835  0.00  0.00    +0.001 A 
ATOM      2  C   UNL     1       3.960   2.013  -4.139  0.00  0.00    +0.002 A 
ATOM      3  C   UNL     1       3.933   1.990  -2.758  0.00  0.00    +0.024 A 
ATOM      4  C   UNL     1       3.450   3.087  -2.064  0.00  0.00    +0.041 A 
ATOM      5  C   UNL     1       2.983   4.212  -2.766  0.00  0.00    +0.058 A 
ATOM      6  C   UNL     1       3.021   4.223  -4.159  0.00  0.00    +0.015 A 
ATOM      7  C   UNL     1       2.449   5.350  -1.999  0.00  0.00    +0.254 C 
ATOM      8  O   UNL     1       2.191   6.399  -2.558  0.00  0.00    -0.270 OA
ATOM      9  N   UNL     1       2.249   5.217  -0.676  0.00  0.00    -0.244 N 
ATOM     10  C   UNL     1       2.381   3.921  -0.012  0.00  0.00    +0.198 C 
ATOM     11  N   UNL     1       3.413   3.115  -0.674  0.00  0.00    -0.321 N 
ATOM     12  H   UNL     1       4.057   2.611  -0.153  0.00  0.00    +0.148 HD
ENDROOT
BRANCH   9  13
ATOM     13  C   UNL     1       1.906   6.345   0.079  0.00  0.00    +0.039 A 
ATOM     14  C   UNL     1       0.770   7.077  -0.241  0.00  0.00    +0.026 A 
ATOM     15  C   UNL     1       0.431   8.186   0.509  0.00  0.00    +0.040 A 
ATOM     16  C   UNL     1       1.228   8.575   1.572  0.00  0.00    +0.124 A 
ATOM     17  C   UNL     1       2.365   7.850   1.889  0.00  0.00    +0.040 A 
ATOM     18  C   UNL     1       2.705   6.737   1.145  0.00  0.00    +0.026 A 
ATOM     19  F   UNL     1       0.898   9.664   2.300  0.00  0.00    -0.205 F 
ENDBRANCH   9  13
BRANCH  10  20
ATOM     20  C   UNL     1       1.063   3.192  -0.074  0.00  0.00    -0.009 A 
ATOM     21  C   UNL     1       1.039   1.810  -0.100  0.00  0.00    +0.010 A 
ATOM     22  C   UNL     1      -0.167   1.140  -0.158  0.00  0.00    +0.046 A 
ATOM     23  C   UNL     1      -1.356   1.855  -0.194  0.00  0.00    +0.121 A 
ATOM     24  C   UNL     1      -1.329   3.241  -0.162  0.00  0.00    +0.046 A 
ATOM     25  C   UNL     1      -0.120   3.907  -0.104  0.00  0.00    +0.010 A 
BRANCH  23  26
ATOM     26  O   UNL     1      -2.544   1.198  -0.256  0.00  0.00    -0.487 OA
BRANCH  26  27
ATOM     27  C   UNL     1      -3.727   1.999  -0.290  0.00  0.00    +0.267 C 
BRANCH  27  28
ATOM     28  C   UNL     1      -4.937   1.104  -0.357  0.00  0.00    +0.026 A 
ATOM     29  C   UNL     1      -5.447   0.720  -1.585  0.00  0.00    +0.049 A 
ATOM     30  C   UNL     1      -6.555  -0.106  -1.645  0.00  0.00    +0.020 A 
ATOM     31  C   UNL     1      -7.160  -0.538  -0.480  0.00  0.00    +0.003 A 
ATOM     32  C   UNL     1      -6.655  -0.151   0.747  0.00  0.00    +0.020 A 
ATOM     33  C   UNL     1      -5.543   0.671   0.809  0.00  0.00    +0.049 A 
ATOM     34 CL   UNL     1      -4.909   1.158   2.349  0.00  0.00    -0.083 Cl
ATOM     35 CL   UNL     1      -4.692   1.269  -3.048  0.00  0.00    -0.083 Cl
ENDBRANCH  27  28
ENDBRANCH  26  27
ENDBRANCH  23  26
ENDBRANCH  10  20
TORSDOF 5
