REMARK  Name = ZINC15947014
REMARK  9 active torsions:
REMARK  status: ('A' for Active; 'I' for Inactive)
REMARK    1  A    between atoms: C_1  and  C_2
REMARK    2  A    between atoms: C_2  and  O_3
REMARK    3  A    between atoms: O_3  and  C_4
REMARK    4  A    between atoms: C_8  and  C_11
REMARK    5  A    between atoms: C_9  and  O_10
REMARK    6  A    between atoms: C_23  and  O_25
REMARK    7  A    between atoms: O_25  and  C_26
REMARK    8  A    between atoms: C_26  and  C_27
REMARK    9  A    between atoms: C_28  and  O_30
REMARK                            x       y       z     vdW  Elec       q    Type
REMARK                         _______ _______ _______ _____ _____    ______ ____
ROOT
ATOM      1  C   UNL     1       2.275  -4.306   3.756  0.00  0.00    +0.229 C 
ATOM      2  N   UNL     1       2.864  -5.606   3.387  0.00  0.00    -0.313 N 
ATOM      3  C   UNL     1       4.090  -5.564   2.761  0.00  0.00    +0.080 A 
ATOM      4  C   UNL     1       4.970  -4.488   2.928  0.00  0.00    +0.068 A 
ATOM      5  C   UNL     1       6.220  -4.577   2.195  0.00  0.00    -0.020 A 
ATOM      6  C   UNL     1       6.356  -5.704   1.458  0.00  0.00    +0.013 A 
ATOM      7  S   UNL     1       4.860  -6.612   1.732  0.00  0.00    -0.076 S 
ATOM      8  C   UNL     1       7.529  -6.081   0.606  0.00  0.00    +0.153 C 
ATOM      9  N   UNL     1       8.408  -4.897   0.527  0.00  0.00    -0.262 N 
ATOM     10  C   UNL     1       8.629  -4.130   1.762  0.00  0.00    +0.116 C 
ATOM     11  C   UNL     1       7.307  -3.513   2.226  0.00  0.00    +0.056 C 
ATOM     12  C   UNL     1       8.988  -4.533  -0.634  0.00  0.00    +0.403 C 
ATOM     13  O   UNL     1       9.707  -3.554  -0.674  0.00  0.00    -0.226 OA
ATOM     14  C   UNL     1       4.542  -3.387   3.828  0.00  0.00    +0.220 C 
ATOM     15  N   UNL     1       3.293  -3.365   4.205  0.00  0.00    -0.223 NA
ATOM     16  H   UNL     1       2.414  -6.444   3.575  0.00  0.00    +0.149 HD
ENDROOT
BRANCH   1  21
ATOM     17  C   UNL     1       0.802  -1.825   1.306  0.00  0.00    +0.164 A 
ATOM     18  C   UNL     1       0.261  -2.673   0.352  0.00  0.00    +0.071 A 
ATOM     19  C   UNL     1       0.372  -4.043   0.502  0.00  0.00    +0.063 A 
ATOM     20  C   UNL     1       1.024  -4.571   1.603  0.00  0.00    +0.070 A 
ATOM     21  C   UNL     1       1.566  -3.729   2.558  0.00  0.00    +0.059 A 
ATOM     22  C   UNL     1       1.462  -2.356   2.410  0.00  0.00    +0.167 A 
ATOM     23 CL   UNL     1       1.162  -6.292   1.787  0.00  0.00    -0.082 Cl
ATOM     24 CL   UNL     1      -0.307  -5.104  -0.693  0.00  0.00    -0.082 Cl
BRANCH  22  25
ATOM     25  O   UNL     1       2.000  -1.527   3.345  0.00  0.00    -0.503 OA
ATOM     26  H   UNL     1       1.394  -1.300   4.064  0.00  0.00    +0.292 HD
ENDBRANCH  22  25
BRANCH  17  27
ATOM     27  O   UNL     1       0.693  -0.477   1.160  0.00  0.00    -0.489 OA
BRANCH  27  29
ATOM     28  C   UNL     1      -0.019   1.526   0.010  0.00  0.00    +0.048 C 
ATOM     29  C   UNL     1       0.002  -0.004   0.002  0.00  0.00    +0.226 C 
ENDBRANCH  27  29
ENDBRANCH  17  27
ENDBRANCH   1  21
BRANCH  14  30
ATOM     30  O   UNL     1       5.416  -2.441   4.242  0.00  0.00    -0.492 OA
ATOM     31  H   UNL     1       5.027  -1.774   4.825  0.00  0.00    +0.294 HD
ENDBRANCH  14  30
BRANCH  12  32
ATOM     32  O   UNL     1       8.769  -5.253  -1.750  0.00  0.00    -0.451 OA
BRANCH  32  33
ATOM     33  C   UNL     1       9.415  -4.810  -2.946  0.00  0.00    +0.230 C 
ATOM     34  C   UNL     1       9.051  -5.746  -4.100  0.00  0.00    +0.048 C 
ENDBRANCH  32  33
ENDBRANCH  12  32
TORSDOF 7
