REMARK  Name = ZINC16253496
REMARK  7 active torsions:
REMARK  status: ('A' for Active; 'I' for Inactive)
REMARK    1  A    between atoms: C_3  and  C_9
REMARK    2  A    between atoms: C_9  and  S_10
REMARK    3  A    between atoms: S_10  and  C_11
REMARK    4  A    between atoms: C_14  and  C_17
REMARK    5  A    between atoms: N_15  and  N_16
REMARK    6  A    between atoms: C_20  and  O_23
REMARK    7  A    between atoms: O_23  and  C_24
REMARK                            x       y       z     vdW  Elec       q    Type
REMARK                         _______ _______ _______ _____ _____    ______ ____
ROOT
ATOM      1  C   UNL     1      -0.570  -2.106  -0.165  0.00  0.00    +0.209 A 
ATOM      2  N   UNL     1       0.698  -2.008   0.164  0.00  0.00    -0.121 NA
ATOM      3  N   UNL     1       1.035  -0.772   0.262  0.00  0.00    -0.127 NA
ATOM      4  C   UNL     1       0.002  -0.004   0.002  0.00  0.00    +0.182 A 
ATOM      5  N   UNL     1      -1.060  -0.835  -0.273  0.00  0.00    -0.224 N 
ENDROOT
BRANCH   4   6
ATOM      6  C   UNL     1      -0.018   1.474   0.010  0.00  0.00    +0.021 A 
ATOM      7  C   UNL     1      -1.235   2.157   0.020  0.00  0.00    +0.015 A 
ATOM      8  C   UNL     1      -1.250   3.536   0.033  0.00  0.00    +0.046 A 
ATOM      9  C   UNL     1      -0.056   4.245   0.025  0.00  0.00    +0.127 A 
ATOM     10  C   UNL     1       1.157   3.568   0.010  0.00  0.00    +0.046 A 
ATOM     11  C   UNL     1       1.180   2.190   0.003  0.00  0.00    +0.015 A 
BRANCH   9  12
ATOM     12  O   UNL     1      -0.074   5.603   0.033  0.00  0.00    -0.434 OA
BRANCH  12  13
ATOM     13  C   UNL     1      -1.356   6.234   0.048  0.00  0.00    +0.541 C 
ATOM     14  F   UNL     1      -2.077   5.855  -1.089  0.00  0.00    -0.166 F 
ATOM     15  F   UNL     1      -2.054   5.843   1.195  0.00  0.00    -0.166 F 
ENDBRANCH  12  13
ENDBRANCH   9  12
ENDBRANCH   4   6
BRANCH   5  16
ATOM     16  N   UNL     1      -2.336  -0.466  -0.592  0.00  0.00    -0.295 N 
ATOM     17  H   UNL     1      -2.443  -0.359  -1.589  0.00  0.00    +0.163 HD
ATOM     18  H   UNL     1      -3.005  -1.125  -0.224  0.00  0.00    +0.163 HD
ENDBRANCH   5  16
BRANCH   1  19
ATOM     19  S   UNL     1      -1.474  -3.598  -0.411  0.00  0.00    -0.080 S 
BRANCH  19  20
ATOM     20  C   UNL     1      -0.172  -4.812  -0.086  0.00  0.00    +0.115 C 
BRANCH  20  23
ATOM     21  C   UNL     1      -1.200  -8.106  -1.618  0.00  0.00    +0.003 A 
ATOM     22  C   UNL     1      -0.688  -6.830  -1.473  0.00  0.00    +0.007 A 
ATOM     23  C   UNL     1      -0.731  -6.203  -0.242  0.00  0.00    +0.001 A 
ATOM     24  C   UNL     1      -1.281  -6.854   0.848  0.00  0.00    +0.162 A 
ATOM     25  C   UNL     1      -1.799  -8.132   0.701  0.00  0.00    +0.159 A 
ATOM     26  C   UNL     1      -1.756  -8.757  -0.533  0.00  0.00    +0.041 A 
ATOM     27  F   UNL     1      -2.342  -8.767   1.763  0.00  0.00    -0.202 F 
ATOM     28  F   UNL     1      -1.318  -6.243   2.053  0.00  0.00    -0.202 F 
ENDBRANCH  20  23
ENDBRANCH  19  20
ENDBRANCH   1  19
TORSDOF 7
