REMARK  Name = ZINC16807392
REMARK  10 active torsions:
REMARK  status: ('A' for Active; 'I' for Inactive)
REMARK    1  A    between atoms: C_1  and  C_2
REMARK    2  A    between atoms: C_2  and  C_3
REMARK    3  A    between atoms: C_3  and  S_4
REMARK    4  A    between atoms: S_4  and  C_5
REMARK    5  A    between atoms: C_16  and  C_18
REMARK    6  A    between atoms: C_21  and  C_24
REMARK    7  A    between atoms: C_24  and  C_25
REMARK    8  A    between atoms: C_24  and  C_26
REMARK    9  A    between atoms: C_30  and  C_32
REMARK   10  A    between atoms: C_30  and  C_33
REMARK                            x       y       z     vdW  Elec       q    Type
REMARK                         _______ _______ _______ _____ _____    ______ ____
ROOT
ATOM      1  C   UNL     1      -4.128   0.142  -6.929  0.00  0.00    +0.171 A 
ATOM      2  N   UNL     1      -4.817   0.487  -5.806  0.00  0.00    -0.302 N 
ATOM      3  H   UNL     1      -5.596  -0.025  -5.540  0.00  0.00    +0.171 HD
ATOM      4  C   UNL     1      -4.418   1.541  -5.063  0.00  0.00    +0.258 A 
ATOM      5  O   UNL     1      -5.027   1.857  -4.054  0.00  0.00    -0.267 OA
ATOM      6  C   UNL     1      -3.291   2.264  -5.471  0.00  0.00    +0.069 A 
ATOM      7  C   UNL     1      -2.629   1.875  -6.622  0.00  0.00    +0.135 A 
ATOM      8  N   UNL     1      -3.068   0.821  -7.319  0.00  0.00    -0.208 NA
ATOM      9  N   UNL     1      -1.521   2.582  -7.046  0.00  0.00    -0.302 N 
ATOM     10  C   UNL     1      -1.297   3.856  -6.602  0.00  0.00    +0.017 C 
ATOM     11  C   UNL     1      -1.886   4.312  -5.478  0.00  0.00    +0.024 C 
ATOM     12  C   UNL     1      -2.814   3.439  -4.671  0.00  0.00    +0.092 C 
ATOM     13  C   UNL     1      -1.654   5.622  -5.019  0.00  0.00    +0.162 C 
ATOM     14  O   UNL     1      -2.215   6.009  -4.012  0.00  0.00    -0.292 OA
ATOM     15  C   UNL     1      -0.725   6.553  -5.748  0.00  0.00    +0.086 C 
ATOM     16  C   UNL     1       0.337   5.724  -6.478  0.00  0.00    -0.023 C 
ATOM     17  C   UNL     1      -0.373   4.738  -7.408  0.00  0.00    +0.058 C 
ATOM     18  C   UNL     1       1.179   4.954  -5.458  0.00  0.00    +0.011 C 
ATOM     19  C   UNL     1       1.241   6.646  -7.299  0.00  0.00    +0.011 C 
ATOM     20  H   UNL     1      -0.897   2.171  -7.665  0.00  0.00    +0.153 HD
ENDROOT
BRANCH  12  21
ATOM     21  C   UNL     1      -2.084   2.941  -3.450  0.00  0.00    -0.035 A 
ATOM     22  C   UNL     1      -2.550   3.261  -2.188  0.00  0.00    +0.005 A 
ATOM     23  C   UNL     1      -1.881   2.804  -1.069  0.00  0.00    +0.004 A 
ATOM     24  C   UNL     1      -0.748   2.025  -1.210  0.00  0.00    -0.045 A 
ATOM     25  C   UNL     1      -0.280   1.709  -2.472  0.00  0.00    +0.004 A 
ATOM     26  C   UNL     1      -0.951   2.163  -3.592  0.00  0.00    +0.005 A 
BRANCH  24  27
ATOM     27  C   UNL     1      -0.019   1.526   0.010  0.00  0.00    +0.013 C 
ATOM     28  C   UNL     1       0.002  -0.004   0.002  0.00  0.00    +0.012 C 
ATOM     29  C   UNL     1       1.417   2.055  -0.000  0.00  0.00    +0.012 C 
ENDBRANCH  24  27
ENDBRANCH  12  21
BRANCH   1  30
ATOM     30  S   UNL     1      -4.666  -1.239  -7.882  0.00  0.00    -0.088 S 
BRANCH  30  31
ATOM     31  C   UNL     1      -3.422  -1.218  -9.197  0.00  0.00    +0.077 C 
BRANCH  31  33
ATOM     32  C   UNL     1      -2.643  -2.345 -11.285  0.00  0.00    +0.004 C 
ATOM     33  C   UNL     1      -3.694  -2.363 -10.174  0.00  0.00    +0.008 C 
ENDBRANCH  31  33
ENDBRANCH  30  31
ENDBRANCH   1  30
TORSDOF 5
