REMARK  Name = ZINC19839950
REMARK  5 active torsions:
REMARK  status: ('A' for Active; 'I' for Inactive)
REMARK    1  A    between atoms: C_1  and  C_2
REMARK    2  A    between atoms: C_2  and  C_30
REMARK    3  A    between atoms: C_13  and  O_16
REMARK    4  A    between atoms: C_17  and  N_20
REMARK    5  A    between atoms: N_20  and  C_21
REMARK                            x       y       z     vdW  Elec       q    Type
REMARK                         _______ _______ _______ _____ _____    ______ ____
ROOT
ATOM      1  C   UNL     1      -0.500   1.169   0.148  0.00  0.00    +0.011 C 
ATOM      2  C   UNL     1      -1.151   1.794   1.383  0.00  0.00    -0.028 C 
ATOM      3  C   UNL     1      -0.486   1.248   2.646  0.00  0.00    +0.060 C 
ATOM      4  C   UNL     1       0.927   1.753   2.756  0.00  0.00    +0.025 A 
ATOM      5  C   UNL     1       1.383   2.843   2.047  0.00  0.00    +0.007 A 
ATOM      6  C   UNL     1       2.704   3.242   2.218  0.00  0.00    +0.121 A 
ATOM      7  N   UNL     1       3.483   2.569   3.046  0.00  0.00    -0.224 NA
ATOM      8  C   UNL     1       3.016   1.523   3.710  0.00  0.00    +0.196 A 
ATOM      9  N   UNL     1       1.763   1.120   3.571  0.00  0.00    -0.331 N 
ATOM     10  N   UNL     1       3.856   0.836   4.569  0.00  0.00    -0.301 N 
ATOM     11  C   UNL     1       3.288   0.771   5.921  0.00  0.00    +0.110 C 
ATOM     12  C   UNL     1       4.170  -0.116   6.804  0.00  0.00    +0.050 C 
ATOM     13  C   UNL     1       5.585   0.466   6.852  0.00  0.00    +0.118 C 
ATOM     14  C   UNL     1       6.135   0.568   5.426  0.00  0.00    +0.050 C 
ATOM     15  C   UNL     1       5.197   1.435   4.584  0.00  0.00    +0.110 C 
ATOM     16  C   UNL     1       0.515   3.614   1.091  0.00  0.00    +0.088 C 
ATOM     17  C   UNL     1      -0.961   3.315   1.352  0.00  0.00    +0.030 C 
ATOM     18  C   UNL     1      -2.644   1.459   1.402  0.00  0.00    +0.011 C 
ATOM     19  H   UNL     1       1.418   0.246   4.143  0.00  0.00    +0.168 HD
ENDROOT
BRANCH  13  20
ATOM     20  O   UNL     1       6.427  -0.389   7.628  0.00  0.00    -0.392 OA
ATOM     21  H   UNL     1       7.486  -0.132   7.775  0.00  0.00    +0.210 HD
ENDBRANCH  13  20
BRANCH  16  22
ATOM     22  N   UNL     1       0.758   5.052   1.266  0.00  0.00    -0.306 NA
ATOM     23  H   UNL     1       0.122   5.435   2.077  0.00  0.00    +0.123 HD
BRANCH  22  24
ATOM     24  C   UNL     1       0.449   5.791   0.035  0.00  0.00    +0.063 C 
ATOM     25  C   UNL     1       1.705   5.935  -0.850  0.00  0.00    +0.054 C 
ATOM     26  C   UNL     1       1.580   7.303  -1.492  0.00  0.00    -0.043 A 
ATOM     27  C   UNL     1       2.225   7.838  -2.594  0.00  0.00    +0.004 A 
ATOM     28  C   UNL     1       1.945   9.126  -3.007  0.00  0.00    +0.000 A 
ATOM     29  C   UNL     1       1.017   9.884  -2.318  0.00  0.00    +0.000 A 
ATOM     30  C   UNL     1       0.372   9.353  -1.218  0.00  0.00    +0.004 A 
ATOM     31  C   UNL     1       0.652   8.061  -0.803  0.00  0.00    -0.043 A 
ATOM     32  C   UNL     1       0.092   7.259   0.352  0.00  0.00    +0.054 C 
ENDBRANCH  22  24
ENDBRANCH  16  22
TORSDOF 3
