REMARK  Name = ZINC38935760
REMARK  7 active torsions:
REMARK  status: ('A' for Active; 'I' for Inactive)
REMARK    1  A    between atoms: C_1  and  C_2
REMARK    2  A    between atoms: C_7  and  C_14
REMARK    3  A    between atoms: C_14  and  N_15
REMARK    4  A    between atoms: N_15  and  C_16
REMARK    5  A    between atoms: C_20  and  C_23
REMARK    6  A    between atoms: C_21  and  C_22
REMARK    7  A    between atoms: C_24  and  C_26
REMARK                            x       y       z     vdW  Elec       q    Type
REMARK                         _______ _______ _______ _____ _____    ______ ____
ROOT
ATOM      1  N   UNL     1      -1.084  -6.668   2.440  0.00  0.00    -0.266 N 
ATOM      2  C   UNL     1      -0.377  -7.801   2.256  0.00  0.00    +0.251 C 
ATOM      3  O   UNL     1       0.020  -8.095   1.146  0.00  0.00    -0.270 OA
ENDROOT
BRANCH   1   4
ATOM      4  C   UNL     1      -1.597  -6.362   3.705  0.00  0.00    +0.040 A 
ATOM      5  C   UNL     1      -0.734  -6.138   4.770  0.00  0.00    +0.024 A 
ATOM      6  C   UNL     1      -1.243  -5.835   6.017  0.00  0.00    +0.002 A 
ATOM      7  C   UNL     1      -2.611  -5.755   6.207  0.00  0.00    +0.004 A 
ATOM      8  C   UNL     1      -3.472  -5.977   5.148  0.00  0.00    -0.046 A 
ATOM      9  C   UNL     1      -2.969  -6.275   3.897  0.00  0.00    -0.026 A 
ATOM     10  C   UNL     1      -3.909  -6.511   2.743  0.00  0.00    +0.046 C 
ATOM     11  C   UNL     1      -4.962  -5.889   5.359  0.00  0.00    +0.044 C 
ENDBRANCH   1   4
BRANCH   2  12
ATOM     12  C   UNL     1      -0.084  -8.686   3.406  0.00  0.00    +0.040 A 
ATOM     13  C   UNL     1      -1.016  -8.863   4.433  0.00  0.00    +0.033 A 
ATOM     14  C   UNL     1      -0.702  -9.698   5.487  0.00  0.00    +0.111 A 
ATOM     15  N   UNL     1       0.457 -10.324   5.532  0.00  0.00    -0.263 NA
ATOM     16  C   UNL     1       1.364 -10.186   4.586  0.00  0.00    +0.111 A 
ATOM     17  C   UNL     1       1.131  -9.374   3.493  0.00  0.00    +0.033 A 
ENDBRANCH   2  12
BRANCH   1  18
ATOM     18  C   UNL     1      -1.315  -5.758   1.316  0.00  0.00    +0.131 C 
BRANCH  18  25
ATOM     19  C   UNL     1      -0.096   1.506  -0.087  0.00  0.00    +0.044 C 
ATOM     20  C   UNL     1      -0.134  -0.001  -0.106  0.00  0.00    -0.049 A 
ATOM     21  C   UNL     1      -0.318  -0.651  -1.326  0.00  0.00    +0.004 A 
ATOM     22  C   UNL     1      -0.361  -2.006  -1.407  0.00  0.00    +0.010 A 
ATOM     23  C   UNL     1      -0.208  -2.790  -0.181  0.00  0.00    -0.007 A 
ATOM     24  C   UNL     1      -0.244  -4.153  -0.214  0.00  0.00    -0.003 C 
ATOM     25  C   UNL     1      -0.077  -4.884   1.104  0.00  0.00    +0.116 C 
ATOM     26  C   UNL     1       0.115  -4.044   2.346  0.00  0.00    +0.226 C 
ATOM     27  O   UNL     1       0.254  -4.579   3.430  0.00  0.00    -0.275 OA
ATOM     28  N   UNL     1       0.132  -2.725   2.250  0.00  0.00    -0.284 N 
ATOM     29  C   UNL     1      -0.015  -2.078   1.094  0.00  0.00    +0.041 A 
ATOM     30  C   UNL     1       0.019  -0.671   1.066  0.00  0.00    +0.027 A 
ATOM     31  H   UNL     1       0.256  -2.204   3.058  0.00  0.00    +0.155 HD
ENDBRANCH  18  25
ENDBRANCH   1  18
TORSDOF 4
