REMARK  Name = ZINC23868036
REMARK  10 active torsions:
REMARK  status: ('A' for Active; 'I' for Inactive)
REMARK    1  A    between atoms: C_1  and  C_2
REMARK    2  A    between atoms: C_3  and  C_7
REMARK    3  A    between atoms: C_10  and  S_13
REMARK    4  A    between atoms: N_11  and  N_12
REMARK    5  A    between atoms: S_13  and  C_14
REMARK    6  A    between atoms: C_14  and  C_16
REMARK    7  A    between atoms: C_14  and  C_17
REMARK    8  A    between atoms: N_19  and  C_20
REMARK    9  A    between atoms: C_20  and  C_21
REMARK   10  A    between atoms: N_23  and  C_24
REMARK                            x       y       z     vdW  Elec       q    Type
REMARK                         _______ _______ _______ _____ _____    ______ ____
ROOT
ATOM      1  C   UNL     1       3.895   7.507   0.427  0.00  0.00    +0.227 C 
ATOM      2  O   UNL     1       2.962   8.281   0.459  0.00  0.00    -0.275 OA
ATOM      3  N   UNL     1       3.669   6.183   0.312  0.00  0.00    -0.306 N 
ATOM      4  H   UNL     1       4.516   5.481   0.283  0.00  0.00    +0.149 HD
ENDROOT
BRANCH   1   5
ATOM      5  C   UNL     1       5.308   8.025   0.516  0.00  0.00    +0.137 C 
ATOM      6  C   UNL     1       5.825   7.851   1.945  0.00  0.00    +0.029 C 
BRANCH   5   7
ATOM      7  S   UNL     1       5.335   9.780   0.074  0.00  0.00    -0.072 S 
BRANCH   7  11
ATOM      8  C   UNL     1       9.041  11.018   0.004  0.00  0.00    +0.185 A 
ATOM      9  N   UNL     1       9.165   9.753   0.331  0.00  0.00    -0.127 NA
ATOM     10  N   UNL     1       8.006   9.200   0.395  0.00  0.00    -0.121 NA
ATOM     11  C   UNL     1       7.071  10.078   0.112  0.00  0.00    +0.209 A 
ATOM     12  N   UNL     1       7.697  11.264  -0.153  0.00  0.00    -0.224 N 
BRANCH   8  15
ATOM     13  C   UNL     1      12.103  10.449   0.361  0.00  0.00    +0.087 C 
ATOM     14  C   UNL     1      11.472  11.764  -0.020  0.00  0.00    +0.112 A 
ATOM     15  C   UNL     1      10.140  11.992  -0.171  0.00  0.00    +0.061 A 
ATOM     16  C   UNL     1      10.018  13.409  -0.537  0.00  0.00    +0.053 A 
ATOM     17  C   UNL     1      11.271  13.891  -0.576  0.00  0.00    +0.196 A 
ATOM     18  O   UNL     1      12.129  12.906  -0.270  0.00  0.00    -0.467 OA
ENDBRANCH   8  15
BRANCH  12  19
ATOM     19  N   UNL     1       7.109  12.448  -0.498  0.00  0.00    -0.295 N 
ATOM     20  H   UNL     1       6.015  12.513  -0.590  0.00  0.00    +0.163 HD
ATOM     21  H   UNL     1       7.731  13.337  -0.683  0.00  0.00    +0.163 HD
ENDBRANCH  12  19
ENDBRANCH   7  11
ENDBRANCH   5   7
ENDBRANCH   1   5
BRANCH   3  22
ATOM     22  C   UNL     1       2.296   5.679   0.225  0.00  0.00    +0.200 C 
BRANCH  22  23
ATOM     23  C   UNL     1       2.319   4.177   0.104  0.00  0.00    +0.234 C 
ATOM     24  O   UNL     1       3.378   3.586   0.091  0.00  0.00    -0.274 OA
ATOM     25  N   UNL     1       1.163   3.491   0.009  0.00  0.00    -0.282 N 
ATOM     26  H   UNL     1       0.208   4.031  -0.071  0.00  0.00    +0.155 HD
BRANCH  25  27
ATOM     27  C   UNL     1       1.178   2.090   0.013  0.00  0.00    +0.072 A 
ATOM     28  C   UNL     1       2.230   1.407   0.608  0.00  0.00    +0.029 A 
ATOM     29  C   UNL     1       2.244   0.026   0.611  0.00  0.00    +0.043 A 
ATOM     30  C   UNL     1       1.210  -0.680   0.022  0.00  0.00    +0.161 A 
ATOM     31  C   UNL     1       0.156  -0.003  -0.574  0.00  0.00    +0.195 A 
ATOM     32  C   UNL     1       0.139   1.381  -0.579  0.00  0.00    +0.182 A 
ATOM     33  F   UNL     1      -0.884   2.043  -1.163  0.00  0.00    -0.200 F 
ATOM     34  F   UNL     1      -0.852  -0.694  -1.149  0.00  0.00    -0.199 F 
ATOM     35  F   UNL     1       1.226  -2.031   0.026  0.00  0.00    -0.202 F 
ENDBRANCH  25  27
ENDBRANCH  22  23
ENDBRANCH   3  22
TORSDOF 8
