REMARK  Name = ZINC02111781
REMARK  12 active torsions:
REMARK  status: ('A' for Active; 'I' for Inactive)
REMARK    1  A    between atoms: C_1  and  O_2
REMARK    2  A    between atoms: O_2  and  C_3
REMARK    3  A    between atoms: C_6  and  C_11
REMARK    4  A    between atoms: C_7  and  O_9
REMARK    5  A    between atoms: O_9  and  C_10
REMARK    6  A    between atoms: C_19  and  N_35
REMARK    7  A    between atoms: C_20  and  C_33
REMARK    8  A    between atoms: C_21  and  C_23
REMARK    9  A    between atoms: C_26  and  O_31
REMARK   10  A    between atoms: C_28  and  O_29
REMARK   11  A    between atoms: O_29  and  C_30
REMARK   12  A    between atoms: O_31  and  C_32
REMARK                            x       y       z     vdW  Elec       q    Type
REMARK                         _______ _______ _______ _____ _____    ______ ____
ROOT
ATOM      1  C   UNL     1      -0.069   2.053   2.299  0.00  0.00    +0.018 C 
ATOM      2  C   UNL     1      -0.734   1.780   1.162  0.00  0.00    -0.004 C 
ATOM      3  C   UNL     1       0.008   1.562  -0.138  0.00  0.00    +0.039 C 
ATOM      4  C   UNL     1      -0.787   2.284  -1.236  0.00  0.00    +0.009 C 
ATOM      5  C   UNL     1      -2.170   1.650  -1.339  0.00  0.00    +0.036 C 
ATOM      6  C   UNL     1      -2.875   1.636  -0.007  0.00  0.00    -0.014 C 
ATOM      7  C   UNL     1      -2.209   1.686   1.147  0.00  0.00    +0.133 C 
ATOM      8  O   UNL     1      -2.853   1.661   2.342  0.00  0.00    -0.441 OA
ATOM      9  C   UNL     1      -4.145   2.022   2.417  0.00  0.00    +0.199 C 
ATOM     10  C   UNL     1      -4.937   1.998   1.316  0.00  0.00    +0.098 C 
ATOM     11  C   UNL     1      -4.385   1.563  -0.012  0.00  0.00    +0.097 C 
ENDROOT
BRANCH   1  15
ATOM     12  C   UNL     1       4.172   1.846   2.380  0.00  0.00    +0.124 A 
ATOM     13  C   UNL     1       3.447   0.953   1.600  0.00  0.00    +0.046 A 
ATOM     14  C   UNL     1       2.071   1.016   1.570  0.00  0.00    +0.015 A 
ATOM     15  C   UNL     1       1.401   1.982   2.328  0.00  0.00    +0.017 A 
ATOM     16  C   UNL     1       2.135   2.886   3.110  0.00  0.00    +0.131 A 
ATOM     17  C   UNL     1       3.517   2.808   3.135  0.00  0.00    +0.091 A 
BRANCH  12  19
ATOM     18  C   UNL     1       6.140   0.763   1.603  0.00  0.00    +0.277 C 
ATOM     19  O   UNL     1       5.529   1.777   2.404  0.00  0.00    -0.495 OA
ENDBRANCH  12  19
BRANCH  16  20
ATOM     20  O   UNL     1       1.493   3.830   3.844  0.00  0.00    -0.494 OA
ATOM     21  C   UNL     1       2.306   4.716   4.616  0.00  0.00    +0.277 C 
ENDBRANCH  16  20
ENDBRANCH   1  15
BRANCH  11  22
ATOM     22  C   UNL     1      -4.813   0.145  -0.289  0.00  0.00    +0.007 A 
ATOM     23  C   UNL     1      -4.430  -0.871   0.565  0.00  0.00    +0.012 A 
ATOM     24  C   UNL     1      -4.821  -2.172   0.313  0.00  0.00    +0.046 A 
ATOM     25  C   UNL     1      -5.600  -2.461  -0.798  0.00  0.00    +0.124 A 
ATOM     26  C   UNL     1      -5.987  -1.443  -1.656  0.00  0.00    +0.091 A 
ATOM     27  C   UNL     1      -5.598  -0.137  -1.398  0.00  0.00    +0.128 A 
BRANCH  27  28
ATOM     28  O   UNL     1      -5.979   0.864  -2.234  0.00  0.00    -0.495 OA
ATOM     29  C   UNL     1      -6.786   0.500  -3.356  0.00  0.00    +0.277 C 
ENDBRANCH  27  28
BRANCH  25  30
ATOM     30  O   UNL     1      -5.985  -3.741  -1.045  0.00  0.00    -0.495 OA
ATOM     31  C   UNL     1      -5.551  -4.739  -0.119  0.00  0.00    +0.277 C 
ENDBRANCH  25  30
ENDBRANCH  11  22
BRANCH   9  32
ATOM     32  N   UNL     1      -4.670   2.422   3.621  0.00  0.00    -0.328 N 
ATOM     33  H   UNL     1      -5.602   2.684   3.681  0.00  0.00    +0.145 HD
ATOM     34  H   UNL     1      -4.108   2.442   4.412  0.00  0.00    +0.145 HD
ENDBRANCH   9  32
BRANCH  10  35
ATOM     35  C   UNL     1      -6.311   2.388   1.420  0.00  0.00    +0.101 C 
ATOM     36  N   UNL     1      -7.400   2.698   1.502  0.00  0.00    -0.191 NA
ENDBRANCH  10  35
TORSDOF 8
