REMARK  Name = ZINC09130376
REMARK  6 active torsions:
REMARK  status: ('A' for Active; 'I' for Inactive)
REMARK    1  A    between atoms: C_3  and  O_16
REMARK    2  A    between atoms: C_6  and  C_7
REMARK    3  A    between atoms: N_10  and  C_12
REMARK    4  A    between atoms: C_12  and  C_13
REMARK    5  A    between atoms: O_16  and  C_17
REMARK    6  A    between atoms: C_17  and  C_18
REMARK                            x       y       z     vdW  Elec       q    Type
REMARK                         _______ _______ _______ _____ _____    ______ ____
ROOT
ATOM      1  C   UNL     1       4.138   8.401   0.011  0.00  0.00    +0.015 A 
ATOM      2  C   UNL     1       3.055   7.548   0.016  0.00  0.00    +0.046 A 
ATOM      3  C   UNL     1       3.252   6.174   0.006  0.00  0.00    +0.121 A 
ATOM      4  C   UNL     1       4.540   5.655  -0.003  0.00  0.00    +0.046 A 
ATOM      5  C   UNL     1       5.627   6.503  -0.013  0.00  0.00    +0.015 A 
ATOM      6  C   UNL     1       5.431   7.883  -0.004  0.00  0.00    +0.023 A 
ENDROOT
BRANCH   6   7
ATOM      7  C   UNL     1       6.599   8.799  -0.009  0.00  0.00    +0.205 A 
ATOM      8  N   UNL     1       6.566  10.139  -0.002  0.00  0.00    -0.108 NA
ATOM      9  N   UNL     1       7.788  10.553  -0.010  0.00  0.00    -0.045 NA
ATOM     10  N   UNL     1       8.574   9.534  -0.023  0.00  0.00    -0.154 N 
ATOM     11  N   UNL     1       7.871   8.453  -0.018  0.00  0.00    -0.130 NA
BRANCH  10  12
ATOM     12  C   UNL     1      10.038   9.593  -0.035  0.00  0.00    +0.263 C 
BRANCH  12  13
ATOM     13  C   UNL     1      10.552   9.604   1.381  0.00  0.00    +0.234 C 
ATOM     14  O   UNL     1       9.773   9.567   2.309  0.00  0.00    -0.274 OA
ATOM     15  N   UNL     1      11.879   9.656   1.615  0.00  0.00    -0.328 N 
ATOM     16  H   UNL     1      12.502   9.686   0.873  0.00  0.00    +0.145 HD
ATOM     17  H   UNL     1      12.210   9.664   2.527  0.00  0.00    +0.145 HD
ENDBRANCH  12  13
ENDBRANCH  10  12
ENDBRANCH   6   7
BRANCH   3  18
ATOM     18  O   UNL     1       2.183   5.335   0.011  0.00  0.00    -0.487 OA
BRANCH  18  19
ATOM     19  C   UNL     1       2.458   3.933   0.001  0.00  0.00    +0.265 C 
BRANCH  19  20
ATOM     20  C   UNL     1       1.161   3.166   0.008  0.00  0.00    +0.007 A 
ATOM     21  C   UNL     1      -0.043   3.847   0.023  0.00  0.00    +0.057 A 
ATOM     22  C   UNL     1      -1.237   3.145   0.030  0.00  0.00    +0.167 A 
ATOM     23  C   UNL     1      -1.221   1.752   0.017  0.00  0.00    +0.167 A 
ATOM     24  C   UNL     1      -0.013   1.076   0.008  0.00  0.00    +0.065 A 
ATOM     25  C   UNL     1       1.176   1.784   0.000  0.00  0.00    +0.028 A 
ATOM     26 BR   UNL     1       2.825   0.858  -0.020  0.00  0.00    -0.050 Br
ATOM     27  O   UNL     1      -2.510   1.301   0.032  0.00  0.00    -0.453 OA
ATOM     28  C   UNL     1      -3.306   2.423   0.458  0.00  0.00    +0.466 C 
ATOM     29  O   UNL     1      -2.535   3.567   0.044  0.00  0.00    -0.453 OA
ENDBRANCH  19  20
ENDBRANCH  18  19
ENDBRANCH   3  18
TORSDOF 6
