REMARK  Name = ZINC40390629
REMARK  4 active torsions:
REMARK  status: ('A' for Active; 'I' for Inactive)
REMARK    1  A    between atoms: C_1  and  C_2
REMARK    2  A    between atoms: C_2  and  C_3
REMARK    3  A    between atoms: C_22  and  C_24
REMARK    4  A    between atoms: N_26  and  C_27
REMARK                            x       y       z     vdW  Elec       q    Type
REMARK                         _______ _______ _______ _____ _____    ______ ____
ROOT
ATOM      1  C   UNL     1      -2.058   0.182  -0.137  0.00  0.00    +0.076 C 
ATOM      2  C   UNL     1      -1.585  -1.123  -0.785  0.00  0.00    +0.022 C 
ATOM      3  C   UNL     1      -2.524  -2.260  -0.377  0.00  0.00    +0.003 C 
ATOM      4  C   UNL     1      -2.487  -2.434   1.143  0.00  0.00    +0.019 C 
ATOM      5  C   UNL     1      -2.970  -1.145   1.813  0.00  0.00    +0.108 C 
ATOM      6  N   UNL     1      -2.167  -0.019   1.315  0.00  0.00    -0.298 N 
ATOM      7  C   UNL     1      -1.528   0.822   2.186  0.00  0.00    +0.200 A 
ATOM      8  N   UNL     1      -2.141   1.162   3.352  0.00  0.00    -0.295 N 
ATOM      9  H   UNL     1      -3.015   0.799   3.564  0.00  0.00    +0.172 HD
ATOM     10  C   UNL     1      -1.534   2.005   4.215  0.00  0.00    +0.258 A 
ATOM     11  O   UNL     1      -2.080   2.330   5.257  0.00  0.00    -0.267 OA
ATOM     12  C   UNL     1      -0.266   2.497   3.890  0.00  0.00    +0.069 A 
ATOM     13  C   UNL     1       0.325   2.105   2.702  0.00  0.00    +0.138 A 
ATOM     14  N   UNL     1      -0.333   1.280   1.878  0.00  0.00    -0.200 NA
ATOM     15  N   UNL     1       1.597   2.544   2.377  0.00  0.00    -0.270 N 
ATOM     16  C   UNL     1       2.381   3.130   3.297  0.00  0.00    +0.219 C 
ATOM     17  O   UNL     1       3.447   3.602   2.963  0.00  0.00    -0.275 OA
ATOM     18  C   UNL     1       1.952   3.209   4.739  0.00  0.00    +0.114 C 
ATOM     19  C   UNL     1       0.443   3.449   4.815  0.00  0.00    +0.122 C 
ATOM     20  H   UNL     1       1.927   2.425   1.473  0.00  0.00    +0.156 HD
ENDROOT
BRANCH  19  21
ATOM     21  C   UNL     1      -0.030   3.221   6.228  0.00  0.00    +0.225 C 
ATOM     22  O   UNL     1       0.052   2.118   6.725  0.00  0.00    -0.275 OA
ATOM     23  N   UNL     1      -0.544   4.244   6.940  0.00  0.00    -0.284 N 
ATOM     24  H   UNL     1      -0.674   5.109   6.521  0.00  0.00    +0.155 HD
BRANCH  23  25
ATOM     25  C   UNL     1      -0.890   4.058   8.283  0.00  0.00    +0.053 A 
ATOM     26  C   UNL     1      -0.153   3.189   9.077  0.00  0.00    +0.044 A 
ATOM     27  C   UNL     1      -0.497   3.007  10.403  0.00  0.00    +0.043 A 
ATOM     28  C   UNL     1      -1.575   3.691  10.940  0.00  0.00    +0.021 A 
ATOM     29  C   UNL     1      -2.310   4.556  10.152  0.00  0.00    +0.023 A 
ATOM     30  C   UNL     1      -1.967   4.746   8.826  0.00  0.00    +0.062 A 
ATOM     31 CL   UNL     1      -2.887   5.839   7.839  0.00  0.00    -0.082 Cl
ATOM     32 CL   UNL     1       0.422   1.920  11.397  0.00  0.00    -0.083 Cl
ENDBRANCH  23  25
ENDBRANCH  19  21
BRANCH   1  34
ATOM     33  C   UNL     1      -1.000   1.561  -1.932  0.00  0.00    +0.006 C 
ATOM     34  C   UNL     1      -1.048   1.294  -0.426  0.00  0.00    +0.019 C 
ENDBRANCH   1  34
TORSDOF 3
