REMARK  Name = ZINC67036766
REMARK  7 active torsions:
REMARK  status: ('A' for Active; 'I' for Inactive)
REMARK    1  A    between atoms: C_1  and  C_2
REMARK    2  A    between atoms: C_6  and  C_7
REMARK    3  A    between atoms: N_9  and  N_10
REMARK    4  A    between atoms: N_13  and  C_14
REMARK    5  A    between atoms: C_14  and  C_15
REMARK    6  A    between atoms: C_15  and  C_17
REMARK    7  A    between atoms: C_15  and  N_22
REMARK                            x       y       z     vdW  Elec       q    Type
REMARK                         _______ _______ _______ _____ _____    ______ ____
ROOT
ATOM      1  N   UNL     1       2.680  -2.376   8.911  0.00  0.00    -0.218 N 
ATOM      2  C   UNL     1       1.620  -2.518   8.091  0.00  0.00    +0.316 C 
ATOM      3  O   UNL     1       0.901  -1.566   7.856  0.00  0.00    -0.251 OA
ATOM      4  N   UNL     1       1.357  -3.716   7.531  0.00  0.00    -0.299 N 
ATOM      5  H   UNL     1       2.869  -1.515   9.314  0.00  0.00    +0.174 HD
ATOM      6  H   UNL     1       1.931  -4.475   7.718  0.00  0.00    +0.150 HD
ENDROOT
BRANCH   1   9
ATOM      7  C   UNL     1       4.568  -3.331  10.002  0.00  0.00    +0.267 C 
ATOM      8  O   UNL     1       4.806  -2.250  10.508  0.00  0.00    -0.268 OA
ATOM      9  N   UNL     1       3.508  -3.473   9.181  0.00  0.00    -0.229 N 
ATOM     10  H   UNL     1       3.319  -4.335   8.778  0.00  0.00    +0.173 HD
BRANCH   7  16
ATOM     11  C   UNL     1       7.083  -3.347  11.840  0.00  0.00    +0.045 C 
ATOM     12  C   UNL     1       6.562  -4.546  11.090  0.00  0.00    -0.031 A 
ATOM     13  C   UNL     1       7.169  -5.776  11.166  0.00  0.00    +0.011 A 
ATOM     14  C   UNL     1       6.647  -6.813  10.465  0.00  0.00    +0.046 A 
ATOM     15  S   UNL     1       5.316  -6.152   9.682  0.00  0.00    -0.092 S 
ATOM     16  C   UNL     1       5.435  -4.479  10.285  0.00  0.00    +0.078 A 
ENDBRANCH   7  16
ENDBRANCH   1   9
BRANCH   4  17
ATOM     17  C   UNL     1       0.205  -3.870   6.639  0.00  0.00    +0.098 C 
BRANCH  17  18
ATOM     18  C   UNL     1       0.193  -5.287   6.062  0.00  0.00    +0.016 C 
BRANCH  18  19
ATOM     19  N   UNL     1      -0.882  -5.402   5.068  0.00  0.00    +0.387 N 
ATOM     20  C   UNL     1      -0.627  -4.484   3.929  0.00  0.00    -0.078 C 
ATOM     21  C   UNL     1      -1.462  -5.103   2.780  0.00  0.00    -0.020 C 
ATOM     22  C   UNL     1      -1.293  -6.622   3.009  0.00  0.00    -0.020 C 
ATOM     23  C   UNL     1      -0.901  -6.764   4.492  0.00  0.00    -0.078 C 
ATOM     24  H   UNL     1      -1.773  -5.192   5.492  0.00  0.00    -0.081 HD
ENDBRANCH  18  19
BRANCH  18  25
ATOM     25  C   UNL     1      -0.042  -6.279   7.172  0.00  0.00    +0.093 A 
ATOM     26  C   UNL     1       0.906  -7.009   7.788  0.00  0.00    +0.043 A 
ATOM     27  C   UNL     1       0.248  -7.800   8.758  0.00  0.00    +0.041 A 
ATOM     28  C   UNL     1      -1.062  -7.507   8.676  0.00  0.00    +0.195 A 
ATOM     29  O   UNL     1      -1.231  -6.581   7.718  0.00  0.00    -0.469 OA
ENDBRANCH  18  25
ENDBRANCH  17  18
ENDBRANCH   4  17
TORSDOF 6
