REMARK  Name = ZINC08672207
REMARK  10 active torsions:
REMARK  status: ('A' for Active; 'I' for Inactive)
REMARK    1  A    between atoms: C_1  and  C_2
REMARK    2  A    between atoms: C_5  and  C_8
REMARK    3  A    between atoms: C_8  and  C_10
REMARK    4  A    between atoms: C_8  and  N_19
REMARK    5  A    between atoms: N_12  and  C_13
REMARK    6  A    between atoms: N_19  and  C_20
REMARK    7  A    between atoms: C_20  and  C_21
REMARK    8  A    between atoms: C_27  and  C_29
REMARK    9  A    between atoms: C_29  and  N_30
REMARK   10  A    between atoms: C_31  and  C_33
REMARK                            x       y       z     vdW  Elec       q    Type
REMARK                         _______ _______ _______ _____ _____    ______ ____
ROOT
ATOM      1  N   UNL     1      -0.919  -4.742   0.976  0.00  0.00    -0.282 N 
ATOM      2  C   UNL     1      -2.261  -4.769   0.860  0.00  0.00    +0.234 C 
ATOM      3  O   UNL     1      -2.807  -4.129  -0.014  0.00  0.00    -0.274 OA
ENDROOT
BRANCH   1   4
ATOM      4  C   UNL     1      -0.119  -3.941   0.046  0.00  0.00    +0.192 C 
BRANCH   4   9
ATOM      5  C   UNL     1      -1.816   1.577   0.312  0.00  0.00    +0.044 C 
ATOM      6  C   UNL     1      -1.373   0.138   0.242  0.00  0.00    -0.050 A 
ATOM      7  C   UNL     1      -0.950  -0.398  -0.959  0.00  0.00    +0.004 A 
ATOM      8  C   UNL     1      -0.544  -1.718  -1.023  0.00  0.00    +0.006 A 
ATOM      9  C   UNL     1      -0.561  -2.501   0.116  0.00  0.00    -0.018 A 
ATOM     10  C   UNL     1      -0.983  -1.965   1.318  0.00  0.00    +0.006 A 
ATOM     11  C   UNL     1      -1.385  -0.644   1.382  0.00  0.00    +0.004 A 
ENDBRANCH   4   9
BRANCH   4  12
ATOM     12  C   UNL     1       1.337  -4.038   0.423  0.00  0.00    +0.238 C 
ATOM     13  O   UNL     1       1.676  -4.733   1.357  0.00  0.00    -0.273 OA
ATOM     14  N   UNL     1       2.262  -3.352  -0.277  0.00  0.00    -0.311 N 
ATOM     15  H   UNL     1       1.990  -2.796  -1.024  0.00  0.00    +0.149 HD
BRANCH  14  16
ATOM     16  C   UNL     1       3.677  -3.447   0.089  0.00  0.00    +0.073 C 
ATOM     17  C   UNL     1       3.985  -2.440   1.200  0.00  0.00    +0.022 C 
ATOM     18  C   UNL     1       5.463  -2.539   1.583  0.00  0.00    +0.002 C 
ATOM     19  C   UNL     1       6.328  -2.230   0.359  0.00  0.00    +0.000 C 
ATOM     20  C   UNL     1       6.021  -3.236  -0.751  0.00  0.00    +0.002 C 
ATOM     21  C   UNL     1       4.543  -3.138  -1.134  0.00  0.00    +0.022 C 
ENDBRANCH  14  16
ENDBRANCH   4  12
ENDBRANCH   1   4
BRANCH   1  22
ATOM     22  C   UNL     1      -0.260  -5.515   2.031  0.00  0.00    +0.140 C 
BRANCH  22  23
ATOM     23  C   UNL     1       0.208  -4.569   3.139  0.00  0.00    +0.136 C 
ATOM     24  C   UNL     1       1.008  -5.358   4.198  0.00  0.00    +0.035 C 
ATOM     25  C   UNL     1       0.533  -4.705   5.524  0.00  0.00    +0.031 C 
ATOM     26  C   UNL     1      -0.941  -4.378   5.179  0.00  0.00    +0.160 C 
ATOM     27  O   UNL     1      -0.926  -3.990   3.795  0.00  0.00    -0.375 OA
ENDBRANCH  22  23
ENDBRANCH   1  22
BRANCH   2  28
ATOM     28  C   UNL     1      -3.084  -5.593   1.815  0.00  0.00    +0.200 C 
BRANCH  28  29
ATOM     29  N   UNL     1      -4.504  -5.456   1.482  0.00  0.00    -0.302 N 
ATOM     30  C   UNL     1      -5.433  -6.109   2.208  0.00  0.00    +0.251 C 
ATOM     31  O   UNL     1      -5.093  -6.813   3.140  0.00  0.00    -0.270 OA
ATOM     32  H   UNL     1      -4.776  -4.894   0.739  0.00  0.00    +0.150 HD
BRANCH  30  33
ATOM     33  C   UNL     1      -6.854  -5.971   1.874  0.00  0.00    +0.074 A 
ATOM     34  C   UNL     1      -7.956  -6.545   2.490  0.00  0.00    +0.021 A 
ATOM     35  C   UNL     1      -9.177  -6.226   1.946  0.00  0.00    +0.008 A 
ATOM     36  C   UNL     1      -9.225  -5.396   0.875  0.00  0.00    +0.046 A 
ATOM     37  S   UNL     1      -7.616  -5.015   0.576  0.00  0.00    -0.092 S 
ENDBRANCH  30  33
ENDBRANCH  28  29
ENDBRANCH   2  28
TORSDOF 9
