REMARK  Name = ZINC64815832
REMARK  9 active torsions:
REMARK  status: ('A' for Active; 'I' for Inactive)
REMARK    1  A    between atoms: C_1  and  C_2
REMARK    2  A    between atoms: C_2  and  C_25
REMARK    3  A    between atoms: C_7  and  C_9
REMARK    4  A    between atoms: N_16  and  C_17
REMARK    5  A    between atoms: C_17  and  C_18
REMARK    6  A    between atoms: N_27  and  C_28
REMARK    7  A    between atoms: C_28  and  C_29
REMARK    8  A    between atoms: C_28  and  C_30
REMARK    9  A    between atoms: C_28  and  C_31
REMARK                            x       y       z     vdW  Elec       q    Type
REMARK                         _______ _______ _______ _____ _____    ______ ____
ROOT
ATOM      1  C   UNL     1       0.291   1.496   0.389  0.00  0.00    +0.044 C 
ATOM      2  C   UNL     1       0.093  -0.012   0.223  0.00  0.00    +0.130 C 
ATOM      3  C   UNL     1      -1.400  -0.302   0.080  0.00  0.00    +0.179 C 
ATOM      4  N   UNL     1      -2.054  -0.139   1.384  0.00  0.00    -0.256 N 
ATOM      5  C   UNL     1      -1.374  -0.387   2.558  0.00  0.00    +0.124 A 
ATOM      6  C   UNL     1      -2.248  -0.176   3.584  0.00  0.00    +0.063 A 
ATOM      7  C   UNL     1      -3.454   0.215   2.961  0.00  0.00    +0.100 A 
ATOM      8  N   UNL     1      -3.249   0.215   1.655  0.00  0.00    -0.170 NA
ATOM      9  C   UNL     1       0.043  -0.785   2.554  0.00  0.00    +0.266 C 
ATOM     10  O   UNL     1       0.603  -1.174   3.561  0.00  0.00    -0.268 OA
ATOM     11  N   UNL     1       0.690  -0.694   1.367  0.00  0.00    -0.276 N 
ENDROOT
BRANCH   7  12
ATOM     12  C   UNL     1      -4.719   0.564   3.646  0.00  0.00    +0.039 A 
ATOM     13  C   UNL     1      -5.917   0.943   3.105  0.00  0.00    +0.018 A 
ATOM     14  C   UNL     1      -6.968   1.220   3.952  0.00  0.00    +0.008 A 
ATOM     15  C   UNL     1      -6.785   1.109   5.292  0.00  0.00    +0.046 A 
ATOM     16  S   UNL     1      -5.080   0.590   5.394  0.00  0.00    -0.095 S 
ENDBRANCH   7  12
BRANCH   2  17
ATOM     17  C   UNL     1       0.797  -0.460  -1.032  0.00  0.00    +0.239 C 
ATOM     18  O   UNL     1       1.178   0.361  -1.839  0.00  0.00    -0.273 OA
ATOM     19  N   UNL     1       1.004  -1.773  -1.257  0.00  0.00    -0.309 N 
ATOM     20  H   UNL     1       0.763  -2.425  -0.580  0.00  0.00    +0.149 HD
BRANCH  19  21
ATOM     21  C   UNL     1       1.591  -2.215  -2.524  0.00  0.00    +0.026 C 
ATOM     22  C   UNL     1       2.977  -1.589  -2.690  0.00  0.00    +0.031 C 
ATOM     23  C   UNL     1       1.716  -3.740  -2.523  0.00  0.00    +0.031 C 
ATOM     24  C   UNL     1       0.692  -1.778  -3.683  0.00  0.00    +0.031 C 
ENDBRANCH  19  21
ENDBRANCH   2  17
BRANCH  11  25
ATOM     25  C   UNL     1       2.019  -1.295   1.228  0.00  0.00    +0.144 C 
BRANCH  25  26
ATOM     26  C   UNL     1       3.061  -0.330   1.733  0.00  0.00    -0.029 A 
ATOM     27  C   UNL     1       3.572   0.639   0.890  0.00  0.00    +0.005 A 
ATOM     28  C   UNL     1       4.528   1.524   1.353  0.00  0.00    +0.002 A 
ATOM     29  C   UNL     1       4.974   1.440   2.658  0.00  0.00    +0.020 A 
ATOM     30  C   UNL     1       4.464   0.470   3.502  0.00  0.00    +0.041 A 
ATOM     31  C   UNL     1       3.502  -0.412   3.040  0.00  0.00    +0.025 A 
ATOM     32 CL   UNL     1       5.024   0.363   5.142  0.00  0.00    -0.084 Cl
ENDBRANCH  25  26
ENDBRANCH  11  25
TORSDOF 5
