REMARK  Name = ZINC16216464
REMARK  12 active torsions:
REMARK  status: ('A' for Active; 'I' for Inactive)
REMARK    1  A    between atoms: C_1  and  C_2
REMARK    2  A    between atoms: C_2  and  C_3
REMARK    3  A    between atoms: C_7  and  C_23
REMARK    4  A    between atoms: C_8  and  N_9
REMARK    5  A    between atoms: N_9  and  C_10
REMARK    6  A    between atoms: C_10  and  N_12
REMARK    7  A    between atoms: N_12  and  C_13
REMARK    8  A    between atoms: C_15  and  C_21
REMARK    9  A    between atoms: C_15  and  C_22
REMARK   10  A    between atoms: C_17  and  C_19
REMARK   11  A    between atoms: C_17  and  C_20
REMARK   12  A    between atoms: C_23  and  C_24
REMARK                            x       y       z     vdW  Elec       q    Type
REMARK                         _______ _______ _______ _____ _____    ______ ____
ROOT
ATOM      1  C   UNL     1      -2.331   0.748   3.312  0.00  0.00    +0.135 C 
ATOM      2  S   UNL     1      -1.815  -0.123   4.692  0.00  0.00    -0.019 S 
ENDROOT
BRANCH   1   3
ATOM      3  N   UNL     1      -1.421   1.272   2.466  0.00  0.00    -0.296 N 
ATOM      4  H   UNL     1      -1.712   1.822   1.722  0.00  0.00    +0.154 HD
BRANCH   3  10
ATOM      5  C   UNL     1       0.669   1.797   3.557  0.00  0.00    -0.026 A 
ATOM      6  C   UNL     1       2.012   1.544   3.752  0.00  0.00    +0.005 A 
ATOM      7  C   UNL     1       2.634   0.525   3.055  0.00  0.00    +0.001 A 
ATOM      8  C   UNL     1       1.914  -0.245   2.160  0.00  0.00    +0.005 A 
ATOM      9  C   UNL     1       0.570   0.003   1.960  0.00  0.00    -0.026 A 
ATOM     10  C   UNL     1      -0.059   1.022   2.663  0.00  0.00    +0.039 A 
BRANCH   5  12
ATOM     11  C   UNL     1       0.940   3.442   5.392  0.00  0.00    +0.009 C 
ATOM     12  C   UNL     1      -0.009   2.908   4.317  0.00  0.00    +0.033 C 
ENDBRANCH   5  12
BRANCH   9  13
ATOM     13  C   UNL     1      -0.214  -0.836   0.984  0.00  0.00    +0.033 C 
ATOM     14  C   UNL     1      -0.328  -0.095  -0.349  0.00  0.00    +0.009 C 
ENDBRANCH   9  13
ENDBRANCH   3  10
ENDBRANCH   1   3
BRANCH   1  15
ATOM     15  N   UNL     1      -3.647   0.909   3.070  0.00  0.00    -0.324 N 
ATOM     16  H   UNL     1      -3.940   1.402   2.288  0.00  0.00    +0.148 HD
BRANCH  15  17
ATOM     17  C   UNL     1      -4.638   0.338   3.991  0.00  0.00    +0.069 C 
ATOM     18  C   UNL     1      -4.925  -1.109   3.585  0.00  0.00    +0.009 C 
ATOM     19  C   UNL     1      -5.965  -1.714   4.528  0.00  0.00    -0.072 C 
ATOM     20  N   UNL     1      -7.173  -0.906   4.604  0.00  0.00    +0.386 N 
ATOM     21  C   UNL     1      -7.015   0.528   4.783  0.00  0.00    -0.072 C 
ATOM     22  C   UNL     1      -5.939   1.132   3.887  0.00  0.00    +0.009 C 
ATOM     23  C   UNL     1      -8.358   1.194   4.399  0.00  0.00    -0.010 C 
ATOM     24  C   UNL     1      -6.740   0.889   6.245  0.00  0.00    -0.010 C 
ATOM     25  C   UNL     1      -5.350  -1.961   5.905  0.00  0.00    -0.010 C 
ATOM     26  C   UNL     1      -6.361  -3.093   3.950  0.00  0.00    -0.010 C 
ATOM     27  H   UNL     1      -7.719  -1.066   3.754  0.00  0.00    -0.084 HD
ATOM     28  H   UNL     1      -7.752  -1.265   5.367  0.00  0.00    -0.084 HD
ENDBRANCH  15  17
ENDBRANCH   1  15
TORSDOF 6
