REMARK  Name = ZINC17878411
REMARK  3 active torsions:
REMARK  status: ('A' for Active; 'I' for Inactive)
REMARK    1  A    between atoms: C_1  and  N_2
REMARK    2  A    between atoms: C_9  and  C_12
REMARK    3  A    between atoms: C_9  and  O_20
REMARK                            x       y       z     vdW  Elec       q    Type
REMARK                         _______ _______ _______ _____ _____    ______ ____
ROOT
ATOM      1  C   UNL     1      -0.018   1.461   0.010  0.00  0.00    +0.138 C 
ATOM      2  N   UNL     1       0.002  -0.004   0.002  0.00  0.00    -0.271 N 
ATOM      3  C   UNL     1      -1.146  -0.798   0.003  0.00  0.00    +0.043 A 
ATOM      4  C   UNL     1      -2.495  -0.448   0.013  0.00  0.00    +0.025 A 
ATOM      5  C   UNL     1      -3.465  -1.429   0.013  0.00  0.00    +0.017 A 
ATOM      6  C   UNL     1      -3.108  -2.766   0.003  0.00  0.00    +0.018 A 
ATOM      7  C   UNL     1      -1.769  -3.121  -0.007  0.00  0.00    +0.024 A 
ATOM      8  C   UNL     1      -0.800  -2.143  -0.007  0.00  0.00    +0.017 A 
ATOM      9  C   UNL     1       0.711  -2.193  -0.015  0.00  0.00    +0.189 C 
ATOM     10  C   UNL     1       1.128  -0.738  -0.013  0.00  0.00    +0.258 C 
ATOM     11  O   UNL     1       2.264  -0.314  -0.022  0.00  0.00    -0.272 OA
ATOM     12 BR   UNL     1      -4.443  -4.104   0.005  0.00  0.00    -0.050 Br
ENDROOT
BRANCH   9  13
ATOM     13  C   UNL     1       1.230  -2.905   1.236  0.00  0.00    +0.187 C 
ATOM     14  C   UNL     1       2.743  -2.769   1.367  0.00  0.00    +0.255 C 
ATOM     15  O   UNL     1       3.531  -3.213   0.555  0.00  0.00    -0.272 OA
ATOM     16  N   UNL     1       3.102  -2.123   2.447  0.00  0.00    -0.159 NA
ATOM     17  C   UNL     1       2.256  -1.636   3.336  0.00  0.00    +0.145 C 
ATOM     18  S   UNL     1       0.719  -2.028   2.771  0.00  0.00    -0.077 S 
ATOM     19  N   UNL     1       2.564  -0.956   4.478  0.00  0.00    -0.340 N 
ATOM     20  H   UNL     1       3.492  -0.786   4.706  0.00  0.00    +0.144 HD
ATOM     21  H   UNL     1       1.856  -0.642   5.061  0.00  0.00    +0.144 HD
ENDBRANCH   9  13
BRANCH   9  22
ATOM     22  O   UNL     1       1.184  -2.844  -1.196  0.00  0.00    -0.373 OA
ATOM     23  H   UNL     1       0.909  -2.416  -2.018  0.00  0.00    +0.211 HD
ENDBRANCH   9  22
TORSDOF 2
