REMARK  Name = ZINC46670223
REMARK  6 active torsions:
REMARK  status: ('A' for Active; 'I' for Inactive)
REMARK    1  A    between atoms: C_1  and  C_2
REMARK    2  A    between atoms: C_10  and  C_11
REMARK    3  A    between atoms: N_13  and  N_14
REMARK    4  A    between atoms: C_15  and  C_17
REMARK    5  A    between atoms: C_17  and  N_18
REMARK    6  A    between atoms: C_19  and  C_21
REMARK                            x       y       z     vdW  Elec       q    Type
REMARK                         _______ _______ _______ _____ _____    ______ ____
ROOT
ATOM      1  C   UNL     1       0.032  -0.382   2.484  0.00  0.00    +0.296 C 
ATOM      2  O   UNL     1       0.019   0.806   2.745  0.00  0.00    -0.265 OA
ATOM      3  N   UNL     1       0.054  -1.291   3.479  0.00  0.00    -0.228 N 
ATOM      4  H   UNL     1       0.065  -2.238   3.270  0.00  0.00    +0.173 HD
ENDROOT
BRANCH   1  14
ATOM      5  C   UNL     1      -0.018   1.503   0.010  0.00  0.00    +0.048 C 
ATOM      6  C   UNL     1       0.002  -0.004   0.002  0.00  0.00    +0.008 A 
ATOM      7  C   UNL     1       0.009  -0.877  -1.171  0.00  0.00    +0.024 A 
ATOM      8  C   UNL     1      -0.001  -0.654  -2.551  0.00  0.00    +0.012 A 
ATOM      9  C   UNL     1       0.009  -1.718  -3.408  0.00  0.00    +0.001 A 
ATOM     10  C   UNL     1       0.029  -3.017  -2.918  0.00  0.00    +0.004 A 
ATOM     11  C   UNL     1       0.039  -3.257  -1.561  0.00  0.00    +0.047 A 
ATOM     12  C   UNL     1       0.029  -2.191  -0.669  0.00  0.00    +0.136 A 
ATOM     13  O   UNL     1       0.035  -2.113   0.676  0.00  0.00    -0.450 OA
ATOM     14  C   UNL     1       0.024  -0.826   1.083  0.00  0.00    +0.195 A 
ENDBRANCH   1  14
BRANCH   3  15
ATOM     15  N   UNL     1       0.062  -0.867   4.814  0.00  0.00    -0.233 N 
ATOM     16  C   UNL     1       0.084  -1.776   5.809  0.00  0.00    +0.246 C 
ATOM     17  O   UNL     1       0.097  -2.960   5.549  0.00  0.00    -0.273 OA
ATOM     18  H   UNL     1       0.051   0.080   5.022  0.00  0.00    +0.173 HD
BRANCH  16  19
ATOM     19  C   UNL     1       0.092  -1.320   7.246  0.00  0.00    +0.202 C 
BRANCH  19  20
ATOM     20  N   UNL     1       0.117  -2.489   8.129  0.00  0.00    -0.303 N 
ATOM     21  C   UNL     1       0.128  -2.323   9.466  0.00  0.00    +0.248 C 
ATOM     22  O   UNL     1       0.118  -1.203   9.940  0.00  0.00    -0.270 OA
ATOM     23  H   UNL     1       0.125  -3.382   7.751  0.00  0.00    +0.150 HD
BRANCH  21  24
ATOM     24  C   UNL     1       0.153  -3.499  10.354  0.00  0.00    +0.074 A 
ATOM     25  C   UNL     1       0.162  -3.502  11.824  0.00  0.00    +0.054 A 
ATOM     26  C   UNL     1       0.184  -4.793  12.190  0.00  0.00    +0.195 A 
ATOM     27  O   UNL     1       0.190  -5.561  11.090  0.00  0.00    -0.470 OA
ATOM     28  C   UNL     1       0.166  -4.812   9.984  0.00  0.00    +0.207 A 
ENDBRANCH  21  24
ENDBRANCH  19  20
ENDBRANCH  16  19
ENDBRANCH   3  15
TORSDOF 5
