REMARK  Name = ZINC38140495
REMARK  10 active torsions:
REMARK  status: ('A' for Active; 'I' for Inactive)
REMARK    1  A    between atoms: C_1  and  C_2
REMARK    2  A    between atoms: N_7  and  C_9
REMARK    3  A    between atoms: C_9  and  C_10
REMARK    4  A    between atoms: C_10  and  C_11
REMARK    5  A    between atoms: C_11  and  N_12
REMARK    6  A    between atoms: C_13  and  C_15
REMARK    7  A    between atoms: C_15  and  N_16
REMARK    8  A    between atoms: C_19  and  S_27
REMARK    9  A    between atoms: S_27  and  N_30
REMARK   10  A    between atoms: C_33  and  C_36
REMARK                            x       y       z     vdW  Elec       q    Type
REMARK                         _______ _______ _______ _____ _____    ______ ____
ROOT
ATOM      1  N   UNL     1       2.981  -8.607   6.181  0.00  0.00    -0.261 N 
ATOM      2  C   UNL     1       4.340  -8.899   6.104  0.00  0.00    +0.052 A 
ATOM      3  C   UNL     1       5.107  -8.326   5.096  0.00  0.00    +0.053 A 
ATOM      4  C   UNL     1       6.456  -8.608   5.002  0.00  0.00    +0.107 A 
ATOM      5  C   UNL     1       7.058  -9.461   5.908  0.00  0.00    +0.030 A 
ATOM      6  C   UNL     1       6.308 -10.037   6.918  0.00  0.00    +0.018 A 
ATOM      7  C   UNL     1       4.956  -9.756   7.018  0.00  0.00    +0.030 A 
ATOM      8  S   UNL     1       3.989 -10.475   8.307  0.00  0.00    -0.114 S 
ATOM      9  C   UNL     1       2.709  -9.215   8.590  0.00  0.00    +0.170 C 
ATOM     10  C   UNL     1       2.211  -8.720   7.260  0.00  0.00    +0.230 C 
ATOM     11  O   UNL     1       1.042  -8.410   7.165  0.00  0.00    -0.274 OA
ENDROOT
BRANCH   4  12
ATOM     12  S   UNL     1       7.415  -7.875   3.719  0.00  0.00    +0.061 S 
ATOM     13  O   UNL     1       8.537  -8.723   3.517  0.00  0.00    -0.153 OA
ATOM     14  O   UNL     1       6.511  -7.544   2.674  0.00  0.00    -0.153 OA
BRANCH  12  15
ATOM     15  N   UNL     1       8.005  -6.442   4.306  0.00  0.00    -0.177 NA
ATOM     16  C   UNL     1       7.240  -5.198   4.149  0.00  0.00    +0.110 C 
ATOM     17  C   UNL     1       8.137  -4.148   3.485  0.00  0.00    +0.020 C 
ATOM     18  C   UNL     1       9.424  -3.996   4.298  0.00  0.00    -0.012 C 
ATOM     19  C   UNL     1      10.176  -5.329   4.321  0.00  0.00    +0.020 C 
ATOM     20  C   UNL     1       9.299  -6.393   4.999  0.00  0.00    +0.110 C 
ATOM     21  C   UNL     1      10.308  -2.924   3.658  0.00  0.00    +0.007 C 
ENDBRANCH  12  15
ENDBRANCH   4  12
BRANCH   1  22
ATOM     22  C   UNL     1       2.337  -8.125   4.956  0.00  0.00    +0.209 C 
BRANCH  22  24
ATOM     23  N   UNL     1       1.902  -5.954   3.854  0.00  0.00    -0.314 N 
ATOM     24  C   UNL     1       2.430  -6.622   4.899  0.00  0.00    +0.231 C 
ATOM     25  O   UNL     1       2.979  -6.014   5.793  0.00  0.00    -0.274 OA
ATOM     26  H   UNL     1       1.463  -6.441   3.139  0.00  0.00    +0.149 HD
BRANCH  23  27
ATOM     27  C   UNL     1       1.992  -4.493   3.798  0.00  0.00    +0.102 C 
BRANCH  27  28
ATOM     28  C   UNL     1       1.320  -3.989   2.519  0.00  0.00    +0.000 C 
BRANCH  28  29
ATOM     29  C   UNL     1       1.413  -2.463   2.461  0.00  0.00    -0.077 C 
BRANCH  29  35
ATOM     30  C   UNL     1      -0.019   1.526   0.010  0.00  0.00    +0.005 C 
ATOM     31  C   UNL     1       0.002  -0.004   0.002  0.00  0.00    -0.031 C 
ATOM     32  C   UNL     1       0.721  -0.499  -1.257  0.00  0.00    -0.001 C 
ATOM     33  C   UNL     1       0.805  -2.027  -1.217  0.00  0.00    -0.018 C 
ATOM     34  C   UNL     1       1.518  -2.460   0.066  0.00  0.00    -0.079 C 
ATOM     35  N   UNL     1       0.768  -1.979   1.233  0.00  0.00    +0.380 N 
ATOM     36  C   UNL     1       0.744  -0.512   1.240  0.00  0.00    -0.076 C 
ATOM     37  H   UNL     1      -0.177  -2.330   1.192  0.00  0.00    -0.082 HD
ENDBRANCH  29  35
ENDBRANCH  28  29
ENDBRANCH  27  28
ENDBRANCH  23  27
ENDBRANCH  22  24
ENDBRANCH   1  22
TORSDOF 8
