REMARK  Name = ZINC18230270
REMARK  5 active torsions:
REMARK  status: ('A' for Active; 'I' for Inactive)
REMARK    1  A    between atoms: C_1  and  C_2
REMARK    2  A    between atoms: C_5  and  C_8
REMARK    3  A    between atoms: C_10  and  C_13
REMARK    4  A    between atoms: C_13  and  C_14
REMARK    5  A    between atoms: N_16  and  N_17
REMARK                            x       y       z     vdW  Elec       q    Type
REMARK                         _______ _______ _______ _____ _____    ______ ____
ROOT
ATOM      1  C   UNL     1      -3.234   1.963   1.189  0.00  0.00    +0.235 C 
ATOM      2  O   UNL     1      -2.686   2.735   1.946  0.00  0.00    -0.274 OA
ATOM      3  N   UNL     1      -4.521   1.618   1.393  0.00  0.00    -0.223 N 
ATOM      4  H   UNL     1      -4.960   1.000   0.788  0.00  0.00    +0.174 HD
ENDROOT
BRANCH   3   5
ATOM      5  N   UNL     1      -5.225   2.151   2.481  0.00  0.00    -0.137 N 
ATOM      6  C   UNL     1      -6.159   3.119   2.378  0.00  0.00    +0.263 C 
ATOM      7  O   UNL     1      -6.536   3.671   1.367  0.00  0.00    -0.271 OA
ATOM      8  C   UNL     1      -6.638   3.369   3.790  0.00  0.00    +0.114 C 
ATOM      9  C   UNL     1      -8.127   3.061   3.909  0.00  0.00    +0.035 C 
ATOM     10  C   UNL     1      -8.585   3.294   5.351  0.00  0.00    +0.003 C 
ATOM     11  C   UNL     1      -8.316   4.748   5.742  0.00  0.00    +0.000 C 
ATOM     12  C   UNL     1      -6.816   5.034   5.642  0.00  0.00    +0.003 C 
ATOM     13  C   UNL     1      -6.350   4.809   4.201  0.00  0.00    +0.035 C 
ATOM     14  N   UNL     1      -5.852   2.434   4.604  0.00  0.00    -0.284 N 
ATOM     15  C   UNL     1      -5.057   1.760   3.750  0.00  0.00    +0.326 C 
ATOM     16  O   UNL     1      -4.274   0.897   4.094  0.00  0.00    -0.251 OA
ATOM     17  H   UNL     1      -5.898   2.320   5.566  0.00  0.00    +0.151 HD
ENDBRANCH   3   5
BRANCH   1  18
ATOM     18  C   UNL     1      -2.477   1.389   0.019  0.00  0.00    +0.153 C 
BRANCH  18  21
ATOM     19  C   UNL     1       0.362   3.728   0.018  0.00  0.00    +0.109 A 
ATOM     20  N   UNL     1      -0.865   3.226   0.027  0.00  0.00    -0.243 NA
ATOM     21  C   UNL     1      -1.071   1.930   0.017  0.00  0.00    +0.058 A 
ATOM     22  C   UNL     1      -0.013   1.076   0.008  0.00  0.00    +0.071 A 
ATOM     23  S   UNL     1       1.348   2.236   0.001  0.00  0.00    -0.075 S 
BRANCH  19  28
ATOM     24  C   UNL     1       2.057   9.227   0.031  0.00  0.00    +0.044 C 
ATOM     25  C   UNL     1       1.613   7.787   0.028  0.00  0.00    -0.050 A 
ATOM     26  C   UNL     1       2.557   6.776   0.014  0.00  0.00    +0.004 A 
ATOM     27  C   UNL     1       2.157   5.455   0.010  0.00  0.00    +0.011 A 
ATOM     28  C   UNL     1       0.798   5.141   0.021  0.00  0.00    +0.007 A 
ATOM     29  C   UNL     1      -0.149   6.166   0.030  0.00  0.00    +0.011 A 
ATOM     30  C   UNL     1       0.264   7.482   0.039  0.00  0.00    +0.004 A 
ENDBRANCH  19  28
ENDBRANCH  18  21
ENDBRANCH   1  18
TORSDOF 4
