REMARK  Name = ZINC09012609
REMARK  9 active torsions:
REMARK  status: ('A' for Active; 'I' for Inactive)
REMARK    1  A    between atoms: C_1  and  C_2
REMARK    2  A    between atoms: C_5  and  N_9
REMARK    3  A    between atoms: C_7  and  C_8
REMARK    4  A    between atoms: C_13  and  C_14
REMARK    5  A    between atoms: C_17  and  O_32
REMARK    6  A    between atoms: C_18  and  C_20
REMARK    7  A    between atoms: C_20  and  N_21
REMARK    8  A    between atoms: O_32  and  C_33
REMARK    9  A    between atoms: C_34  and  O_38
REMARK                            x       y       z     vdW  Elec       q    Type
REMARK                         _______ _______ _______ _____ _____    ______ ____
ROOT
ATOM      1  C   UNL     1       2.071   0.120   0.877  0.00  0.00    -0.024 A 
ATOM      2  C   UNL     1       0.808  -0.493   0.902  0.00  0.00    +0.011 A 
ATOM      3  C   UNL     1       0.695  -1.803   1.267  0.00  0.00    +0.046 A 
ATOM      4  C   UNL     1       1.827  -2.529   1.626  0.00  0.00    +0.125 A 
ATOM      5  C   UNL     1       3.082  -1.927   1.609  0.00  0.00    +0.013 A 
ATOM      6  C   UNL     1       3.209  -0.618   1.240  0.00  0.00    +0.016 A 
ENDROOT
BRANCH   1  11
ATOM      7  N   UNL     1       0.174   1.623  -2.608  0.00  0.00    -0.188 N 
ATOM      8  C   UNL     1       0.820   1.079  -1.553  0.00  0.00    +0.263 C 
ATOM      9  O   UNL     1       0.836  -0.125  -1.378  0.00  0.00    -0.269 OA
ATOM     10  C   UNL     1       1.510   1.994  -0.623  0.00  0.00    +0.097 C 
ATOM     11  C   UNL     1       2.200   1.520   0.481  0.00  0.00    +0.026 C 
ATOM     12  C   UNL     1       1.432   3.433  -0.922  0.00  0.00    +0.218 C 
ATOM     13  N   UNL     1       0.757   3.819  -1.991  0.00  0.00    -0.127 NA
ATOM     14  C   UNL     1       0.152   2.950  -2.797  0.00  0.00    +0.340 C 
ATOM     15  O   UNL     1      -0.450   3.384  -3.763  0.00  0.00    -0.250 OA
BRANCH   7  20
ATOM     16  C   UNL     1      -2.509  -1.766  -6.285  0.00  0.00    +0.044 C 
ATOM     17  C   UNL     1      -1.796  -0.866  -5.309  0.00  0.00    -0.047 A 
ATOM     18  C   UNL     1      -2.524  -0.018  -4.494  0.00  0.00    +0.005 A 
ATOM     19  C   UNL     1      -1.874   0.807  -3.598  0.00  0.00    +0.024 A 
ATOM     20  C   UNL     1      -0.488   0.786  -3.516  0.00  0.00    +0.046 A 
ATOM     21  C   UNL     1       0.240  -0.062  -4.339  0.00  0.00    +0.027 A 
ATOM     22  C   UNL     1      -0.416  -0.889  -5.230  0.00  0.00    -0.046 A 
ATOM     23  C   UNL     1       0.373  -1.814  -6.120  0.00  0.00    +0.044 C 
ENDBRANCH   7  20
BRANCH  12  24
ATOM     24  O   UNL     1       2.035   4.338  -0.122  0.00  0.00    -0.493 OA
ATOM     25  H   UNL     1       1.921   5.254  -0.409  0.00  0.00    +0.294 HD
ENDBRANCH  12  24
ENDBRANCH   1  11
BRANCH   4  26
ATOM     26  O   UNL     1       1.708  -3.829   1.993  0.00  0.00    -0.495 OA
ATOM     27  C   UNL     1       0.392  -4.386   1.988  0.00  0.00    +0.277 C 
ENDBRANCH   4  26
BRANCH   5  28
ATOM     28  C   UNL     1       4.302  -2.720   1.999  0.00  0.00    +0.155 C 
BRANCH  28  29
ATOM     29  N   UNL     1       4.726  -3.551   0.870  0.00  0.00    -0.230 N 
ATOM     30  C   UNL     1       4.301  -4.808   0.647  0.00  0.00    +0.254 C 
ATOM     31  O   UNL     1       3.517  -5.424   1.341  0.00  0.00    -0.270 OA
ATOM     32  C   UNL     1       4.945  -5.312  -0.584  0.00  0.00    +0.049 A 
ATOM     33  C   UNL     1       4.889  -6.505  -1.286  0.00  0.00    +0.014 A 
ATOM     34  C   UNL     1       5.646  -6.662  -2.436  0.00  0.00    +0.001 A 
ATOM     35  C   UNL     1       6.457  -5.636  -2.886  0.00  0.00    +0.001 A 
ATOM     36  C   UNL     1       6.523  -4.438  -2.194  0.00  0.00    +0.014 A 
ATOM     37  C   UNL     1       5.771  -4.267  -1.042  0.00  0.00    +0.049 A 
ATOM     38  C   UNL     1       5.597  -3.160  -0.078  0.00  0.00    +0.254 C 
ATOM     39  O   UNL     1       6.147  -2.079  -0.133  0.00  0.00    -0.270 OA
ENDBRANCH  28  29
ENDBRANCH   5  28
TORSDOF 6
