REMARK  Name = ZINC03426712
REMARK  10 active torsions:
REMARK  status: ('A' for Active; 'I' for Inactive)
REMARK    1  A    between atoms: C_1  and  C_2
REMARK    2  A    between atoms: C_2  and  C_3
REMARK    3  A    between atoms: C_2  and  C_4
REMARK    4  A    between atoms: C_4  and  C_6
REMARK    5  A    between atoms: C_4  and  N_22
REMARK    6  A    between atoms: N_8  and  C_9
REMARK    7  A    between atoms: C_9  and  C_10
REMARK    8  A    between atoms: C_9  and  C_16
REMARK    9  A    between atoms: C_23  and  C_25
REMARK   10  A    between atoms: C_27  and  N_32
REMARK                            x       y       z     vdW  Elec       q    Type
REMARK                         _______ _______ _______ _____ _____    ______ ____
ROOT
ATOM      1  C   UNL     1      -2.536   2.629   2.606  0.00  0.00    +0.162 C 
ENDROOT
BRANCH   1   2
ATOM      2  C   UNL     1      -1.676   2.362   1.397  0.00  0.00    +0.234 C 
ATOM      3  O   UNL     1      -2.179   1.948   0.375  0.00  0.00    -0.274 OA
ATOM      4  N   UNL     1      -0.348   2.584   1.453  0.00  0.00    -0.303 N 
ATOM      5  H   UNL     1       0.045   2.979   2.248  0.00  0.00    +0.150 HD
BRANCH   4   6
ATOM      6  C   UNL     1       0.503   2.230   0.315  0.00  0.00    +0.134 C 
BRANCH   6   7
ATOM      7  C   UNL     1       0.888   0.776   0.409  0.00  0.00    -0.023 A 
ATOM      8  C   UNL     1       1.213   0.225   1.634  0.00  0.00    +0.006 A 
ATOM      9  C   UNL     1       1.561  -1.110   1.722  0.00  0.00    +0.000 A 
ATOM     10  C   UNL     1       1.595  -1.891   0.582  0.00  0.00    +0.000 A 
ATOM     11  C   UNL     1       1.276  -1.339  -0.644  0.00  0.00    +0.000 A 
ATOM     12  C   UNL     1       0.922  -0.005  -0.731  0.00  0.00    +0.006 A 
ENDBRANCH   6   7
BRANCH   6  13
ATOM     13  C   UNL     1       1.746   3.081   0.332  0.00  0.00    -0.023 A 
ATOM     14  C   UNL     1       2.372   3.366   1.531  0.00  0.00    +0.006 A 
ATOM     15  C   UNL     1       3.515   4.143   1.546  0.00  0.00    +0.000 A 
ATOM     16  C   UNL     1       4.027   4.644   0.364  0.00  0.00    +0.000 A 
ATOM     17  C   UNL     1       3.397   4.364  -0.835  0.00  0.00    +0.000 A 
ATOM     18  C   UNL     1       2.257   3.582  -0.851  0.00  0.00    +0.006 A 
ENDBRANCH   6  13
ENDBRANCH   4   6
ENDBRANCH   1   2
BRANCH   1  19
ATOM     19  N   UNL     1      -3.940   2.716   2.196  0.00  0.00    -0.300 N 
ATOM     20  C   UNL     1      -4.817   3.418   2.941  0.00  0.00    +0.246 C 
ATOM     21  O   UNL     1      -4.443   3.979   3.952  0.00  0.00    -0.270 OA
ATOM     22  H   UNL     1      -4.239   2.268   1.389  0.00  0.00    +0.150 HD
BRANCH  20  23
ATOM     23  C   UNL     1      -6.233   3.506   2.528  0.00  0.00    +0.057 A 
ATOM     24  C   UNL     1      -6.666   2.863   1.366  0.00  0.00    +0.047 A 
ATOM     25  C   UNL     1      -7.989   2.949   0.986  0.00  0.00    +0.127 A 
ATOM     26  C   UNL     1      -8.888   3.670   1.753  0.00  0.00    +0.034 A 
ATOM     27  C   UNL     1      -8.467   4.309   2.905  0.00  0.00    +0.023 A 
ATOM     28  C   UNL     1      -7.146   4.227   3.300  0.00  0.00    +0.053 A 
ATOM     29 CL   UNL     1      -6.621   5.024   4.750  0.00  0.00    -0.083 Cl
BRANCH  25  30
ATOM     30  N   UNL     1      -8.449   2.267  -0.245  0.00  0.00    +0.056 N 
ATOM     31  O   UNL     1      -7.660   1.632  -0.920  0.00  0.00    -0.126 OA
ATOM     32  O   UNL     1      -9.617   2.342  -0.582  0.00  0.00    -0.126 OA
ENDBRANCH  25  30
ENDBRANCH  20  23
ENDBRANCH   1  19
BRANCH   1  34
ATOM     33  C   UNL     1      -3.186   1.795   4.869  0.00  0.00    +0.009 C 
ATOM     34  C   UNL     1      -2.369   1.489   3.613  0.00  0.00    +0.012 C 
ATOM     35  C   UNL     1      -2.861   0.181   2.990  0.00  0.00    +0.009 C 
ENDBRANCH   1  34
TORSDOF 8
