REMARK  Name = ZINC45585758
REMARK  8 active torsions:
REMARK  status: ('A' for Active; 'I' for Inactive)
REMARK    1  A    between atoms: C_1  and  C_2
REMARK    2  A    between atoms: C_2  and  C_4
REMARK    3  A    between atoms: C_2  and  S_21
REMARK    4  A    between atoms: N_6  and  N_7
REMARK    5  A    between atoms: C_8  and  C_9
REMARK    6  A    between atoms: C_8  and  C_15
REMARK    7  A    between atoms: S_21  and  C_22
REMARK    8  A    between atoms: N_26  and  C_27
REMARK                            x       y       z     vdW  Elec       q    Type
REMARK                         _______ _______ _______ _____ _____    ______ ____
ROOT
ATOM      1  N   UNL     1       3.013  -0.472   2.846  0.00  0.00    -0.179 NA
ATOM      2  C   UNL     1       4.058  -1.090   2.364  0.00  0.00    +0.096 C 
ENDROOT
BRANCH   2   3
ATOM      3  C   UNL     1       4.554  -0.760   1.009  0.00  0.00    +0.002 A 
ATOM      4  C   UNL     1       4.627   0.570   0.595  0.00  0.00    +0.010 A 
ATOM      5  C   UNL     1       5.090   0.872  -0.670  0.00  0.00    +0.001 A 
ATOM      6  C   UNL     1       5.481  -0.142  -1.526  0.00  0.00    +0.000 A 
ATOM      7  C   UNL     1       5.410  -1.464  -1.121  0.00  0.00    +0.001 A 
ATOM      8  C   UNL     1       4.955  -1.777   0.143  0.00  0.00    +0.010 A 
ENDBRANCH   2   3
BRANCH   2   9
ATOM      9  C   UNL     1       4.747  -2.120   3.174  0.00  0.00    +0.002 A 
ATOM     10  C   UNL     1       5.974  -2.635   2.756  0.00  0.00    +0.010 A 
ATOM     11  C   UNL     1       6.611  -3.595   3.514  0.00  0.00    +0.001 A 
ATOM     12  C   UNL     1       6.035  -4.047   4.688  0.00  0.00    +0.000 A 
ATOM     13  C   UNL     1       4.818  -3.541   5.108  0.00  0.00    +0.001 A 
ATOM     14  C   UNL     1       4.174  -2.576   4.362  0.00  0.00    +0.010 A 
ENDBRANCH   2   9
BRANCH   1  17
ATOM     15  C   UNL     1       1.270   1.125   2.557  0.00  0.00    +0.245 C 
ATOM     16  O   UNL     1       1.002   1.025   3.736  0.00  0.00    -0.273 OA
ATOM     17  N   UNL     1       2.276   0.398   2.031  0.00  0.00    -0.206 N 
ATOM     18  H   UNL     1       2.491   0.478   1.088  0.00  0.00    +0.177 HD
BRANCH  15  20
ATOM     19  C   UNL     1       1.262   3.360   1.483  0.00  0.00    +0.029 C 
ATOM     20  C   UNL     1       0.478   2.061   1.681  0.00  0.00    +0.139 C 
BRANCH  20  21
ATOM     21  S   UNL     1      -1.112   2.429   2.472  0.00  0.00    -0.073 S 
BRANCH  21  22
ATOM     22  C   UNL     1      -1.969   3.398   1.275  0.00  0.00    +0.192 A 
ATOM     23  N   UNL     1      -1.524   3.747   0.090  0.00  0.00    -0.123 NA
ATOM     24  N   UNL     1      -2.410   4.453  -0.517  0.00  0.00    -0.137 NA
ATOM     25  C   UNL     1      -3.463   4.596   0.236  0.00  0.00    +0.225 A 
ATOM     26  N   UNL     1      -3.222   3.924   1.403  0.00  0.00    -0.312 N 
ATOM     27  C   UNL     1      -4.122   3.797   2.553  0.00  0.00    +0.152 C 
ENDBRANCH  21  22
ENDBRANCH  20  21
ENDBRANCH  15  20
ENDBRANCH   1  17
TORSDOF 6
