REMARK  Name = ZINC40559055
REMARK  3 active torsions:
REMARK  status: ('A' for Active; 'I' for Inactive)
REMARK    1  A    between atoms: C_1  and  C_2
REMARK    2  A    between atoms: N_10  and  C_11
REMARK    3  A    between atoms: C_11  and  C_18
REMARK                            x       y       z     vdW  Elec       q    Type
REMARK                         _______ _______ _______ _____ _____    ______ ____
ROOT
ATOM      1  C   UNL     1      -0.018   1.503   0.010  0.00  0.00    +0.066 C 
ATOM      2  C   UNL     1       0.002  -0.004   0.002  0.00  0.00    +0.047 A 
ATOM      3  C   UNL     1       0.006  -0.706  -1.158  0.00  0.00    +0.071 A 
ATOM      4  S   UNL     1       0.032  -2.378  -0.535  0.00  0.00    -0.060 S 
ATOM      5  C   UNL     1       0.036  -2.015   1.109  0.00  0.00    +0.166 A 
ATOM      6  N   UNL     1       0.023  -0.700   1.124  0.00  0.00    -0.230 NA
ATOM      7  N   UNL     1       0.054  -2.892   2.187  0.00  0.00    -0.248 N 
ATOM      8  C   UNL     1       0.071  -4.222   1.974  0.00  0.00    +0.306 C 
ATOM      9  O   UNL     1       0.072  -4.656   0.838  0.00  0.00    -0.252 OA
ATOM     10  N   UNL     1       0.089  -5.072   3.020  0.00  0.00    -0.283 N 
ATOM     11  H   UNL     1       0.053  -2.546   3.093  0.00  0.00    +0.158 HD
ATOM     12  H   UNL     1       0.088  -4.726   3.926  0.00  0.00    +0.151 HD
ENDROOT
BRANCH  10  13
ATOM     13  C   UNL     1       0.108  -6.519   2.788  0.00  0.00    +0.137 C 
ATOM     14  C   UNL     1      -1.129  -6.926   2.035  0.00  0.00    +0.037 C 
ATOM     15  C   UNL     1      -2.303  -5.954   2.258  0.00  0.00    +0.003 C 
ATOM     16  C   UNL     1      -2.432  -5.500   3.725  0.00  0.00    +0.000 C 
ATOM     17  C   UNL     1      -2.220  -6.628   4.697  0.00  0.00    +0.000 C 
ATOM     18  C   UNL     1      -0.739  -6.631   5.128  0.00  0.00    +0.003 C 
ATOM     19  C   UNL     1       0.126  -7.260   4.140  0.00  0.00    +0.037 C 
BRANCH  13  20
ATOM     20  C   UNL     1       1.334  -6.887   1.993  0.00  0.00    +0.379 C 
ATOM     21  O   UNL     1       2.122  -6.022   1.650  0.00  0.00    -0.244 OA
ATOM     22  O   UNL     1       1.539  -8.051   1.692  0.00  0.00    -0.244 OA
ENDBRANCH  13  20
ENDBRANCH  10  13
TORSDOF 2
