REMARK  Name = ZINC66731783
REMARK  7 active torsions:
REMARK  status: ('A' for Active; 'I' for Inactive)
REMARK    1  A    between atoms: C_1  and  C_2
REMARK    2  A    between atoms: C_4  and  N_9
REMARK    3  A    between atoms: C_6  and  C_8
REMARK    4  A    between atoms: C_13  and  O_16
REMARK    5  A    between atoms: O_16  and  C_17
REMARK    6  A    between atoms: C_17  and  C_19
REMARK    7  A    between atoms: C_21  and  C_25
REMARK                            x       y       z     vdW  Elec       q    Type
REMARK                         _______ _______ _______ _____ _____    ______ ____
ROOT
ATOM      1  N   UNL     1       0.030  -2.832  -2.322  0.00  0.00    -0.312 N 
ATOM      2  C   UNL     1       0.044  -4.300  -2.279  0.00  0.00    +0.107 C 
ATOM      3  C   UNL     1       1.214  -4.807  -3.129  0.00  0.00    +0.023 C 
ATOM      4  C   UNL     1       1.108  -4.220  -4.538  0.00  0.00    +0.048 C 
ATOM      5  C   UNL     1       1.190  -2.693  -4.464  0.00  0.00    +0.194 C 
ATOM      6  C   UNL     1       0.014  -2.163  -3.630  0.00  0.00    +0.151 C 
ENDROOT
BRANCH   1  10
ATOM      7  C   UNL     1      -0.452   1.464   0.034  0.00  0.00    +0.063 C 
ATOM      8  C   UNL     1      -0.204  -0.023   0.013  0.00  0.00    +0.017 A 
ATOM      9  C   UNL     1      -0.210  -0.716  -1.181  0.00  0.00    +0.064 A 
ATOM     10  C   UNL     1       0.026  -2.092  -1.150  0.00  0.00    +0.125 A 
ATOM     11  N   UNL     1       0.245  -2.681   0.022  0.00  0.00    -0.220 NA
ATOM     12  C   UNL     1       0.241  -1.980   1.137  0.00  0.00    +0.106 A 
ATOM     13  N   UNL     1       0.028  -0.680   1.141  0.00  0.00    -0.347 N 
ATOM     14  C   UNL     1       0.495  -2.684   2.445  0.00  0.00    +0.086 C 
ATOM     15  H   UNL     1       0.036  -0.197   1.982  0.00  0.00    +0.167 HD
ENDBRANCH   1  10
BRANCH   5  16
ATOM     16  O   UNL     1       1.122  -2.147  -5.783  0.00  0.00    -0.455 OA
BRANCH  16  17
ATOM     17  C   UNL     1       2.289  -1.974  -6.434  0.00  0.00    +0.360 C 
ATOM     18  O   UNL     1       3.335  -2.277  -5.896  0.00  0.00    -0.243 OA
BRANCH  17  19
ATOM     19  C   UNL     1       2.296  -1.415  -7.800  0.00  0.00    +0.170 A 
ATOM     20  C   UNL     1       3.433  -1.183  -8.602  0.00  0.00    +0.067 A 
ATOM     21  C   UNL     1       2.953  -0.662  -9.774  0.00  0.00    +0.102 A 
ATOM     22  N   UNL     1       1.594  -0.598  -9.649  0.00  0.00    -0.273 N 
ATOM     23  H   UNL     1       0.987  -0.268 -10.329  0.00  0.00    +0.189 HD
ATOM     24  N   UNL     1       1.239  -1.045  -8.498  0.00  0.00    -0.167 NA
BRANCH  21  25
ATOM     25  C   UNL     1       3.747  -0.249 -10.945  0.00  0.00    +0.152 A 
ATOM     26  C   UNL     1       3.255   0.273 -12.102  0.00  0.00    +0.051 A 
ATOM     27  C   UNL     1       4.361   0.519 -12.938  0.00  0.00    +0.042 A 
ATOM     28  C   UNL     1       5.462   0.141 -12.260  0.00  0.00    +0.196 A 
ATOM     29  O   UNL     1       5.088  -0.318 -11.054  0.00  0.00    -0.461 OA
ENDBRANCH  21  25
ENDBRANCH  17  19
ENDBRANCH  16  17
ENDBRANCH   5  16
TORSDOF 5
