REMARK  Name = ZINC31055701
REMARK  8 active torsions:
REMARK  status: ('A' for Active; 'I' for Inactive)
REMARK    1  A    between atoms: C_1  and  C_2
REMARK    2  A    between atoms: C_5  and  C_8
REMARK    3  A    between atoms: C_8  and  C_10
REMARK    4  A    between atoms: C_8  and  N_11
REMARK    5  A    between atoms: C_12  and  C_14
REMARK    6  A    between atoms: N_19  and  C_21
REMARK    7  A    between atoms: C_21  and  C_22
REMARK    8  A    between atoms: C_24  and  C_27
REMARK                            x       y       z     vdW  Elec       q    Type
REMARK                         _______ _______ _______ _____ _____    ______ ____
ROOT
ATOM      1  C   UNL     1       8.520   0.779   2.800  0.00  0.00    +0.058 C 
ATOM      2  C   UNL     1       7.864  -0.275   3.696  0.00  0.00    +0.009 C 
ATOM      3  C   UNL     1       6.342  -0.133   3.606  0.00  0.00    -0.018 C 
ATOM      4  C   UNL     1       5.905  -0.282   2.147  0.00  0.00    -0.078 C 
ATOM      5  N   UNL     1       6.560   0.750   1.331  0.00  0.00    +0.386 N 
ATOM      6  C   UNL     1       8.021   0.604   1.364  0.00  0.00    -0.065 C 
ATOM      7  H   UNL     1       6.310   1.729   1.766  0.00  0.00    -0.081 HD
ENDROOT
BRANCH   1   9
ATOM      8  N   UNL     1      10.680   0.721   4.004  0.00  0.00    -0.309 N 
ATOM      9  C   UNL     1      10.017   0.609   2.836  0.00  0.00    +0.215 C 
ATOM     10  O   UNL     1      10.625   0.371   1.814  0.00  0.00    -0.276 OA
ATOM     11  H   UNL     1      10.129   0.937   4.931  0.00  0.00    +0.149 HD
BRANCH   8  12
ATOM     12  C   UNL     1      12.135   0.555   4.039  0.00  0.00    +0.100 C 
ATOM     13  C   UNL     1      12.808   1.886   3.698  0.00  0.00    +0.033 C 
BRANCH  12  18
ATOM     14  C   UNL     1      13.756  -1.123   9.326  0.00  0.00    +0.044 C 
ATOM     15  C   UNL     1      13.333  -0.685   7.948  0.00  0.00    -0.050 A 
ATOM     16  C   UNL     1      13.936  -1.236   6.832  0.00  0.00    +0.004 A 
ATOM     17  C   UNL     1      13.548  -0.835   5.568  0.00  0.00    +0.006 A 
ATOM     18  C   UNL     1      12.558   0.118   5.418  0.00  0.00    -0.027 A 
ATOM     19  C   UNL     1      11.959   0.673   6.533  0.00  0.00    +0.006 A 
ATOM     20  C   UNL     1      12.343   0.268   7.798  0.00  0.00    +0.004 A 
ENDBRANCH  12  18
ENDBRANCH   8  12
ENDBRANCH   1   9
BRANCH   5  21
ATOM     21  C   UNL     1       6.059   0.725  -0.049  0.00  0.00    +0.022 C 
BRANCH  21  22
ATOM     22  C   UNL     1       4.555   0.629  -0.036  0.00  0.00    +0.211 A 
ATOM     23  N   UNL     1       3.711   1.631  -0.029  0.00  0.00    -0.193 NA
ATOM     24  C   UNL     1       2.481   1.069  -0.015  0.00  0.00    +0.203 A 
ATOM     25  N   UNL     1       2.648  -0.228  -0.023  0.00  0.00    -0.056 NA
ATOM     26  O   UNL     1       3.831  -0.495  -0.035  0.00  0.00    -0.340 OA
BRANCH  24  27
ATOM     27  C   UNL     1       1.184   1.790   0.000  0.00  0.00    +0.041 A 
ATOM     28  C   UNL     1      -0.013   1.076   0.008  0.00  0.00    +0.014 A 
ATOM     29  C   UNL     1      -1.216   1.750   0.017  0.00  0.00    +0.021 A 
ATOM     30  C   UNL     1      -1.237   3.135   0.030  0.00  0.00    +0.042 A 
ATOM     31  C   UNL     1      -0.052   3.850   0.022  0.00  0.00    +0.040 A 
ATOM     32  C   UNL     1       1.159   3.184   0.008  0.00  0.00    +0.053 A 
ATOM     33 CL   UNL     1       2.645   4.082  -0.001  0.00  0.00    -0.083 Cl
ATOM     34 CL   UNL     1      -2.755   3.977   0.049  0.00  0.00    -0.083 Cl
ENDBRANCH  24  27
ENDBRANCH  21  22
ENDBRANCH   5  21
TORSDOF 6
