REMARK  Name = ZINC35808567
REMARK  4 active torsions:
REMARK  status: ('A' for Active; 'I' for Inactive)
REMARK    1  A    between atoms: C_1  and  C_2
REMARK    2  A    between atoms: C_15  and  C_37
REMARK    3  A    between atoms: N_27  and  C_30
REMARK    4  A    between atoms: C_30  and  C_31
REMARK                            x       y       z     vdW  Elec       q    Type
REMARK                         _______ _______ _______ _____ _____    ______ ____
ROOT
ATOM      1  C   UNL     1      -0.018   1.503   0.010  0.00  0.00    +0.044 C 
ATOM      2  C   UNL     1       0.002  -0.004   0.002  0.00  0.00    -0.050 A 
ATOM      3  C   UNL     1       0.006  -0.685  -1.213  0.00  0.00    +0.005 A 
ATOM      4  C   UNL     1       0.026  -2.045  -1.255  0.00  0.00    +0.026 A 
ATOM      5  C   UNL     1       0.046  -2.781  -0.058  0.00  0.00    +0.048 A 
ATOM      6  C   UNL     1       0.037  -2.086   1.176  0.00  0.00    -0.001 A 
ATOM      7  C   UNL     1       0.022  -0.683   1.183  0.00  0.00    +0.013 A 
ATOM      8  C   UNL     1       0.045  -2.825   2.376  0.00  0.00    +0.017 A 
ATOM      9  C   UNL     1       0.072  -4.187   2.298  0.00  0.00    -0.007 A 
ATOM     10  C   UNL     1       0.096  -4.818   1.052  0.00  0.00    +0.103 A 
ATOM     11  N   UNL     1       0.074  -4.117  -0.069  0.00  0.00    -0.343 N 
ATOM     12  N   UNL     1       0.161  -6.212   0.944  0.00  0.00    -0.312 N 
ATOM     13  C   UNL     1       0.215  -6.756  -0.409  0.00  0.00    +0.107 C 
ATOM     14  C   UNL     1      -0.413  -8.124  -0.538  0.00  0.00    +0.022 C 
ATOM     15  C   UNL     1      -0.035  -9.044   0.603  0.00  0.00    -0.011 C 
ATOM     16  C   UNL     1      -0.316  -8.439   1.956  0.00  0.00    +0.027 C 
ATOM     17  C   UNL     1       0.220  -7.035   2.137  0.00  0.00    +0.099 C 
ATOM     18  C   UNL     1      -0.540  -6.367   3.291  0.00  0.00    +0.146 C 
ATOM     19  C   UNL     1       0.071  -4.993   3.571  0.00  0.00    +0.066 C 
ATOM     20  C   UNL     1      -1.983  -6.204   2.902  0.00  0.00    +0.238 C 
ATOM     21  O   UNL     1      -2.258  -5.532   1.931  0.00  0.00    -0.274 OA
ATOM     22  N   UNL     1      -2.974  -6.780   3.595  0.00  0.00    -0.239 N 
ATOM     23  C   UNL     1      -2.739  -7.533   4.680  0.00  0.00    +0.315 C 
ATOM     24  O   UNL     1      -3.676  -8.033   5.270  0.00  0.00    -0.252 OA
ATOM     25  N   UNL     1      -1.493  -7.747   5.130  0.00  0.00    -0.220 N 
ATOM     26  C   UNL     1      -0.420  -7.226   4.520  0.00  0.00    +0.240 C 
ATOM     27  O   UNL     1       0.682  -7.454   4.972  0.00  0.00    -0.274 OA
ATOM     28  C   UNL     1       1.459  -9.362   0.506  0.00  0.00    +0.007 C 
ATOM     29  H   UNL     1      -3.890  -6.649   3.304  0.00  0.00    +0.159 HD
ATOM     30  H   UNL     1       0.078  -4.583  -0.920  0.00  0.00    +0.167 HD
ENDROOT
BRANCH  25  31
ATOM     31  C   UNL     1      -1.300  -8.575   6.323  0.00  0.00    +0.153 C 
BRANCH  31  32
ATOM     32  C   UNL     1      -1.137 -10.016   5.913  0.00  0.00    -0.030 A 
ATOM     33  C   UNL     1      -2.247 -10.833   5.802  0.00  0.00    +0.005 A 
ATOM     34  C   UNL     1      -2.098 -12.154   5.426  0.00  0.00    +0.000 A 
ATOM     35  C   UNL     1      -0.839 -12.660   5.161  0.00  0.00    +0.000 A 
ATOM     36  C   UNL     1       0.271 -11.843   5.271  0.00  0.00    +0.000 A 
ATOM     37  C   UNL     1       0.121 -10.520   5.643  0.00  0.00    +0.005 A 
ENDBRANCH  31  32
ENDBRANCH  25  31
TORSDOF 2
