REMARK  Name = ZINC39466809
REMARK  4 active torsions:
REMARK  status: ('A' for Active; 'I' for Inactive)
REMARK    1  A    between atoms: C_4  and  C_7
REMARK    2  A    between atoms: C_7  and  C_8
REMARK    3  A    between atoms: P_24  and  C_27
REMARK    4  A    between atoms: C_27  and  C_28
REMARK                            x       y       z     vdW  Elec       q    Type
REMARK                         _______ _______ _______ _____ _____    ______ ____
ROOT
ATOM      1  C   UNL     1       4.164  -0.959   1.377  0.00  0.00    -0.033 C 
ATOM      2  C   UNL     1       3.894  -2.119   1.971  0.00  0.00    -0.020 C 
ATOM      3  C   UNL     1       4.345  -2.350   3.389  0.00  0.00    +0.005 C 
ATOM      4  C   UNL     1       3.495  -3.422   4.055  0.00  0.00    -0.046 C 
ATOM      5  N   UNL     1       2.083  -3.011   4.131  0.00  0.00    +0.397 N 
ATOM      6  C   UNL     1       1.952  -1.786   4.923  0.00  0.00    -0.020 C 
ATOM      7  C   UNL     1       2.762  -0.653   4.282  0.00  0.00    -0.003 C 
ATOM      8  C   UNL     1       4.216  -1.048   4.185  0.00  0.00    +0.017 C 
ATOM      9  C   UNL     1       4.940   0.050   3.443  0.00  0.00    -0.008 C 
ATOM     10  C   UNL     1       4.916   0.074   2.112  0.00  0.00    +0.017 C 
ATOM     11 BR   UNL     1       5.835   1.429   1.167  0.00  0.00    -0.050 Br
ATOM     12  C   UNL     1       0.495  -1.310   4.988  0.00  0.00    +0.156 C 
ATOM     13  O   UNL     1      -0.311  -2.316   5.628  0.00  0.00    -0.319 OA
ATOM     14  P   UNL     1      -0.189  -3.843   5.079  0.00  0.00    +0.262 P 
ATOM     15  O   UNL     1      -1.002  -4.015   3.855  0.00  0.00    -0.274 OA
ATOM     16  N   UNL     1       1.417  -4.054   4.740  0.00  0.00    -0.291 NA
ATOM     17  H   UNL     1       1.875  -4.882   4.956  0.00  0.00    +0.111 HD
ATOM     18  H   UNL     1       1.719  -2.871   3.201  0.00  0.00    -0.055 HD
ENDROOT
BRANCH   1  19
ATOM     19  C   UNL     1       3.711  -0.707  -0.038  0.00  0.00    +0.071 C 
BRANCH  19  23
ATOM     20  C   UNL     1      -0.017   1.378   0.010  0.00  0.00    +0.000 A 
ATOM     21  C   UNL     1       1.171   2.086   0.002  0.00  0.00    +0.000 A 
ATOM     22  C   UNL     1       2.377   1.411  -0.013  0.00  0.00    +0.004 A 
ATOM     23  C   UNL     1       2.396   0.029  -0.020  0.00  0.00    -0.043 A 
ATOM     24  C   UNL     1       1.208  -0.679  -0.012  0.00  0.00    +0.004 A 
ATOM     25  C   UNL     1       0.002  -0.004   0.002  0.00  0.00    +0.000 A 
ENDBRANCH  19  23
ENDBRANCH   1  19
BRANCH  14  26
ATOM     26  C   UNL     1      -0.724  -5.021   6.363  0.00  0.00    +0.147 C 
BRANCH  26  27
ATOM     27  C   UNL     1      -2.159  -4.744   6.732  0.00  0.00    -0.037 A 
ATOM     28  C   UNL     1      -2.452  -3.853   7.747  0.00  0.00    +0.004 A 
ATOM     29  C   UNL     1      -3.768  -3.599   8.086  0.00  0.00    +0.000 A 
ATOM     30  C   UNL     1      -4.791  -4.236   7.409  0.00  0.00    +0.000 A 
ATOM     31  C   UNL     1      -4.498  -5.127   6.393  0.00  0.00    +0.000 A 
ATOM     32  C   UNL     1      -3.182  -5.378   6.052  0.00  0.00    +0.004 A 
ENDBRANCH  26  27
ENDBRANCH  14  26
TORSDOF 4
