REMARK  Name = ZINC11788859
REMARK  11 active torsions:
REMARK  status: ('A' for Active; 'I' for Inactive)
REMARK    1  A    between atoms: C_1  and  C_2
REMARK    2  A    between atoms: C_2  and  C_3
REMARK    3  A    between atoms: C_3  and  C_14
REMARK    4  A    between atoms: N_6  and  C_10
REMARK    5  A    between atoms: C_10  and  C_11
REMARK    6  A    between atoms: C_11  and  C_13
REMARK    7  A    between atoms: C_19  and  C_20
REMARK    8  A    between atoms: C_19  and  N_63
REMARK    9  A    between atoms: C_21  and  C_22
REMARK   10  A    between atoms: C_25  and  O_28
REMARK   11  A    between atoms: O_28  and  C_29
REMARK                            x       y       z     vdW  Elec       q    Type
REMARK                         _______ _______ _______ _____ _____    ______ ____
ROOT
ATOM      1  C   UNL     1      -0.686  -0.545  -1.253  0.00  0.00    +0.018 C 
ATOM      2  C   UNL     1      -0.629  -2.075  -1.248  0.00  0.00    -0.013 C 
ATOM      3  C   UNL     1      -1.265  -2.608  -2.534  0.00  0.00    -0.078 C 
ATOM      4  C   UNL     1      -0.623  -0.611  -3.748  0.00  0.00    -0.078 C 
ATOM      5  C   UNL     1       0.032  -0.018  -2.498  0.00  0.00    -0.013 C 
ATOM      6  N   UNL     1      -0.513  -2.084  -3.694  0.00  0.00    +0.382 N 
ATOM      7  H   UNL     1       0.476  -2.341  -3.593  0.00  0.00    -0.081 HD
ENDROOT
BRANCH   1   8
ATOM      8  C   UNL     1       0.002  -0.004   0.002  0.00  0.00    +0.115 C 
ATOM      9  C   UNL     1      -0.018   1.512   0.010  0.00  0.00    +0.247 C 
ATOM     10  O   UNL     1      -0.995   2.231   0.019  0.00  0.00    -0.273 OA
ATOM     11  N   UNL     1       1.274   1.894   0.000  0.00  0.00    -0.220 N 
ATOM     12  C   UNL     1       2.099   0.841  -0.013  0.00  0.00    +0.310 C 
ATOM     13  O   UNL     1       3.311   0.933  -0.025  0.00  0.00    -0.252 OA
ATOM     14  N   UNL     1       1.438  -0.331  -0.013  0.00  0.00    -0.285 N 
ATOM     15  H   UNL     1       1.831  -1.218  -0.022  0.00  0.00    +0.151 HD
BRANCH   8  17
ATOM     16  C   UNL     1       0.074  -0.045   2.499  0.00  0.00    +0.006 C 
ATOM     17  C   UNL     1      -0.666  -0.558   1.262  0.00  0.00    +0.032 C 
ENDBRANCH   8  17
BRANCH  11  18
ATOM     18  C   UNL     1       1.720   3.289   0.002  0.00  0.00    +0.148 C 
BRANCH  18  19
ATOM     19  C   UNL     1       1.886   3.761   1.424  0.00  0.00    -0.062 C 
ATOM     20  C   UNL     1       3.062   3.711   1.997  0.00  0.00    +0.009 C 
ATOM     21  C   UNL     1       0.698   4.290   2.186  0.00  0.00    +0.040 C 
ENDBRANCH  18  19
ENDBRANCH  11  18
ENDBRANCH   1   8
BRANCH   6  22
ATOM     22  C   UNL     1      -1.036  -2.675  -4.944  0.00  0.00    -0.051 C 
BRANCH  22  23
ATOM     23  C   UNL     1      -1.169  -4.166  -4.767  0.00  0.00    -0.045 C 
ATOM     24  C   UNL     1      -2.328  -4.761  -5.013  0.00  0.00    +0.002 C 
BRANCH  24  25
ATOM     25  C   UNL     1      -2.459  -6.223  -4.840  0.00  0.00    -0.025 A 
ATOM     26  C   UNL     1      -1.362  -6.979  -4.423  0.00  0.00    +0.011 A 
ATOM     27  C   UNL     1      -1.489  -8.342  -4.258  0.00  0.00    +0.046 A 
ATOM     28  C   UNL     1      -2.703  -8.964  -4.516  0.00  0.00    +0.120 A 
ATOM     29  C   UNL     1      -3.795  -8.216  -4.937  0.00  0.00    +0.046 A 
ATOM     30  C   UNL     1      -3.678  -6.852  -5.099  0.00  0.00    +0.011 A 
BRANCH  28  31
ATOM     31  O   UNL     1      -2.823 -10.308  -4.358  0.00  0.00    -0.495 OA
ATOM     32  C   UNL     1      -1.661 -11.016  -3.923  0.00  0.00    +0.277 C 
ENDBRANCH  28  31
ENDBRANCH  24  25
ENDBRANCH  22  23
ENDBRANCH   6  22
TORSDOF 8
