REMARK  Name = ZINC40491507
REMARK  9 active torsions:
REMARK  status: ('A' for Active; 'I' for Inactive)
REMARK    1  A    between atoms: C_1  and  C_2
REMARK    2  A    between atoms: C_2  and  N_3
REMARK    3  A    between atoms: C_6  and  C_9
REMARK    4  A    between atoms: C_9  and  C_11
REMARK    5  A    between atoms: C_9  and  N_12
REMARK    6  A    between atoms: N_12  and  C_13
REMARK    7  A    between atoms: C_18  and  C_19
REMARK    8  A    between atoms: C_19  and  O_20
REMARK    9  A    between atoms: O_20  and  C_21
REMARK                            x       y       z     vdW  Elec       q    Type
REMARK                         _______ _______ _______ _____ _____    ______ ____
ROOT
ATOM      1  N   UNL     1      -5.059  -4.013  -0.780  0.00  0.00    -0.341 N 
ATOM      2  H   UNL     1      -4.295  -4.489  -0.418  0.00  0.00    +0.146 HD
ENDROOT
BRANCH   1   3
ATOM      3  C   UNL     1      -6.201  -4.717  -1.166  0.00  0.00    +0.034 A 
ATOM      4  C   UNL     1      -7.294  -4.038  -1.689  0.00  0.00    +0.023 A 
ATOM      5  C   UNL     1      -8.422  -4.737  -2.070  0.00  0.00    +0.003 A 
ATOM      6  C   UNL     1      -8.466  -6.112  -1.931  0.00  0.00    +0.016 A 
ATOM      7  C   UNL     1      -7.379  -6.792  -1.410  0.00  0.00    +0.025 A 
ATOM      8  C   UNL     1      -6.245  -6.099  -1.033  0.00  0.00    +0.013 A 
ATOM      9 BR   UNL     1      -7.444  -8.673  -1.222  0.00  0.00    -0.050 Br
BRANCH   8  10
ATOM     10  C   UNL     1      -5.059  -6.841  -0.472  0.00  0.00    +0.197 C 
BRANCH  10  11
ATOM     11  O   UNL     1      -5.187  -6.940   0.948  0.00  0.00    -0.378 OA
ATOM     12  C   UNL     1      -4.108  -7.630   1.582  0.00  0.00    +0.194 C 
ENDBRANCH  10  11
ENDBRANCH   8  10
ENDBRANCH   1   3
BRANCH   1  13
ATOM     13  C   UNL     1      -5.014  -2.555  -0.920  0.00  0.00    +0.070 C 
ATOM     14  C   UNL     1      -5.652  -1.904   0.308  0.00  0.00    +0.028 C 
BRANCH  13  18
ATOM     15  N   UNL     1      -1.376  -0.512   0.012  0.00  0.00    +0.380 N 
ATOM     16  C   UNL     1      -2.051  -0.118  -1.230  0.00  0.00    -0.079 C 
ATOM     17  C   UNL     1      -3.511  -0.575  -1.189  0.00  0.00    -0.013 C 
ATOM     18  C   UNL     1      -3.559  -2.099  -1.042  0.00  0.00    +0.005 C 
ATOM     19  C   UNL     1      -2.788  -2.505   0.218  0.00  0.00    -0.013 C 
ATOM     20  C   UNL     1      -1.355  -1.976   0.125  0.00  0.00    -0.079 C 
ATOM     21  H   UNL     1      -1.871  -0.123   0.800  0.00  0.00    -0.082 HD
BRANCH  15  23
ATOM     22  C   UNL     1      -0.019   1.526   0.010  0.00  0.00    -0.017 C 
ATOM     23  C   UNL     1       0.002  -0.004   0.002  0.00  0.00    -0.082 C 
ENDBRANCH  15  23
ENDBRANCH  13  18
ENDBRANCH   1  13
TORSDOF 6
