REMARK  Name = ZINC65527254
REMARK  4 active torsions:
REMARK  status: ('A' for Active; 'I' for Inactive)
REMARK    1  A    between atoms: C_1  and  O_2
REMARK    2  A    between atoms: O_2  and  C_3
REMARK    3  A    between atoms: C_8  and  C_13
REMARK    4  A    between atoms: C_26  and  N_30
REMARK                            x       y       z     vdW  Elec       q    Type
REMARK                         _______ _______ _______ _____ _____    ______ ____
ROOT
ATOM      1  C   UNL     1      -5.069  -4.475   1.548  0.00  0.00    +0.059 C 
ATOM      2  C   UNL     1      -5.861  -5.533   1.551  0.00  0.00    +0.018 C 
ATOM      3  C   UNL     1      -5.886  -6.038   2.977  0.00  0.00    +0.117 C 
ATOM      4  C   UNL     1      -5.343  -7.498   3.012  0.00  0.00    +0.131 C 
ATOM      5  N   UNL     1      -5.276  -7.848   4.396  0.00  0.00    -0.313 N 
ATOM      6  C   UNL     1      -4.527  -7.103   5.398  0.00  0.00    +0.108 C 
ATOM      7  C   UNL     1      -5.457  -6.013   5.857  0.00  0.00    +0.036 C 
ATOM      8  C   UNL     1      -5.209  -4.719   5.026  0.00  0.00    +0.108 C 
ATOM      9  N   UNL     1      -4.911  -5.217   3.666  0.00  0.00    -0.221 NA
ATOM     10  N   UNL     1      -4.547  -4.226   2.808  0.00  0.00    -0.278 N 
ATOM     11  C   UNL     1      -5.970  -8.973   4.812  0.00  0.00    +0.126 A 
ATOM     12  C   UNL     1      -6.493  -9.865   3.880  0.00  0.00    +0.087 A 
ATOM     13  C   UNL     1      -7.181 -10.980   4.349  0.00  0.00    +0.121 A 
ATOM     14  N   UNL     1      -7.313 -11.152   5.663  0.00  0.00    -0.221 NA
ATOM     15  C   UNL     1      -6.804 -10.285   6.514  0.00  0.00    +0.225 A 
ATOM     16  N   UNL     1      -6.141  -9.220   6.109  0.00  0.00    -0.221 NA
ATOM     17  H   UNL     1      -4.004  -3.457   3.045  0.00  0.00    +0.166 HD
ENDROOT
BRANCH   1  23
ATOM     18  C   UNL     1      -1.478  -0.427   0.109  0.00  0.00    +0.122 A 
ATOM     19  C   UNL     1      -2.619   0.428   0.409  0.00  0.00    +0.048 A 
ATOM     20  C   UNL     1      -3.858  -0.071   0.573  0.00  0.00    +0.031 A 
ATOM     21  C   UNL     1      -4.085  -1.519   0.447  0.00  0.00    +0.061 A 
ATOM     22  N   UNL     1      -5.157  -2.250   0.555  0.00  0.00    -0.359 N 
ATOM     23  C   UNL     1      -4.766  -3.646   0.327  0.00  0.00    +0.221 C 
ATOM     24  N   UNL     1      -3.320  -3.634   0.070  0.00  0.00    -0.359 N 
ATOM     25  C   UNL     1      -2.921  -2.393   0.140  0.00  0.00    +0.064 A 
ATOM     26  C   UNL     1      -1.607  -1.769  -0.028  0.00  0.00    +0.073 A 
ATOM     27  H   UNL     1      -6.052  -1.930   0.752  0.00  0.00    +0.162 HD
ATOM     28  H   UNL     1      -2.764  -4.406  -0.117  0.00  0.00    +0.162 HD
BRANCH  18  30
ATOM     29  C   UNL     1      -0.169   1.555   0.109  0.00  0.00    +0.277 C 
ATOM     30  O   UNL     1      -0.254   0.137  -0.044  0.00  0.00    -0.495 OA
ENDBRANCH  18  30
ENDBRANCH   1  23
BRANCH  13  31
ATOM     31  N   UNL     1      -7.721 -11.898   3.462  0.00  0.00    -0.343 N 
ATOM     32  H   UNL     1      -7.621 -11.765   2.506  0.00  0.00    +0.144 HD
ATOM     33  H   UNL     1      -8.199 -12.672   3.796  0.00  0.00    +0.144 HD
ENDBRANCH  13  31
TORSDOF 3
