REMARK  Name = ZINC38636890
REMARK  7 active torsions:
REMARK  status: ('A' for Active; 'I' for Inactive)
REMARK    1  A    between atoms: C_4  and  N_7
REMARK    2  A    between atoms: C_8  and  C_18
REMARK    3  A    between atoms: C_11  and  C_13
REMARK    4  A    between atoms: C_18  and  O_20
REMARK    5  A    between atoms: O_20  and  C_21
REMARK    6  A    between atoms: C_21  and  C_22
REMARK    7  A    between atoms: C_22  and  C_24
REMARK                            x       y       z     vdW  Elec       q    Type
REMARK                         _______ _______ _______ _____ _____    ______ ____
ROOT
ATOM      1  N   UNL     1       3.618  -0.647  -0.036  0.00  0.00    -0.210 N 
ATOM      2  C   UNL     1       3.783  -2.110  -0.052  0.00  0.00    +0.212 C 
ATOM      3  C   UNL     1       5.312  -2.303  -0.066  0.00  0.00    +0.094 C 
ATOM      4  C   UNL     1       5.858  -0.893  -0.057  0.00  0.00    +0.075 C 
ATOM      5  N   UNL     1       4.878  -0.052  -0.046  0.00  0.00    -0.182 NA
ENDROOT
BRANCH   1   9
ATOM      6  C   UNL     1      -0.017   1.379   0.010  0.00  0.00    +0.000 A 
ATOM      7  C   UNL     1       1.169   2.090   0.002  0.00  0.00    +0.002 A 
ATOM      8  C   UNL     1       2.377   1.421  -0.013  0.00  0.00    +0.025 A 
ATOM      9  C   UNL     1       2.400   0.032  -0.021  0.00  0.00    +0.052 A 
ATOM     10  C   UNL     1       1.206  -0.680  -0.013  0.00  0.00    +0.025 A 
ATOM     11  C   UNL     1       0.002  -0.004   0.002  0.00  0.00    +0.002 A 
ENDBRANCH   1   9
BRANCH   4  12
ATOM     12  C   UNL     1       7.281  -0.535  -0.064  0.00  0.00    +0.035 A 
ATOM     13  C   UNL     1       7.865   0.719  -0.051  0.00  0.00    +0.017 A 
ATOM     14  C   UNL     1       9.239   0.800  -0.063  0.00  0.00    +0.008 A 
ATOM     15  C   UNL     1       9.972  -0.343  -0.086  0.00  0.00    +0.046 A 
ATOM     16  S   UNL     1       8.710  -1.605  -0.086  0.00  0.00    -0.095 S 
ENDBRANCH   4  12
BRANCH   2  17
ATOM     17  C   UNL     1       3.179  -2.724   1.185  0.00  0.00    +0.331 C 
ATOM     18  O   UNL     1       2.961  -2.038   2.155  0.00  0.00    -0.249 OA
BRANCH  17  19
ATOM     19  O   UNL     1       2.884  -4.033   1.208  0.00  0.00    -0.455 OA
BRANCH  19  20
ATOM     20  C   UNL     1       2.314  -4.548   2.413  0.00  0.00    +0.311 C 
BRANCH  20  21
ATOM     21  C   UNL     1       2.051  -6.024   2.253  0.00  0.00    +0.199 C 
ATOM     22  O   UNL     1       2.326  -6.580   1.210  0.00  0.00    -0.289 OA
BRANCH  21  23
ATOM     23  C   UNL     1       1.487  -6.759   3.317  0.00  0.00    +0.026 C 
ATOM     24  C   UNL     1       1.190  -8.110   3.336  0.00  0.00    +0.006 A 
ATOM     25  C   UNL     1       1.335  -9.140   2.378  0.00  0.00    +0.010 A 
ATOM     26  C   UNL     1       0.952 -10.403   2.672  0.00  0.00    +0.001 A 
ATOM     27  C   UNL     1       0.402 -10.754   3.915  0.00  0.00    +0.002 A 
ATOM     28  C   UNL     1       0.220  -9.846   4.898  0.00  0.00    +0.026 A 
ATOM     29  C   UNL     1       0.612  -8.446   4.660  0.00  0.00    +0.043 A 
ATOM     30  N   UNL     1       0.550  -7.386   5.415  0.00  0.00    -0.380 N 
ATOM     31  C   UNL     1       1.085  -6.236   4.679  0.00  0.00    +0.152 C 
ATOM     32  H   UNL     1       0.208  -7.362   6.322  0.00  0.00    +0.160 HD
ENDBRANCH  21  23
ENDBRANCH  20  21
ENDBRANCH  19  20
ENDBRANCH  17  19
ENDBRANCH   2  17
TORSDOF 7
