REMARK  Name = ZINC13124668
REMARK  6 active torsions:
REMARK  status: ('A' for Active; 'I' for Inactive)
REMARK    1  A    between atoms: C_1  and  C_2
REMARK    2  A    between atoms: C_9  and  C_12
REMARK    3  A    between atoms: C_12  and  C_24
REMARK    4  A    between atoms: C_13  and  C_14
REMARK    5  A    between atoms: C_16  and  O_23
REMARK    6  A    between atoms: C_19  and  N_20
REMARK                            x       y       z     vdW  Elec       q    Type
REMARK                         _______ _______ _______ _____ _____    ______ ____
ROOT
ATOM      1  C   UNL     1       0.348  -5.478   2.399  0.00  0.00    +0.095 C 
ATOM      2  C   UNL     1       0.200  -5.456   3.754  0.00  0.00    +0.032 C 
ENDROOT
BRANCH   1  11
ATOM      3  C   UNL     1       2.196   1.323   0.206  0.00  0.00    +0.044 C 
ATOM      4  C   UNL     1       1.799  -0.130   0.156  0.00  0.00    -0.048 A 
ATOM      5  C   UNL     1       1.623  -0.752  -1.072  0.00  0.00    +0.005 A 
ATOM      6  C   UNL     1       1.260  -2.081  -1.137  0.00  0.00    +0.028 A 
ATOM      7  C   UNL     1       1.069  -2.800   0.034  0.00  0.00    +0.066 A 
ATOM      8  C   UNL     1       1.247  -2.170   1.279  0.00  0.00    +0.090 A 
ATOM      9  C   UNL     1       1.621  -0.822   1.320  0.00  0.00    +0.033 A 
ATOM     10  N   UNL     1       0.998  -3.095   2.236  0.00  0.00    -0.227 NA
ATOM     11  C   UNL     1       0.683  -4.238   1.674  0.00  0.00    +0.150 A 
ATOM     12  N   UNL     1       0.713  -4.106   0.310  0.00  0.00    -0.337 N 
ATOM     13  H   UNL     1       0.520  -4.800  -0.340  0.00  0.00    +0.167 HD
ENDBRANCH   1  11
BRANCH   2  14
ATOM     14  C   UNL     1       0.184  -4.174   4.470  0.00  0.00    +0.010 A 
ATOM     15  C   UNL     1      -0.611  -3.119   4.006  0.00  0.00    +0.055 A 
ATOM     16  C   UNL     1      -0.619  -1.915   4.688  0.00  0.00    +0.118 A 
ATOM     17  C   UNL     1       0.159  -1.755   5.828  0.00  0.00    +0.047 A 
ATOM     18  C   UNL     1       0.946  -2.795   6.288  0.00  0.00    +0.037 A 
ATOM     19  C   UNL     1       0.960  -4.003   5.623  0.00  0.00    +0.134 A 
BRANCH  19  20
ATOM     20  N   UNL     1       1.798  -5.115   6.124  0.00  0.00    +0.057 N 
ATOM     21  O   UNL     1       2.537  -4.939   7.065  0.00  0.00    -0.126 OA
ATOM     22  O   UNL     1       1.745  -6.199   5.593  0.00  0.00    -0.126 OA
ENDBRANCH  19  20
BRANCH  16  23
ATOM     23  O   UNL     1      -1.389  -0.888   4.242  0.00  0.00    -0.507 OA
ATOM     24  H   UNL     1      -2.283  -0.877   4.610  0.00  0.00    +0.292 HD
ENDBRANCH  16  23
ENDBRANCH   2  14
BRANCH   1  25
ATOM     25  C   UNL     1       0.179  -6.705   1.680  0.00  0.00    +0.103 C 
ATOM     26  N   UNL     1       0.045  -7.678   1.110  0.00  0.00    -0.191 NA
ENDBRANCH   1  25
TORSDOF 5
