REMARK  Name = ZINC40827446
REMARK  4 active torsions:
REMARK  status: ('A' for Active; 'I' for Inactive)
REMARK    1  A    between atoms: C_5  and  N_7
REMARK    2  A    between atoms: C_11  and  N_15
REMARK    3  A    between atoms: N_15  and  C_16
REMARK    4  A    between atoms: N_15  and  C_22
REMARK                            x       y       z     vdW  Elec       q    Type
REMARK                         _______ _______ _______ _____ _____    ______ ____
ROOT
ATOM      1  N   UNL     1       2.648  -5.178   0.829  0.00  0.00    -0.210 N 
ATOM      2  C   UNL     1       3.333  -5.543  -0.262  0.00  0.00    +0.225 C 
ATOM      3  O   UNL     1       4.389  -6.137  -0.262  0.00  0.00    -0.275 OA
ATOM      4  C   UNL     1       2.578  -5.096  -1.495  0.00  0.00    +0.091 C 
ATOM      5  C   UNL     1       1.326  -4.403  -0.921  0.00  0.00    +0.030 C 
ATOM      6  C   UNL     1       1.502  -4.535   0.576  0.00  0.00    +0.213 C 
ATOM      7  O   UNL     1       0.728  -4.123   1.413  0.00  0.00    -0.277 OA
ENDROOT
BRANCH   1  12
ATOM      8  C   UNL     1       2.921  -6.714   4.162  0.00  0.00    +0.002 A 
ATOM      9  C   UNL     1       3.970  -5.992   4.699  0.00  0.00    +0.002 A 
ATOM     10  C   UNL     1       4.582  -4.999   3.957  0.00  0.00    +0.022 A 
ATOM     11  C   UNL     1       4.146  -4.727   2.673  0.00  0.00    +0.063 A 
ATOM     12  C   UNL     1       3.093  -5.452   2.131  0.00  0.00    +0.062 A 
ATOM     13  C   UNL     1       2.481  -6.447   2.880  0.00  0.00    +0.025 A 
ATOM     14 CL   UNL     1       4.915  -3.480   1.741  0.00  0.00    -0.082 Cl
ENDBRANCH   1  12
BRANCH   5  15
ATOM     15  N   UNL     1       0.106  -5.093  -1.361  0.00  0.00    +0.391 N 
ATOM     16  H   UNL     1      -0.703  -4.596  -1.019  0.00  0.00    -0.080 HD
BRANCH  15  17
ATOM     17  C   UNL     1       0.069  -5.136  -2.829  0.00  0.00    -0.067 C 
ATOM     18  C   UNL     1      -1.245  -5.771  -3.287  0.00  0.00    -0.015 C 
ATOM     19  C   UNL     1      -1.283  -5.817  -4.816  0.00  0.00    -0.002 C 
ATOM     20  C   UNL     1      -1.183  -4.395  -5.371  0.00  0.00    -0.000 C 
ATOM     21  C   UNL     1       0.132  -3.760  -4.913  0.00  0.00    -0.002 C 
ATOM     22  C   UNL     1       0.170  -3.714  -3.384  0.00  0.00    -0.015 C 
ENDBRANCH  15  17
BRANCH  15  23
ATOM     23  C   UNL     1       0.100  -6.463  -0.830  0.00  0.00    -0.067 C 
ATOM     24  C   UNL     1      -0.011  -6.418   0.696  0.00  0.00    -0.015 C 
ATOM     25  C   UNL     1      -0.017  -7.845   1.248  0.00  0.00    -0.002 C 
ATOM     26  C   UNL     1       1.281  -8.551   0.852  0.00  0.00    -0.000 C 
ATOM     27  C   UNL     1       1.392  -8.595  -0.673  0.00  0.00    -0.002 C 
ATOM     28  C   UNL     1       1.398  -7.169  -1.226  0.00  0.00    -0.015 C 
ENDBRANCH  15  23
ENDBRANCH   5  15
TORSDOF 4
