REMARK  Name = ZINC14086793
REMARK  7 active torsions:
REMARK  status: ('A' for Active; 'I' for Inactive)
REMARK    1  A    between atoms: C_1  and  C_2
REMARK    2  A    between atoms: C_2  and  C_4
REMARK    3  A    between atoms: C_2  and  N_52
REMARK    4  A    between atoms: C_14  and  C_15
REMARK    5  A    between atoms: C_14  and  N_52
REMARK    6  A    between atoms: N_17  and  C_18
REMARK    7  A    between atoms: C_23  and  N_24
REMARK                            x       y       z     vdW  Elec       q    Type
REMARK                         _______ _______ _______ _____ _____    ______ ____
ROOT
ATOM      1  C   UNL     1      -1.879   3.562   0.472  0.00  0.00    +0.016 C 
ENDROOT
BRANCH   1   2
ATOM      2  C   UNL     1      -1.872   5.069   0.517  0.00  0.00    +0.200 C 
ATOM      3  O   UNL     1      -1.005   5.653   1.132  0.00  0.00    -0.278 OA
ATOM      4  N   UNL     1      -2.830   5.766  -0.124  0.00  0.00    -0.285 N 
ATOM      5  H   UNL     1      -3.485   5.303  -0.669  0.00  0.00    +0.155 HD
BRANCH   4   6
ATOM      6  C   UNL     1      -2.880   7.160  -0.004  0.00  0.00    +0.060 A 
ATOM      7  C   UNL     1      -1.706   7.892   0.096  0.00  0.00    +0.045 A 
ATOM      8  C   UNL     1      -1.758   9.269   0.210  0.00  0.00    +0.043 A 
ATOM      9  C   UNL     1      -2.980   9.920   0.235  0.00  0.00    +0.022 A 
ATOM     10  C   UNL     1      -4.154   9.197   0.141  0.00  0.00    +0.031 A 
ATOM     11  C   UNL     1      -4.111   7.816   0.021  0.00  0.00    +0.088 A 
ATOM     12 CL   UNL     1      -0.288  10.184   0.329  0.00  0.00    -0.083 Cl
BRANCH  11  13
ATOM     13  N   UNL     1      -5.301   7.081  -0.074  0.00  0.00    -0.218 N 
ATOM     14  C   UNL     1      -6.551   7.575  -0.158  0.00  0.00    +0.225 A 
ATOM     15  N   UNL     1      -7.382   6.567  -0.234  0.00  0.00    -0.222 NA
ATOM     16  C   UNL     1      -6.706   5.420  -0.193  0.00  0.00    +0.245 A 
ATOM     17  N   UNL     1      -5.428   5.682  -0.095  0.00  0.00    -0.153 NA
ENDBRANCH  11  13
ENDBRANCH   4   6
ENDBRANCH   1   2
BRANCH   1  18
ATOM     18  N   UNL     1      -0.734   3.050   1.248  0.00  0.00    +0.389 N 
ATOM     19  H   UNL     1       0.138   3.408   0.840  0.00  0.00    -0.084 HD
ATOM     20  H   UNL     1      -0.813   3.370   2.220  0.00  0.00    -0.084 HD
BRANCH  18  22
ATOM     21  C   UNL     1       0.006   1.097  -0.041  0.00  0.00    -0.009 C 
ATOM     22  C   UNL     1      -0.715   1.576   1.220  0.00  0.00    -0.043 C 
BRANCH  22  23
ATOM     23  C   UNL     1       0.013   1.068   2.438  0.00  0.00    -0.061 A 
ATOM     24  C   UNL     1       1.154   1.710   2.883  0.00  0.00    +0.002 A 
ATOM     25  C   UNL     1       1.812   1.242   4.001  0.00  0.00    +0.004 A 
ATOM     26  C   UNL     1       1.346   0.120   4.676  0.00  0.00    -0.044 A 
ATOM     27  C   UNL     1       0.212  -0.521   4.232  0.00  0.00    -0.044 A 
ATOM     28  C   UNL     1      -0.453  -0.043   3.110  0.00  0.00    +0.006 A 
ATOM     29  C   UNL     1      -0.355  -1.735   4.920  0.00  0.00    +0.035 C 
ATOM     30  C   UNL     1       0.691  -2.373   5.832  0.00  0.00    +0.005 C 
ATOM     31  C   UNL     1       1.273  -1.281   6.738  0.00  0.00    +0.005 C 
ATOM     32  C   UNL     1       2.123  -0.346   5.880  0.00  0.00    +0.035 C 
ENDBRANCH  22  23
ENDBRANCH  18  22
ENDBRANCH   1  18
TORSDOF 6
