REMARK  Name = ZINC38964524
REMARK  5 active torsions:
REMARK  status: ('A' for Active; 'I' for Inactive)
REMARK    1  A    between atoms: C_1  and  C_2
REMARK    2  A    between atoms: C_7  and  C_14
REMARK    3  A    between atoms: C_14  and  N_15
REMARK    4  A    between atoms: N_15  and  C_16
REMARK    5  A    between atoms: C_22  and  C_24
REMARK                            x       y       z     vdW  Elec       q    Type
REMARK                         _______ _______ _______ _____ _____    ______ ____
ROOT
ATOM      1  C   UNL     1      -1.761  -6.404   1.268  0.00  0.00    +0.125 C 
ENDROOT
BRANCH   1   8
ATOM      2  C   UNL     1      -3.060   0.744  -0.585  0.00  0.00    +0.044 C 
ATOM      3  C   UNL     1      -2.588  -0.686  -0.514  0.00  0.00    -0.049 A 
ATOM      4  C   UNL     1      -2.543  -1.435  -1.691  0.00  0.00    +0.004 A 
ATOM      5  C   UNL     1      -2.127  -2.728  -1.690  0.00  0.00    +0.010 A 
ATOM      6  C   UNL     1      -1.718  -3.337  -0.424  0.00  0.00    -0.007 A 
ATOM      7  C   UNL     1      -1.293  -4.632  -0.376  0.00  0.00    -0.003 C 
ATOM      8  C   UNL     1      -0.889  -5.181   0.978  0.00  0.00    +0.116 C 
ATOM      9  C   UNL     1      -0.991  -4.248   2.165  0.00  0.00    +0.226 C 
ATOM     10  O   UNL     1      -0.680  -4.637   3.275  0.00  0.00    -0.275 OA
ATOM     11  N   UNL     1      -1.420  -3.009   1.991  0.00  0.00    -0.284 N 
ATOM     12  C   UNL     1      -1.776  -2.523   0.802  0.00  0.00    +0.041 A 
ATOM     13  C   UNL     1      -2.218  -1.192   0.691  0.00  0.00    +0.027 A 
ATOM     14  H   UNL     1      -1.478  -2.428   2.764  0.00  0.00    +0.155 HD
ENDBRANCH   1   8
BRANCH   1  15
ATOM     15  N   UNL     1      -1.294  -7.058   2.493  0.00  0.00    -0.295 N 
ATOM     16  C   UNL     1      -0.275  -7.938   2.441  0.00  0.00    +0.245 C 
ATOM     17  O   UNL     1       0.196  -8.382   3.466  0.00  0.00    -0.273 OA
BRANCH  15  18
ATOM     18  C   UNL     1      -1.935  -6.754   3.775  0.00  0.00    +0.076 C 
ATOM     19  C   UNL     1      -1.126  -7.383   4.911  0.00  0.00    +0.022 C 
ATOM     20  C   UNL     1      -1.795  -7.066   6.250  0.00  0.00    +0.002 C 
ATOM     21  C   UNL     1      -3.215  -7.637   6.258  0.00  0.00    +0.000 C 
ATOM     22  C   UNL     1      -4.024  -7.008   5.122  0.00  0.00    +0.002 C 
ATOM     23  C   UNL     1      -3.354  -7.325   3.783  0.00  0.00    +0.022 C 
ENDBRANCH  15  18
BRANCH  16  24
ATOM     24  C   UNL     1       0.280  -8.370   1.108  0.00  0.00    +0.204 C 
ATOM     25  C   UNL     1       1.455  -7.451   0.690  0.00  0.00    +0.043 C 
ATOM     26  C   UNL     1       2.242  -8.392  -0.262  0.00  0.00    +0.031 C 
ATOM     27  C   UNL     1       2.020  -9.775   0.387  0.00  0.00    +0.161 C 
ATOM     28  O   UNL     1       0.848  -9.686   1.207  0.00  0.00    -0.367 OA
ENDBRANCH  16  24
ENDBRANCH   1  15
TORSDOF 4
