REMARK  Name = ZINC63210115
REMARK  4 active torsions:
REMARK  status: ('A' for Active; 'I' for Inactive)
REMARK    1  A    between atoms: C_4  and  C_10
REMARK    2  A    between atoms: C_6  and  N_7
REMARK    3  A    between atoms: N_12  and  C_13
REMARK    4  A    between atoms: C_20  and  N_22
REMARK                            x       y       z     vdW  Elec       q    Type
REMARK                         _______ _______ _______ _____ _____    ______ ____
ROOT
ATOM      1  C   UNL     1       4.113  -0.586  -0.839  0.00  0.00    +0.245 C 
ATOM      2  O   UNL     1       5.212  -0.146  -1.117  0.00  0.00    -0.270 OA
ATOM      3  N   UNL     1       3.984  -1.860  -0.421  0.00  0.00    -0.310 N 
ATOM      4  H   UNL     1       3.107  -2.212  -0.199  0.00  0.00    +0.149 HD
ENDROOT
BRANCH   1   8
ATOM      5  C   UNL     1       0.681   1.893  -1.188  0.00  0.00    +0.034 A 
ATOM      6  C   UNL     1       1.929   2.398  -1.505  0.00  0.00    +0.018 A 
ATOM      7  C   UNL     1       3.049   1.598  -1.394  0.00  0.00    +0.030 A 
ATOM      8  C   UNL     1       2.919   0.277  -0.960  0.00  0.00    +0.053 A 
ATOM      9  C   UNL     1       1.656  -0.226  -0.643  0.00  0.00    +0.047 A 
ATOM     10  C   UNL     1       0.546   0.585  -0.758  0.00  0.00    +0.127 A 
ATOM     11 BR   UNL     1       4.755   2.290  -1.827  0.00  0.00    -0.050 Br
BRANCH  10  12
ATOM     12  N   UNL     1      -0.794   0.053  -0.421  0.00  0.00    +0.056 N 
ATOM     13  O   UNL     1      -1.768   0.762  -0.522  0.00  0.00    -0.126 OA
ATOM     14  O   UNL     1      -0.914  -1.090  -0.046  0.00  0.00    -0.126 OA
ENDBRANCH  10  12
ENDBRANCH   1   8
BRANCH   3  15
ATOM     15  C   UNL     1       5.168  -2.715  -0.301  0.00  0.00    +0.059 C 
ATOM     16  C   UNL     1       5.765  -2.544   1.109  0.00  0.00    +0.020 C 
ATOM     17  C   UNL     1       6.728  -3.684   1.492  0.00  0.00    +0.002 C 
ATOM     18  C   UNL     1       7.632  -4.081   0.356  0.00  0.00    +0.000 C 
ATOM     19  C   UNL     1       6.986  -5.264  -0.394  0.00  0.00    -0.002 C 
ATOM     20  C   UNL     1       5.942  -4.835  -1.313  0.00  0.00    -0.014 C 
ATOM     21  C   UNL     1       4.771  -4.138  -0.587  0.00  0.00    -0.055 C 
BRANCH  21  22
ATOM     22  N   UNL     1       3.579  -4.155  -1.446  0.00  0.00    +0.381 N 
ATOM     23  H   UNL     1       3.745  -3.587  -2.262  0.00  0.00    -0.090 HD
ATOM     24  H   UNL     1       3.383  -5.104  -1.730  0.00  0.00    -0.090 HD
ATOM     25  H   UNL     1       2.791  -3.788  -0.934  0.00  0.00    -0.090 HD
ENDBRANCH  21  22
ENDBRANCH   3  15
TORSDOF 4
