REMARK  Name = ZINC36589807
REMARK  4 active torsions:
REMARK  status: ('A' for Active; 'I' for Inactive)
REMARK    1  A    between atoms: C_10  and  C_15
REMARK    2  A    between atoms: C_12  and  O_14
REMARK    3  A    between atoms: C_15  and  C_16
REMARK    4  A    between atoms: C_22  and  C_24
REMARK                            x       y       z     vdW  Elec       q    Type
REMARK                         _______ _______ _______ _____ _____    ______ ____
ROOT
ATOM      1  C   UNL     1      -0.017   1.371   0.010  0.00  0.00    +0.001 A 
ATOM      2  C   UNL     1       1.172   2.085   0.002  0.00  0.00    +0.002 A 
ATOM      3  C   UNL     1       2.377   1.423  -0.007  0.00  0.00    +0.028 A 
ATOM      4  C   UNL     1       2.421   0.020  -0.009  0.00  0.00    +0.079 A 
ATOM      5  C   UNL     1       1.221  -0.701  -0.013  0.00  0.00    +0.062 A 
ATOM      6  C   UNL     1       0.002  -0.004   0.002  0.00  0.00    +0.015 A 
ATOM      7  C   UNL     1       1.167  -2.167  -0.044  0.00  0.00    +0.247 C 
ATOM      8  O   UNL     1       0.324  -2.722   0.635  0.00  0.00    -0.270 OA
ATOM      9  N   UNL     1       1.988  -2.928  -0.772  0.00  0.00    -0.299 N 
ATOM     10  C   UNL     1       3.046  -2.328  -1.586  0.00  0.00    +0.167 C 
ATOM     11  C   UNL     1       3.995  -1.594  -0.680  0.00  0.00    +0.209 C 
ATOM     12  N   UNL     1       3.647  -0.566  -0.002  0.00  0.00    -0.215 NA
ATOM     13  H   UNL     1       1.881  -3.892  -0.761  0.00  0.00    +0.150 HD
ENDROOT
BRANCH  11  14
ATOM     14  O   UNL     1       5.263  -2.037  -0.579  0.00  0.00    -0.494 OA
ATOM     15  H   UNL     1       5.815  -1.516   0.021  0.00  0.00    +0.293 HD
ENDBRANCH  11  14
BRANCH  10  16
ATOM     16  C   UNL     1       2.429  -1.350  -2.588  0.00  0.00    +0.127 C 
BRANCH  16  17
ATOM     17  C   UNL     1       1.562  -2.107  -3.560  0.00  0.00    +0.218 C 
ATOM     18  O   UNL     1       1.447  -3.310  -3.461  0.00  0.00    -0.276 OA
ATOM     19  N   UNL     1       0.912  -1.447  -4.540  0.00  0.00    -0.290 N 
ATOM     20  C   UNL     1       0.967   0.007  -4.779  0.00  0.00    +0.108 C 
ATOM     21  C   UNL     1       0.617   0.176  -6.278  0.00  0.00    +0.021 C 
ATOM     22  C   UNL     1      -0.460  -0.925  -6.472  0.00  0.00    +0.033 C 
ATOM     23  C   UNL     1       0.038  -2.058  -5.551  0.00  0.00    +0.162 C 
BRANCH  23  24
ATOM     24  C   UNL     1      -1.137  -2.722  -4.879  0.00  0.00    +0.231 C 
ATOM     25  O   UNL     1      -1.241  -2.692  -3.671  0.00  0.00    -0.274 OA
ATOM     26  N   UNL     1      -2.071  -3.349  -5.620  0.00  0.00    -0.328 N 
ATOM     27  H   UNL     1      -1.988  -3.373  -6.587  0.00  0.00    +0.145 HD
ATOM     28  H   UNL     1      -2.828  -3.776  -5.188  0.00  0.00    +0.145 HD
ENDBRANCH  23  24
ENDBRANCH  16  17
ENDBRANCH  10  16
TORSDOF 4
