REMARK  Name = ZINC26520977
REMARK  6 active torsions:
REMARK  status: ('A' for Active; 'I' for Inactive)
REMARK    1  A    between atoms: C_1  and  C_2
REMARK    2  A    between atoms: C_2  and  O_3
REMARK    3  A    between atoms: O_3  and  C_4
REMARK    4  A    between atoms: C_4  and  C_6
REMARK    5  A    between atoms: C_7  and  C_20
REMARK    6  A    between atoms: C_12  and  C_14
REMARK                            x       y       z     vdW  Elec       q    Type
REMARK                         _______ _______ _______ _____ _____    ______ ____
ROOT
ATOM      1  C   UNL     1      -1.568  -1.192  -1.461  0.00  0.00    +0.078 C 
ATOM      2  C   UNL     1      -1.765  -2.506  -1.701  0.00  0.00    +0.021 C 
ATOM      3  N   UNL     1      -1.657  -3.429  -0.700  0.00  0.00    -0.273 N 
ATOM      4  C   UNL     1      -1.356  -3.119   0.567  0.00  0.00    +0.304 C 
ATOM      5  O   UNL     1      -1.282  -4.011   1.389  0.00  0.00    -0.252 OA
ATOM      6  N   UNL     1      -1.131  -1.850   0.960  0.00  0.00    -0.288 N 
ATOM      7  C   UNL     1      -1.224  -0.777  -0.045  0.00  0.00    +0.144 C 
ATOM      8  C   UNL     1      -2.109  -2.962  -3.095  0.00  0.00    +0.061 C 
ATOM      9  H   UNL     1      -1.821  -4.495  -0.915  0.00  0.00    +0.156 HD
ATOM     10  H   UNL     1      -0.884  -1.606   2.004  0.00  0.00    +0.151 HD
ENDROOT
BRANCH   7  11
ATOM     11  C   UNL     1       0.100  -0.058  -0.080  0.00  0.00    -0.014 A 
ATOM     12  C   UNL     1       0.147   1.323  -0.130  0.00  0.00    +0.028 A 
ATOM     13  C   UNL     1       1.355   1.938  -0.161  0.00  0.00    +0.055 A 
ATOM     14  S   UNL     1       2.478   0.550  -0.120  0.00  0.00    -0.089 S 
ATOM     15  C   UNL     1       1.262  -0.756  -0.064  0.00  0.00    +0.052 A 
ATOM     16 BR   UNL     1       1.749   3.786  -0.231  0.00  0.00    -0.043 Br
ENDBRANCH   7  11
BRANCH   1  17
ATOM     17  C   UNL     1      -1.679  -0.235  -2.497  0.00  0.00    +0.339 C 
ATOM     18  O   UNL     1      -1.850  -0.599  -3.645  0.00  0.00    -0.245 OA
BRANCH  17  19
ATOM     19  O   UNL     1      -1.595   1.081  -2.211  0.00  0.00    -0.462 OA
BRANCH  19  21
ATOM     20  C   UNL     1      -1.597   3.427  -2.791  0.00  0.00    +0.048 C 
ATOM     21  C   UNL     1      -1.716   1.992  -3.306  0.00  0.00    +0.229 C 
ENDBRANCH  19  21
ENDBRANCH  17  19
ENDBRANCH   1  17
TORSDOF 4
