REMARK  Name = ZINC42427188
REMARK  5 active torsions:
REMARK  status: ('A' for Active; 'I' for Inactive)
REMARK    1  A    between atoms: C_1  and  C_2
REMARK    2  A    between atoms: C_6  and  C_19
REMARK    3  A    between atoms: N_9  and  C_10
REMARK    4  A    between atoms: C_10  and  C_11
REMARK    5  A    between atoms: C_14  and  N_18
REMARK                            x       y       z     vdW  Elec       q    Type
REMARK                         _______ _______ _______ _____ _____    ______ ____
ROOT
ATOM      1  C   UNL     1      -0.019   1.526   0.010  0.00  0.00    -0.013 C 
ATOM      2  C   UNL     1       0.002  -0.004   0.002  0.00  0.00    -0.071 C 
ATOM      3  C   UNL     1       0.717  -0.497  -1.258  0.00  0.00    -0.015 C 
ATOM      4  C   UNL     1       0.735  -2.028  -1.262  0.00  0.00    +0.009 C 
ATOM      5  C   UNL     1       1.410  -2.524   0.020  0.00  0.00    +0.058 C 
ATOM      6  C   UNL     1       0.669  -1.956   1.232  0.00  0.00    -0.065 C 
ATOM      7  N   UNL     1       0.711  -0.490   1.192  0.00  0.00    +0.385 N 
ATOM      8  H   UNL     1       1.671  -0.182   1.159  0.00  0.00    -0.081 HD
ENDROOT
BRANCH   5   9
ATOM      9  C   UNL     1       2.845  -2.064   0.044  0.00  0.00    +0.212 C 
ATOM     10  O   UNL     1       3.238  -1.353   0.945  0.00  0.00    -0.276 OA
ATOM     11  N   UNL     1       3.690  -2.441  -0.935  0.00  0.00    -0.329 N 
ATOM     12  H   UNL     1       3.375  -3.009  -1.656  0.00  0.00    +0.145 HD
ATOM     13  H   UNL     1       4.614  -2.144  -0.920  0.00  0.00    +0.145 HD
ENDBRANCH   5   9
BRANCH   7  14
ATOM     14  C   UNL     1       0.067   0.050   2.397  0.00  0.00    -0.041 C 
BRANCH  14  15
ATOM     15  C   UNL     1       0.865  -0.347   3.613  0.00  0.00    -0.050 A 
ATOM     16  C   UNL     1       0.457  -1.417   4.387  0.00  0.00    +0.004 A 
ATOM     17  C   UNL     1       1.185  -1.783   5.502  0.00  0.00    +0.023 A 
ATOM     18  C   UNL     1       2.330  -1.075   5.846  0.00  0.00    +0.026 A 
ATOM     19  C   UNL     1       2.738  -0.001   5.066  0.00  0.00    +0.038 A 
ATOM     20  C   UNL     1       2.008   0.357   3.949  0.00  0.00    +0.021 A 
ATOM     21 BR   UNL     1       2.566   1.816   2.882  0.00  0.00    -0.050 Br
BRANCH  18  22
ATOM     22  N   UNL     1       3.068  -1.442   6.973  0.00  0.00    -0.358 N 
ATOM     23  H   UNL     1       2.782  -2.193   7.516  0.00  0.00    +0.142 HD
ATOM     24  H   UNL     1       3.868  -0.947   7.212  0.00  0.00    +0.142 HD
ENDBRANCH  18  22
ENDBRANCH  14  15
ENDBRANCH   7  14
TORSDOF 4
