REMARK  Name = ZINC22452653
REMARK  4 active torsions:
REMARK  status: ('A' for Active; 'I' for Inactive)
REMARK    1  A    between atoms: C_1  and  C_2
REMARK    2  A    between atoms: C_2  and  C_3
REMARK    3  A    between atoms: C_16  and  C_18
REMARK    4  A    between atoms: C_21  and  C_24
REMARK                            x       y       z     vdW  Elec       q    Type
REMARK                         _______ _______ _______ _____ _____    ______ ____
ROOT
ATOM      1  C   UNL     1      -2.995   3.910  -1.294  0.00  0.00    +0.076 C 
ATOM      2  C   UNL     1      -4.202   4.842  -1.163  0.00  0.00    +0.022 C 
ATOM      3  C   UNL     1      -5.182   4.259  -0.141  0.00  0.00    +0.003 C 
ATOM      4  C   UNL     1      -4.462   4.076   1.198  0.00  0.00    +0.019 C 
ATOM      5  C   UNL     1      -3.248   3.166   0.998  0.00  0.00    +0.108 C 
ATOM      6  N   UNL     1      -2.341   3.768   0.012  0.00  0.00    -0.298 N 
ATOM      7  C   UNL     1      -1.183   3.045  -0.095  0.00  0.00    +0.199 A 
ATOM      8  N   UNL     1      -1.251   1.722  -0.408  0.00  0.00    -0.295 N 
ATOM      9  H   UNL     1      -2.228   1.246  -0.576  0.00  0.00    +0.172 HD
ATOM     10  C   UNL     1      -0.121   0.991  -0.513  0.00  0.00    +0.253 A 
ATOM     11  O   UNL     1      -0.173  -0.197  -0.789  0.00  0.00    -0.268 OA
ATOM     12  C   UNL     1       1.115   1.622  -0.305  0.00  0.00    +0.098 A 
ATOM     13  C   UNL     1       1.128   2.974   0.006  0.00  0.00    +0.080 A 
ATOM     14  N   UNL     1      -0.028   3.645   0.101  0.00  0.00    -0.216 NA
ENDROOT
BRANCH  13  15
ATOM     15  C   UNL     1       2.415   3.673   0.231  0.00  0.00    +0.001 A 
ATOM     16  C   UNL     1       2.428   5.033   0.538  0.00  0.00    +0.010 A 
ATOM     17  C   UNL     1       3.629   5.678   0.752  0.00  0.00    +0.004 A 
ATOM     18  C   UNL     1       4.819   4.980   0.652  0.00  0.00    -0.050 A 
ATOM     19  C   UNL     1       4.813   3.631   0.342  0.00  0.00    +0.004 A 
ATOM     20  C   UNL     1       3.618   2.975   0.131  0.00  0.00    +0.010 A 
ATOM     21  C   UNL     1       6.128   5.691   0.880  0.00  0.00    +0.044 C 
ENDBRANCH  13  15
BRANCH   1  23
ATOM     22  C   UNL     1      -2.638   4.515  -3.692  0.00  0.00    +0.006 C 
ATOM     23  C   UNL     1      -2.004   4.499  -2.300  0.00  0.00    +0.019 C 
ENDBRANCH   1  23
TORSDOF 2
