REMARK  Name = ZINC10938688
REMARK  8 active torsions:
REMARK  status: ('A' for Active; 'I' for Inactive)
REMARK    1  A    between atoms: C_1  and  N_2
REMARK    2  A    between atoms: C_4  and  C_11
REMARK    3  A    between atoms: N_7  and  C_10
REMARK    4  A    between atoms: C_12  and  C_13
REMARK    5  A    between atoms: C_13  and  O_15
REMARK    6  A    between atoms: O_15  and  C_16
REMARK    7  A    between atoms: C_16  and  C_17
REMARK    8  A    between atoms: C_28  and  C_30
REMARK                            x       y       z     vdW  Elec       q    Type
REMARK                         _______ _______ _______ _____ _____    ______ ____
ROOT
ATOM      1  C   UNL     1       2.884  -0.792   1.594  0.00  0.00    +0.258 C 
ATOM      2  O   UNL     1       3.900  -0.239   1.959  0.00  0.00    -0.271 OA
ATOM      3  N   UNL     1       2.357  -0.507   0.387  0.00  0.00    -0.259 N 
ATOM      4  C   UNL     1       1.089  -1.005   0.079  0.00  0.00    +0.050 A 
ATOM      5  C   UNL     1       0.274  -1.420   1.129  0.00  0.00    +0.024 A 
ATOM      6  C   UNL     1      -0.980  -1.938   0.879  0.00  0.00    +0.002 A 
ATOM      7  C   UNL     1      -1.441  -2.050  -0.421  0.00  0.00    +0.001 A 
ATOM      8  C   UNL     1      -0.644  -1.638  -1.471  0.00  0.00    +0.016 A 
ATOM      9  C   UNL     1       0.620  -1.113  -1.227  0.00  0.00    +0.029 A 
ATOM     10  S   UNL     1       1.609  -0.591  -2.591  0.00  0.00    -0.121 S 
ATOM     11  C   UNL     1       3.272  -0.446  -1.869  0.00  0.00    +0.102 C 
ATOM     12  C   UNL     1       3.138   0.309  -0.538  0.00  0.00    +0.122 C 
ENDROOT
BRANCH  12  13
ATOM     13  C   UNL     1       4.506   0.560   0.041  0.00  0.00    -0.026 A 
ATOM     14  C   UNL     1       5.569  -0.245  -0.324  0.00  0.00    +0.005 A 
ATOM     15  C   UNL     1       6.825  -0.012   0.203  0.00  0.00    +0.000 A 
ATOM     16  C   UNL     1       7.017   1.020   1.103  0.00  0.00    +0.000 A 
ATOM     17  C   UNL     1       5.953   1.822   1.472  0.00  0.00    +0.000 A 
ATOM     18  C   UNL     1       4.697   1.592   0.940  0.00  0.00    +0.005 A 
ENDBRANCH  12  13
BRANCH   1  19
ATOM     19  C   UNL     1       2.211  -1.799   2.491  0.00  0.00    +0.328 C 
BRANCH  19  20
ATOM     20  O   UNL     1       3.190  -2.425   3.323  0.00  0.00    -0.452 OA
BRANCH  20  21
ATOM     21  C   UNL     1       2.749  -3.360   4.191  0.00  0.00    +0.332 C 
ATOM     22  O   UNL     1       1.565  -3.635   4.239  0.00  0.00    -0.246 OA
BRANCH  21  24
ATOM     23  C   UNL     1       3.221  -4.957   5.916  0.00  0.00    +0.022 C 
ATOM     24  C   UNL     1       3.663  -4.019   5.045  0.00  0.00    +0.092 C 
BRANCH  23  28
ATOM     25  C   UNL     1       4.218  -8.261   9.417  0.00  0.00    +0.153 C 
ATOM     26  N   UNL     1       4.643  -7.158   8.552  0.00  0.00    -0.303 N 
ATOM     27  C   UNL     1       3.751  -6.614   7.683  0.00  0.00    +0.103 A 
ATOM     28  C   UNL     1       4.152  -5.571   6.866  0.00  0.00    +0.056 A 
ATOM     29  C   UNL     1       5.544  -5.100   6.976  0.00  0.00    +0.263 A 
ATOM     30  O   UNL     1       5.949  -4.190   6.279  0.00  0.00    -0.267 OA
ATOM     31  N   UNL     1       6.357  -5.698   7.872  0.00  0.00    -0.264 N 
ATOM     32  C   UNL     1       5.904  -6.707   8.637  0.00  0.00    +0.331 A 
ATOM     33  O   UNL     1       6.663  -7.228   9.431  0.00  0.00    -0.246 OA
ATOM     34  C   UNL     1       7.745  -5.249   8.008  0.00  0.00    +0.157 C 
ENDBRANCH  23  28
ENDBRANCH  21  24
ENDBRANCH  20  21
ENDBRANCH  19  20
ENDBRANCH   1  19
TORSDOF 6
