REMARK  Name = ZINC02253806
REMARK  8 active torsions:
REMARK  status: ('A' for Active; 'I' for Inactive)
REMARK    1  A    between atoms: C_1  and  C_2
REMARK    2  A    between atoms: C_8  and  N_14
REMARK    3  A    between atoms: C_10  and  S_12
REMARK    4  A    between atoms: S_12  and  C_13
REMARK    5  A    between atoms: N_14  and  C_15
REMARK    6  A    between atoms: C_15  and  C_16
REMARK    7  A    between atoms: C_26  and  C_29
REMARK    8  A    between atoms: C_26  and  C_30
REMARK                            x       y       z     vdW  Elec       q    Type
REMARK                         _______ _______ _______ _____ _____    ______ ____
ROOT
ATOM      1  C   UNL     1     -12.843   2.714   1.111  0.00  0.00    +0.066 C 
ATOM      2  C   UNL     1     -11.646   2.129   0.406  0.00  0.00    +0.045 A 
ATOM      3  C   UNL     1     -11.830   1.163  -0.576  0.00  0.00    +0.003 A 
ATOM      4  C   UNL     1     -10.742   0.631  -1.223  0.00  0.00    -0.026 A 
ATOM      5  C   UNL     1      -9.445   1.071  -0.875  0.00  0.00    +0.037 A 
ATOM      6  C   UNL     1      -8.159   0.627  -1.443  0.00  0.00    +0.094 A 
ATOM      7  C   UNL     1      -7.013   1.230  -0.912  0.00  0.00    +0.080 A 
ATOM      8  C   UNL     1      -5.747   0.890  -1.369  0.00  0.00    +0.138 A 
ATOM      9  N   UNL     1      -5.645  -0.023  -2.333  0.00  0.00    -0.206 NA
ATOM     10  C   UNL     1      -6.738  -0.593  -2.825  0.00  0.00    +0.190 A 
ATOM     11  N   UNL     1      -7.952  -0.292  -2.414  0.00  0.00    -0.221 NA
ATOM     12  S   UNL     1      -7.627   2.359   0.308  0.00  0.00    -0.064 S 
ATOM     13  C   UNL     1      -9.367   2.050   0.132  0.00  0.00    +0.111 A 
ATOM     14  N   UNL     1     -10.435   2.538   0.725  0.00  0.00    -0.244 NA
ATOM     15  C   UNL     1     -10.888  -0.407  -2.302  0.00  0.00    +0.070 C 
ATOM     16  C   UNL     1     -12.284  -1.030  -2.231  0.00  0.00    +0.068 C 
ATOM     17  O   UNL     1     -13.249   0.025  -2.153  0.00  0.00    -0.369 OA
ATOM     18  C   UNL     1     -13.232   0.715  -0.903  0.00  0.00    +0.197 C 
ATOM     19  C   UNL     1     -12.389  -1.916  -0.988  0.00  0.00    +0.041 C 
ATOM     20  C   UNL     1     -12.541  -1.870  -3.484  0.00  0.00    +0.041 C 
ENDROOT
BRANCH  10  21
ATOM     21  S   UNL     1      -6.556  -1.802  -4.094  0.00  0.00    -0.089 S 
ATOM     22  C   UNL     1      -4.754  -1.817  -4.258  0.00  0.00    +0.093 C 
ENDBRANCH  10  21
BRANCH   8  23
ATOM     23  N   UNL     1      -4.617   1.492  -0.839  0.00  0.00    -0.326 N 
ATOM     24  H   UNL     1      -4.704   2.158  -0.140  0.00  0.00    +0.148 HD
BRANCH  23  25
ATOM     25  C   UNL     1      -3.289   1.120  -1.334  0.00  0.00    +0.134 C 
BRANCH  25  26
ATOM     26  C   UNL     1      -2.223   1.924  -0.587  0.00  0.00    +0.135 C 
ATOM     27  C   UNL     1      -0.833   1.634  -1.185  0.00  0.00    +0.035 C 
ATOM     28  C   UNL     1      -0.013   1.086   0.008  0.00  0.00    +0.031 C 
ATOM     29  C   UNL     1      -0.810   1.621   1.224  0.00  0.00    +0.160 C 
ATOM     30  O   UNL     1      -2.186   1.524   0.793  0.00  0.00    -0.375 OA
ENDBRANCH  25  26
ENDBRANCH  23  25
ENDBRANCH   8  23
TORSDOF 4
