REMARK  Name = ZINC63351585
REMARK  8 active torsions:
REMARK  status: ('A' for Active; 'I' for Inactive)
REMARK    1  A    between atoms: C_1  and  C_2
REMARK    2  A    between atoms: C_2  and  C_3
REMARK    3  A    between atoms: C_2  and  C_4
REMARK    4  A    between atoms: C_7  and  C_10
REMARK    5  A    between atoms: N_28  and  C_31
REMARK    6  A    between atoms: C_36  and  C_37
REMARK    7  A    between atoms: C_37  and  O_39
REMARK    8  A    between atoms: O_39  and  C_40
REMARK                            x       y       z     vdW  Elec       q    Type
REMARK                         _______ _______ _______ _____ _____    ______ ____
ROOT
ATOM      1  C   UNL     1       2.707  -1.868  -4.752  0.00  0.00    +0.135 C 
ATOM      2  C   UNL     1       3.875  -0.931  -5.094  0.00  0.00    +0.131 C 
ATOM      3  C   UNL     1       4.755  -1.664  -6.097  0.00  0.00    -0.034 C 
ATOM      4  C   UNL     1       4.836  -0.879  -7.166  0.00  0.00    -0.001 A 
ATOM      5  C   UNL     1       5.587  -1.015  -8.425  0.00  0.00    +0.010 A 
ATOM      6  C   UNL     1       5.431  -0.010  -9.327  0.00  0.00    +0.001 A 
ATOM      7  C   UNL     1       4.614   1.103  -9.106  0.00  0.00    +0.002 A 
ATOM      8  C   UNL     1       3.890   1.311  -7.977  0.00  0.00    +0.026 A 
ATOM      9  C   UNL     1       3.976   0.324  -6.952  0.00  0.00    +0.043 A 
ATOM     10  N   UNL     1       3.406   0.285  -5.761  0.00  0.00    -0.375 N 
ATOM     11  C   UNL     1       5.318  -3.045  -5.853  0.00  0.00    +0.065 C 
ATOM     12  C   UNL     1       4.126  -3.941  -5.471  0.00  0.00    +0.169 C 
ATOM     13  N   UNL     1       3.281  -3.199  -4.513  0.00  0.00    -0.264 N 
ATOM     14  C   UNL     1       3.178  -3.960  -3.417  0.00  0.00    +0.317 C 
ATOM     15  O   UNL     1       2.455  -3.699  -2.476  0.00  0.00    -0.252 OA
ATOM     16  N   UNL     1       3.963  -5.044  -3.478  0.00  0.00    -0.192 N 
ATOM     17  C   UNL     1       4.613  -5.137  -4.681  0.00  0.00    +0.248 C 
ATOM     18  O   UNL     1       5.404  -5.981  -5.044  0.00  0.00    -0.273 OA
ATOM     19  H   UNL     1       2.787   0.934  -5.389  0.00  0.00    +0.160 HD
ENDROOT
BRANCH   1  23
ATOM     20  C   UNL     1       0.708  -0.490  -1.237  0.00  0.00    -0.045 A 
ATOM     21  C   UNL     1       0.002  -0.657  -2.413  0.00  0.00    +0.004 A 
ATOM     22  C   UNL     1       0.648  -1.103  -3.551  0.00  0.00    +0.006 A 
ATOM     23  C   UNL     1       2.002  -1.381  -3.513  0.00  0.00    -0.025 A 
ATOM     24  C   UNL     1       2.709  -1.213  -2.337  0.00  0.00    +0.006 A 
ATOM     25  C   UNL     1       2.063  -0.764  -1.200  0.00  0.00    +0.004 A 
BRANCH  20  27
ATOM     26  C   UNL     1      -0.609   1.372  -0.265  0.00  0.00    +0.012 C 
ATOM     27  C   UNL     1       0.003  -0.004   0.003  0.00  0.00    +0.013 C 
ATOM     28  C   UNL     1      -1.104  -0.991   0.380  0.00  0.00    +0.012 C 
ENDBRANCH  20  27
ENDBRANCH   1  23
BRANCH  16  29
ATOM     29  C   UNL     1       4.100  -5.973  -2.445  0.00  0.00    +0.059 A 
ATOM     30  C   UNL     1       3.260  -7.077  -2.384  0.00  0.00    +0.025 A 
ATOM     31  C   UNL     1       3.397  -7.995  -1.362  0.00  0.00    +0.002 A 
ATOM     32  C   UNL     1       4.371  -7.824  -0.392  0.00  0.00    +0.001 A 
ATOM     33  C   UNL     1       5.214  -6.734  -0.436  0.00  0.00    +0.017 A 
ATOM     34  C   UNL     1       5.091  -5.800  -1.468  0.00  0.00    +0.081 A 
BRANCH  34  35
ATOM     35  C   UNL     1       5.993  -4.635  -1.525  0.00  0.00    +0.341 C 
ATOM     36  O   UNL     1       5.879  -3.822  -2.421  0.00  0.00    -0.245 OA
BRANCH  35  37
ATOM     37  O   UNL     1       6.943  -4.472  -0.584  0.00  0.00    -0.464 OA
ATOM     38  C   UNL     1       7.782  -3.321  -0.702  0.00  0.00    +0.280 C 
ENDBRANCH  35  37
ENDBRANCH  34  35
ENDBRANCH  16  29
TORSDOF 5
