REMARK  Name = ZINC02646421
REMARK  6 active torsions:
REMARK  status: ('A' for Active; 'I' for Inactive)
REMARK    1  A    between atoms: C_3  and  S_6
REMARK    2  A    between atoms: S_6  and  N_9
REMARK    3  A    between atoms: N_9  and  C_10
REMARK    4  A    between atoms: C_13  and  C_16
REMARK    5  A    between atoms: N_18  and  N_19
REMARK    6  A    between atoms: N_19  and  C_20
REMARK                            x       y       z     vdW  Elec       q    Type
REMARK                         _______ _______ _______ _____ _____    ______ ____
ROOT
ATOM      1  C   UNL     1       4.946  -2.840   4.467  0.00  0.00    +0.260 C 
ATOM      2  O   UNL     1       4.156  -3.747   4.291  0.00  0.00    -0.269 OA
ATOM      3  N   UNL     1       5.943  -2.978   5.363  0.00  0.00    -0.232 N 
ATOM      4  H   UNL     1       6.574  -2.255   5.503  0.00  0.00    +0.173 HD
ENDROOT
BRANCH   1   8
ATOM      5  C   UNL     1       4.565   0.766   2.256  0.00  0.00    +0.048 A 
ATOM      6  C   UNL     1       3.659  -0.272   2.054  0.00  0.00    +0.025 A 
ATOM      7  C   UNL     1       3.780  -1.442   2.769  0.00  0.00    +0.015 A 
ATOM      8  C   UNL     1       4.814  -1.587   3.699  0.00  0.00    +0.038 A 
ATOM      9  C   UNL     1       5.721  -0.543   3.900  0.00  0.00    +0.015 A 
ATOM     10  C   UNL     1       5.599   0.622   3.178  0.00  0.00    +0.025 A 
BRANCH   5  11
ATOM     11  N   UNL     1       4.440   1.946   1.532  0.00  0.00    -0.216 N 
ATOM     12  H   UNL     1       4.508   2.802   1.985  0.00  0.00    +0.174 HD
BRANCH  11  13
ATOM     13  S   UNL     1       4.175   1.892  -0.101  0.00  0.00    +0.079 S 
ATOM     14  O   UNL     1       4.214   3.235  -0.564  0.00  0.00    -0.149 OA
ATOM     15  O   UNL     1       3.047   1.050  -0.301  0.00  0.00    -0.149 OA
BRANCH  13  18
ATOM     16  C   UNL     1       6.936  -0.684  -1.589  0.00  0.00    +0.010 A 
ATOM     17  C   UNL     1       5.767  -0.260  -0.985  0.00  0.00    +0.036 A 
ATOM     18  C   UNL     1       5.553   1.069  -0.826  0.00  0.00    +0.146 A 
ATOM     19  S   UNL     1       7.031   1.769  -1.542  0.00  0.00    -0.077 S 
ATOM     20  C   UNL     1       7.834   0.242  -2.005  0.00  0.00    +0.047 A 
ENDBRANCH  13  18
ENDBRANCH  11  13
ENDBRANCH   5  11
ENDBRANCH   1   8
BRANCH   3  21
ATOM     21  N   UNL     1       6.069  -4.168   6.093  0.00  0.00    -0.259 N 
ATOM     22  H   UNL     1       5.400  -4.865   6.003  0.00  0.00    +0.170 HD
BRANCH  21  23
ATOM     23  C   UNL     1       7.109  -4.342   6.911  0.00  0.00    +0.116 C 
ATOM     24  C   UNL     1       8.111  -3.398   7.246  0.00  0.00    +0.025 A 
ATOM     25  C   UNL     1       8.340  -2.070   6.867  0.00  0.00    +0.031 A 
ATOM     26  C   UNL     1       9.433  -1.393   7.375  0.00  0.00    +0.042 A 
ATOM     27  C   UNL     1      10.299  -2.024   8.255  0.00  0.00    +0.022 A 
ATOM     28  C   UNL     1      10.088  -3.338   8.641  0.00  0.00    +0.025 A 
ATOM     29  C   UNL     1       8.996  -4.045   8.146  0.00  0.00    +0.043 A 
ATOM     30  N   UNL     1       8.571  -5.323   8.363  0.00  0.00    -0.280 N 
ATOM     31  C   UNL     1       7.468  -5.582   7.684  0.00  0.00    +0.264 C 
ATOM     32  O   UNL     1       6.856  -6.635   7.681  0.00  0.00    -0.268 OA
ATOM     33 CL   UNL     1       9.722   0.254   6.910  0.00  0.00    -0.084 Cl
ATOM     34  H   UNL     1       9.018  -5.958   8.944  0.00  0.00    +0.155 HD
ENDBRANCH  21  23
ENDBRANCH   3  21
TORSDOF 6
