REMARK  Name = ZINC06686994
REMARK  9 active torsions:
REMARK  status: ('A' for Active; 'I' for Inactive)
REMARK    1  A    between atoms: C_1  and  C_2
REMARK    2  A    between atoms: C_4  and  C_25
REMARK    3  A    between atoms: N_5  and  C_7
REMARK    4  A    between atoms: C_7  and  C_8
REMARK    5  A    between atoms: N_10  and  N_11
REMARK    6  A    between atoms: C_15  and  C_22
REMARK    7  A    between atoms: C_20  and  O_21
REMARK    8  A    between atoms: C_22  and  C_23
REMARK    9  A    between atoms: C_22  and  C_24
REMARK                            x       y       z     vdW  Elec       q    Type
REMARK                         _______ _______ _______ _____ _____    ______ ____
ROOT
ATOM      1  N   UNL     1       2.969  -5.082   2.796  0.00  0.00    -0.174 NA
ATOM      2  C   UNL     1       3.227  -6.123   3.553  0.00  0.00    +0.152 C 
ATOM      3  C   UNL     1       4.552  -6.652   3.951  0.00  0.00    +0.033 A 
ATOM      4  C   UNL     1       5.860  -6.272   3.690  0.00  0.00    +0.016 A 
ATOM      5  C   UNL     1       6.905  -6.998   4.228  0.00  0.00    -0.044 A 
ATOM      6  C   UNL     1       6.649  -8.103   5.025  0.00  0.00    +0.006 A 
ATOM      7  C   UNL     1       5.355  -8.494   5.294  0.00  0.00    +0.029 A 
ATOM      8  C   UNL     1       4.281  -7.774   4.761  0.00  0.00    +0.077 A 
ATOM      9  N   UNL     1       2.936  -7.938   4.864  0.00  0.00    -0.211 NA
ATOM     10  C   UNL     1       2.264  -7.030   4.207  0.00  0.00    +0.241 C 
ENDROOT
BRANCH   1  13
ATOM     11  C   UNL     1       1.482  -3.682   1.773  0.00  0.00    +0.254 C 
ATOM     12  O   UNL     1       2.393  -3.031   1.306  0.00  0.00    -0.272 OA
ATOM     13  N   UNL     1       1.747  -4.751   2.550  0.00  0.00    -0.205 N 
ATOM     14  H   UNL     1       1.019  -5.271   2.923  0.00  0.00    +0.177 HD
BRANCH  11  15
ATOM     15  C   UNL     1       0.055  -3.295   1.485  0.00  0.00    +0.241 C 
BRANCH  15  20
ATOM     16  C   UNL     1      -0.018   1.503   0.010  0.00  0.00    +0.067 C 
ATOM     17  C   UNL     1       0.002  -0.004   0.002  0.00  0.00    +0.060 A 
ATOM     18  C   UNL     1       0.008  -0.818  -1.135  0.00  0.00    +0.047 A 
ATOM     19  C   UNL     1       0.028  -2.107  -0.725  0.00  0.00    +0.037 A 
ATOM     20  N   UNL     1       0.034  -2.109   0.625  0.00  0.00    -0.259 N 
ATOM     21  N   UNL     1       0.023  -0.777   1.058  0.00  0.00    -0.176 NA
ATOM     22  C   UNL     1       0.040  -3.323  -1.615  0.00  0.00    +0.065 C 
ENDBRANCH  15  20
ENDBRANCH  11  15
ENDBRANCH   1  13
BRANCH   5  23
ATOM     23  C   UNL     1       8.327  -6.588   3.946  0.00  0.00    +0.013 C 
ATOM     24  C   UNL     1       9.036  -6.267   5.264  0.00  0.00    +0.012 C 
ATOM     25  C   UNL     1       9.058  -7.733   3.240  0.00  0.00    +0.012 C 
ENDBRANCH   5  23
BRANCH  10  26
ATOM     26  O   UNL     1       0.914  -6.940   4.135  0.00  0.00    -0.491 OA
ATOM     27  H   UNL     1       0.447  -7.626   4.630  0.00  0.00    +0.294 HD
ENDBRANCH  10  26
TORSDOF 5
