REMARK  Name = ZINC17295921
REMARK  8 active torsions:
REMARK  status: ('A' for Active; 'I' for Inactive)
REMARK    1  A    between atoms: C_1  and  N_2
REMARK    2  A    between atoms: N_2  and  C_3
REMARK    3  A    between atoms: N_2  and  S_19
REMARK    4  A    between atoms: C_3  and  C_4
REMARK    5  A    between atoms: N_6  and  C_7
REMARK    6  A    between atoms: C_7  and  C_8
REMARK    7  A    between atoms: C_8  and  C_9
REMARK    8  A    between atoms: S_19  and  C_22
REMARK                            x       y       z     vdW  Elec       q    Type
REMARK                         _______ _______ _______ _____ _____    ______ ____
ROOT
ATOM      1  C   UNL     1      -4.133   2.934  -2.166  0.00  0.00    +0.229 C 
ATOM      2  O   UNL     1      -4.296   3.982  -1.579  0.00  0.00    -0.274 OA
ATOM      3  N   UNL     1      -5.183   2.314  -2.742  0.00  0.00    -0.314 N 
ATOM      4  H   UNL     1      -5.052   1.475  -3.212  0.00  0.00    +0.149 HD
ENDROOT
BRANCH   1   5
ATOM      5  C   UNL     1      -2.758   2.324  -2.253  0.00  0.00    +0.204 C 
BRANCH   5   7
ATOM      6  C   UNL     1      -1.187   4.317  -2.251  0.00  0.00    +0.132 C 
ATOM      7  N   UNL     1      -1.799   3.183  -1.554  0.00  0.00    -0.170 NA
BRANCH   7   8
ATOM      8  S   UNL     1      -1.406   2.872   0.025  0.00  0.00    +0.067 S 
ATOM      9  O   UNL     1      -2.493   2.143   0.578  0.00  0.00    -0.152 OA
ATOM     10  O   UNL     1      -0.951   4.098   0.579  0.00  0.00    -0.152 OA
BRANCH   8  11
ATOM     11  C   UNL     1      -0.022   1.781   0.012  0.00  0.00    +0.143 A 
ATOM     12  C   UNL     1       1.300   2.079   0.001  0.00  0.00    +0.036 A 
ATOM     13  C   UNL     1       2.220   1.048  -0.013  0.00  0.00    +0.010 A 
ATOM     14  C   UNL     1       1.773  -0.232  -0.016  0.00  0.00    +0.047 A 
ATOM     15  S   UNL     1       0.002  -0.004   0.002  0.00  0.00    -0.077 S 
ENDBRANCH   8  11
ENDBRANCH   7   8
ENDBRANCH   5   7
ENDBRANCH   1   5
BRANCH   3  16
ATOM     16  C   UNL     1      -6.520   2.906  -2.658  0.00  0.00    +0.109 C 
BRANCH  16  17
ATOM     17  C   UNL     1      -7.522   2.009  -3.388  0.00  0.00    +0.056 C 
BRANCH  17  18
ATOM     18  C   UNL     1      -8.897   2.619  -3.302  0.00  0.00    -0.021 A 
ATOM     19  C   UNL     1      -9.845   2.326  -2.397  0.00  0.00    +0.087 A 
ATOM     20  N   UNL     1     -10.962   3.081  -2.631  0.00  0.00    -0.360 N 
ATOM     21  H   UNL     1     -11.777   3.046  -2.107  0.00  0.00    +0.165 HD
ATOM     22  C   UNL     1     -10.759   3.892  -3.724  0.00  0.00    +0.047 A 
ATOM     23  C   UNL     1      -9.456   3.638  -4.193  0.00  0.00    +0.003 A 
ATOM     24  C   UNL     1      -8.970   4.327  -5.306  0.00  0.00    +0.010 A 
ATOM     25  C   UNL     1      -9.762   5.245  -5.935  0.00  0.00    +0.001 A 
ATOM     26  C   UNL     1     -11.048   5.498  -5.478  0.00  0.00    +0.002 A 
ATOM     27  C   UNL     1     -11.548   4.830  -4.381  0.00  0.00    +0.026 A 
ENDBRANCH  17  18
ENDBRANCH  16  17
ENDBRANCH   3  16
TORSDOF 7
