REMARK  Name = ZINC14478415
REMARK  7 active torsions:
REMARK  status: ('A' for Active; 'I' for Inactive)
REMARK    1  A    between atoms: C_1  and  O_2
REMARK    2  A    between atoms: O_2  and  C_3
REMARK    3  A    between atoms: C_3  and  C_4
REMARK    4  A    between atoms: C_4  and  N_5
REMARK    5  A    between atoms: C_6  and  C_8
REMARK    6  A    between atoms: C_21  and  C_24
REMARK    7  A    between atoms: C_29  and  N_30
REMARK                            x       y       z     vdW  Elec       q    Type
REMARK                         _______ _______ _______ _____ _____    ______ ____
ROOT
ATOM      1  C   UNL     1      -1.244   3.047   0.196  0.00  0.00    +0.037 A 
ATOM      2  C   UNL     1      -1.184   1.651   0.253  0.00  0.00    +0.015 A 
ATOM      3  C   UNL     1       0.033   1.014   0.222  0.00  0.00    +0.024 A 
ATOM      4  C   UNL     1       1.214   1.747   0.123  0.00  0.00    +0.031 A 
ATOM      5  C   UNL     1       1.153   3.148   0.076  0.00  0.00    -0.019 A 
ATOM      6  C   UNL     1      -0.063   3.787   0.104  0.00  0.00    +0.019 A 
ATOM      7  C   UNL     1       2.434   3.884   0.018  0.00  0.00    +0.049 C 
ATOM      8  C   UNL     1       2.535   5.243  -0.573  0.00  0.00    -0.023 C 
ATOM      9  C   UNL     1       3.744   5.386  -1.103  0.00  0.00    -0.030 C 
ATOM     10  C   UNL     1       4.546   4.094  -0.932  0.00  0.00    +0.033 C 
ATOM     11  C   UNL     1       3.428   3.046  -0.841  0.00  0.00    +0.029 C 
ATOM     12  C   UNL     1       3.714   1.798  -0.027  0.00  0.00    +0.107 C 
ATOM     13  N   UNL     1       2.430   1.069   0.053  0.00  0.00    -0.336 N 
ATOM     14  H   UNL     1       2.434   0.099   0.056  0.00  0.00    +0.147 HD
ENDROOT
BRANCH  12  15
ATOM     15  C   UNL     1       4.751   0.951  -0.719  0.00  0.00    +0.003 A 
ATOM     16  C   UNL     1       5.055   1.180  -2.048  0.00  0.00    +0.008 A 
ATOM     17  C   UNL     1       6.006   0.403  -2.683  0.00  0.00    +0.000 A 
ATOM     18  C   UNL     1       6.654  -0.602  -1.988  0.00  0.00    +0.002 A 
ATOM     19  C   UNL     1       6.350  -0.830  -0.659  0.00  0.00    +0.033 A 
ATOM     20  C   UNL     1       5.402  -0.050  -0.023  0.00  0.00    +0.131 A 
BRANCH  20  21
ATOM     21  N   UNL     1       5.081  -0.290   1.402  0.00  0.00    +0.057 N 
ATOM     22  O   UNL     1       5.725  -1.101   2.043  0.00  0.00    -0.126 OA
ATOM     23  O   UNL     1       4.172   0.322   1.933  0.00  0.00    -0.126 OA
ENDBRANCH  20  21
ENDBRANCH  12  15
BRANCH   1  25
ATOM     24  N   UNL     1      -3.687   3.017   0.315  0.00  0.00    -0.309 N 
ATOM     25  C   UNL     1      -2.549   3.734   0.227  0.00  0.00    +0.244 C 
ATOM     26  O   UNL     1      -2.598   4.948   0.172  0.00  0.00    -0.270 OA
ATOM     27  H   UNL     1      -3.648   2.049   0.358  0.00  0.00    +0.149 HD
BRANCH  24  28
ATOM     28  C   UNL     1      -4.983   3.700   0.345  0.00  0.00    +0.132 C 
BRANCH  28  29
ATOM     29  C   UNL     1      -6.103   2.663   0.448  0.00  0.00    +0.178 C 
BRANCH  29  31
ATOM     30  C   UNL     1      -7.013   0.984   1.897  0.00  0.00    +0.194 C 
ATOM     31  O   UNL     1      -6.007   1.979   1.699  0.00  0.00    -0.381 OA
ENDBRANCH  29  31
ENDBRANCH  28  29
ENDBRANCH  24  28
ENDBRANCH   1  25
TORSDOF 6
