REMARK  Name = ZINC35246942
REMARK  9 active torsions:
REMARK  status: ('A' for Active; 'I' for Inactive)
REMARK    1  A    between atoms: C_4  and  C_7
REMARK    2  A    between atoms: C_7  and  N_8
REMARK    3  A    between atoms: N_8  and  C_9
REMARK    4  A    between atoms: N_8  and  C_20
REMARK    5  A    between atoms: C_9  and  C_10
REMARK    6  A    between atoms: C_13  and  C_16
REMARK    7  A    between atoms: C_20  and  C_21
REMARK    8  A    between atoms: C_24  and  C_26
REMARK    9  A    between atoms: C_31  and  C_34
REMARK                            x       y       z     vdW  Elec       q    Type
REMARK                         _______ _______ _______ _____ _____    ______ ____
ROOT
ATOM      1  N   UNL     1       4.942  -0.891   1.494  0.00  0.00    +0.390 N 
ATOM      2  H   UNL     1       4.800   0.021   1.900  0.00  0.00    -0.080 HD
ENDROOT
BRANCH   1   3
ATOM      3  C   UNL     1       4.544  -0.867   0.081  0.00  0.00    -0.042 C 
BRANCH   3   7
ATOM      4  C   UNL     1       0.545   0.597  -0.249  0.00  0.00    +0.000 A 
ATOM      5  C   UNL     1       1.602   1.485  -0.175  0.00  0.00    +0.000 A 
ATOM      6  C   UNL     1       2.896   1.011  -0.068  0.00  0.00    +0.002 A 
ATOM      7  C   UNL     1       3.133  -0.350  -0.035  0.00  0.00    -0.064 A 
ATOM      8  C   UNL     1       2.076  -1.238  -0.109  0.00  0.00    +0.002 A 
ATOM      9  C   UNL     1       0.782  -0.764  -0.217  0.00  0.00    +0.000 A 
ENDBRANCH   3   7
ENDBRANCH   1   3
BRANCH   1  10
ATOM     10  C   UNL     1       4.129  -1.880   2.215  0.00  0.00    -0.042 C 
BRANCH  10  11
ATOM     11  C   UNL     1       4.434  -1.803   3.689  0.00  0.00    -0.064 A 
ATOM     12  C   UNL     1       5.363  -2.660   4.248  0.00  0.00    +0.002 A 
ATOM     13  C   UNL     1       5.643  -2.590   5.600  0.00  0.00    +0.012 A 
ATOM     14  C   UNL     1       4.995  -1.661   6.393  0.00  0.00    +0.055 A 
ATOM     15  C   UNL     1       4.066  -0.803   5.833  0.00  0.00    +0.012 A 
ATOM     16  C   UNL     1       3.789  -0.871   4.481  0.00  0.00    +0.002 A 
BRANCH  14  17
ATOM     17  C   UNL     1       5.299  -1.585   7.867  0.00  0.00    +0.417 C 
ATOM     18  F   UNL     1       6.349  -0.686   8.080  0.00  0.00    -0.166 F 
ATOM     19  F   UNL     1       4.163  -1.147   8.555  0.00  0.00    -0.166 F 
ATOM     20  F   UNL     1       5.667  -2.852   8.333  0.00  0.00    -0.166 F 
ENDBRANCH  14  17
ENDBRANCH  10  11
ENDBRANCH   1  10
BRANCH   1  21
ATOM     21  C   UNL     1       6.362  -1.257   1.597  0.00  0.00    -0.002 C 
BRANCH  21  22
ATOM     22  C   UNL     1       7.205  -0.180   0.964  0.00  0.00    +0.090 A 
ATOM     23  C   UNL     1       7.713   0.898   1.601  0.00  0.00    +0.043 A 
ATOM     24  C   UNL     1       8.431   1.639   0.650  0.00  0.00    +0.055 A 
ATOM     25  C   UNL     1       8.323   0.968  -0.534  0.00  0.00    +0.190 A 
ATOM     26  O   UNL     1       7.579  -0.137  -0.321  0.00  0.00    -0.457 OA
BRANCH  25  27
ATOM     27  C   UNL     1       8.916   1.374  -1.812  0.00  0.00    +0.282 C 
ATOM     28  O   UNL     1       9.684   2.317  -1.855  0.00  0.00    -0.267 OA
ATOM     29  N   UNL     1       8.611   0.703  -2.941  0.00  0.00    -0.295 N 
ATOM     30  C   UNL     1       9.301   1.006  -4.202  0.00  0.00    +0.109 C 
ATOM     31  C   UNL     1       9.880  -0.293  -4.771  0.00  0.00    +0.032 C 
ATOM     32  C   UNL     1       8.764  -1.332  -4.899  0.00  0.00    +0.078 C 
ATOM     33  C   UNL     1       8.179  -1.629  -3.516  0.00  0.00    +0.032 C 
ATOM     34  C   UNL     1       7.585  -0.349  -2.931  0.00  0.00    +0.109 C 
BRANCH  32  35
ATOM     35  C   UNL     1       9.323  -2.600  -5.490  0.00  0.00    +0.214 C 
ATOM     36  O   UNL     1      10.499  -2.667  -5.780  0.00  0.00    -0.276 OA
ATOM     37  N   UNL     1       8.517  -3.661  -5.696  0.00  0.00    -0.329 N 
ATOM     38  H   UNL     1       7.577  -3.607  -5.464  0.00  0.00    +0.145 HD
ATOM     39  H   UNL     1       8.877  -4.477  -6.077  0.00  0.00    +0.145 HD
ENDBRANCH  32  35
ENDBRANCH  25  27
ENDBRANCH  21  22
ENDBRANCH   1  21
TORSDOF 9
