REMARK  Name = ZINC22216408
REMARK  7 active torsions:
REMARK  status: ('A' for Active; 'I' for Inactive)
REMARK    1  A    between atoms: C_1  and  C_2
REMARK    2  A    between atoms: C_3  and  C_28
REMARK    3  A    between atoms: N_4  and  C_22
REMARK    4  A    between atoms: C_5  and  S_7
REMARK    5  A    between atoms: S_7  and  C_8
REMARK    6  A    between atoms: C_8  and  C_9
REMARK    7  A    between atoms: C_9  and  N_10
REMARK                            x       y       z     vdW  Elec       q    Type
REMARK                         _______ _______ _______ _____ _____    ______ ____
ROOT
ATOM      1  S   UNL     1       0.059  -3.453   1.776  0.00  0.00    -0.086 S 
ENDROOT
BRANCH   1   6
ATOM      2  C   UNL     1      -0.018   1.503   0.010  0.00  0.00    +0.067 C 
ATOM      3  C   UNL     1       0.002  -0.004   0.002  0.00  0.00    +0.060 A 
ATOM      4  C   UNL     1       0.008  -0.785  -1.092  0.00  0.00    +0.039 A 
ATOM      5  N   UNL     1       0.028  -2.090  -0.654  0.00  0.00    -0.320 N 
ATOM      6  C   UNL     1       0.034  -2.053   0.707  0.00  0.00    +0.170 A 
ATOM      7  N   UNL     1       0.024  -0.796   1.087  0.00  0.00    -0.227 NA
ATOM      8  C   UNL     1      -0.006  -0.320  -2.525  0.00  0.00    +0.065 C 
BRANCH   5   9
ATOM      9  C   UNL     1       0.041  -3.291  -1.493  0.00  0.00    +0.089 C 
ATOM     10  C   UNL     1      -1.195  -4.139  -1.187  0.00  0.00    +0.025 C 
ATOM     11  C   UNL     1      -1.182  -5.393  -2.064  0.00  0.00    +0.002 C 
ATOM     12  C   UNL     1       0.080  -6.207  -1.771  0.00  0.00    +0.000 C 
ATOM     13  C   UNL     1       1.316  -5.358  -2.077  0.00  0.00    +0.002 C 
ATOM     14  C   UNL     1       1.303  -4.104  -1.200  0.00  0.00    +0.025 C 
ENDBRANCH   5   9
ENDBRANCH   1   6
BRANCH   1  15
ATOM     15  C   UNL     1       0.057  -2.734   3.441  0.00  0.00    +0.098 C 
BRANCH  15  16
ATOM     16  C   UNL     1       0.078  -3.856   4.481  0.00  0.00    +0.146 C 
BRANCH  16  17
ATOM     17  N   UNL     1       0.077  -3.275   5.826  0.00  0.00    -0.167 N 
ATOM     18  C   UNL     1       1.138  -2.847   6.527  0.00  0.00    +0.268 C 
ATOM     19  O   UNL     1       2.260  -2.914   6.065  0.00  0.00    -0.268 OA
ATOM     20  C   UNL     1       0.906  -2.294   7.869  0.00  0.00    +0.065 A 
ATOM     21  C   UNL     1       1.820  -1.782   8.805  0.00  0.00    +0.015 A 
ATOM     22  C   UNL     1       1.379  -1.309  10.020  0.00  0.00    +0.001 A 
ATOM     23  C   UNL     1       0.034  -1.327  10.345  0.00  0.00    +0.002 A 
ATOM     24  C   UNL     1      -0.883  -1.829   9.433  0.00  0.00    +0.029 A 
ATOM     25  C   UNL     1      -0.449  -2.299   8.226  0.00  0.00    +0.121 A 
ATOM     26  S   UNL     1      -1.250  -2.998   6.808  0.00  0.00    +0.078 S 
ATOM     27  O   UNL     1      -2.030  -1.977   6.203  0.00  0.00    -0.150 OA
ATOM     28  O   UNL     1      -1.774  -4.262   7.191  0.00  0.00    -0.150 OA
ENDBRANCH  16  17
ENDBRANCH  15  16
ENDBRANCH   1  15
TORSDOF 5
