REMARK  Name = ZINC49501531
REMARK  8 active torsions:
REMARK  status: ('A' for Active; 'I' for Inactive)
REMARK    1  A    between atoms: C_1  and  C_2
REMARK    2  A    between atoms: C_2  and  C_4
REMARK    3  A    between atoms: C_2  and  N_11
REMARK    4  A    between atoms: C_4  and  N_5
REMARK    5  A    between atoms: N_11  and  C_12
REMARK    6  A    between atoms: C_12  and  C_14
REMARK    7  A    between atoms: C_12  and  C_15
REMARK    8  A    between atoms: N_20  and  C_21
REMARK                            x       y       z     vdW  Elec       q    Type
REMARK                         _______ _______ _______ _____ _____    ______ ____
ROOT
ATOM      1  N   UNL     1      -1.477  -0.584  -0.175  0.00  0.00    -0.305 NA
ATOM      2  H   UNL     1      -2.049  -0.068  -0.828  0.00  0.00    +0.123 HD
ENDROOT
BRANCH   1   4
ATOM      3  C   UNL     1      -0.227   1.521  -0.128  0.00  0.00    +0.022 C 
ATOM      4  C   UNL     1      -0.130  -0.005  -0.083  0.00  0.00    +0.035 C 
BRANCH   4   5
ATOM      5  C   UNL     1       0.718  -0.497  -1.257  0.00  0.00    -0.060 C 
BRANCH   5   6
ATOM      6  N   UNL     1       0.738  -1.966  -1.265  0.00  0.00    +0.381 N 
ATOM      7  C   UNL     1       1.418  -2.438  -2.477  0.00  0.00    -0.079 C 
ATOM      8  C   UNL     1       1.370  -3.967  -2.531  0.00  0.00    -0.019 C 
ATOM      9  C   UNL     1       2.072  -4.538  -1.296  0.00  0.00    -0.004 C 
ATOM     10  C   UNL     1       1.402  -3.980  -0.037  0.00  0.00    -0.019 C 
ATOM     11  C   UNL     1       1.448  -2.451  -0.075  0.00  0.00    -0.079 C 
ATOM     12  H   UNL     1      -0.209  -2.315  -1.255  0.00  0.00    -0.082 HD
ENDBRANCH   5   6
ENDBRANCH   4   5
ENDBRANCH   1   4
BRANCH   1  13
ATOM     13  C   UNL     1      -2.115  -0.649   1.146  0.00  0.00    +0.138 C 
ATOM     14  C   UNL     1      -1.684  -1.932   1.859  0.00  0.00    +0.034 C 
BRANCH  13  15
ATOM     15  C   UNL     1      -3.613  -0.644   0.982  0.00  0.00    +0.237 C 
ATOM     16  O   UNL     1      -4.101  -0.593  -0.126  0.00  0.00    -0.274 OA
ATOM     17  N   UNL     1      -4.410  -0.698   2.068  0.00  0.00    -0.239 N 
ATOM     18  C   UNL     1      -5.750  -0.694   1.921  0.00  0.00    +0.306 C 
ATOM     19  O   UNL     1      -6.239  -0.642   0.810  0.00  0.00    -0.252 OA
ATOM     20  N   UNL     1      -6.547  -0.748   3.007  0.00  0.00    -0.302 N 
ATOM     21  C   UNL     1      -8.003  -0.743   2.847  0.00  0.00    +0.129 C 
ATOM     22  H   UNL     1      -4.019  -0.739   2.955  0.00  0.00    +0.159 HD
ATOM     23  H   UNL     1      -6.156  -0.789   3.894  0.00  0.00    +0.150 HD
ENDBRANCH  13  15
ENDBRANCH   1  13
TORSDOF 5
