REMARK  Name = ZINC20368444
REMARK  10 active torsions:
REMARK  status: ('A' for Active; 'I' for Inactive)
REMARK    1  A    between atoms: C_1  and  C_2
REMARK    2  A    between atoms: C_5  and  C_8
REMARK    3  A    between atoms: C_15  and  N_37
REMARK    4  A    between atoms: C_16  and  C_35
REMARK    5  A    between atoms: C_17  and  C_19
REMARK    6  A    between atoms: C_22  and  O_27
REMARK    7  A    between atoms: C_23  and  O_25
REMARK    8  A    between atoms: O_25  and  C_26
REMARK    9  A    between atoms: O_27  and  C_28
REMARK   10  A    between atoms: C_28  and  C_29
REMARK                            x       y       z     vdW  Elec       q    Type
REMARK                         _______ _______ _______ _____ _____    ______ ____
ROOT
ATOM      1  C   UNL     1      -0.136  -4.609   0.076  0.00  0.00    +0.100 A 
ATOM      2  C   UNL     1       0.759  -5.261   0.930  0.00  0.00    +0.054 A 
ATOM      3  C   UNL     1       0.649  -6.603   0.712  0.00  0.00    +0.223 A 
ATOM      4  N   UNL     1      -0.284  -6.789  -0.244  0.00  0.00    -0.246 N 
ATOM      5  H   UNL     1      -0.573  -7.643  -0.602  0.00  0.00    +0.192 HD
ATOM      6  N   UNL     1      -0.769  -5.528  -0.627  0.00  0.00    -0.171 NA
ATOM      7  O   UNL     1       1.391  -7.518   1.385  0.00  0.00    -0.423 OA
ATOM      8  C   UNL     1       2.448  -7.067   2.091  0.00  0.00    +0.200 C 
ATOM      9  C   UNL     1       2.658  -5.764   2.381  0.00  0.00    +0.098 C 
ATOM     10  C   UNL     1       1.712  -4.675   1.940  0.00  0.00    +0.102 C 
ENDROOT
BRANCH   1  15
ATOM     11  C   UNL     1      -0.939   1.083  -0.284  0.00  0.00    +0.044 C 
ATOM     12  C   UNL     1      -0.729  -0.406  -0.190  0.00  0.00    -0.050 A 
ATOM     13  C   UNL     1      -1.817  -1.259  -0.220  0.00  0.00    +0.004 A 
ATOM     14  C   UNL     1      -1.631  -2.624  -0.134  0.00  0.00    +0.010 A 
ATOM     15  C   UNL     1      -0.343  -3.142  -0.017  0.00  0.00    +0.003 A 
ATOM     16  C   UNL     1       0.750  -2.279   0.013  0.00  0.00    +0.010 A 
ATOM     17  C   UNL     1       0.552  -0.916  -0.079  0.00  0.00    +0.004 A 
ENDBRANCH   1  15
BRANCH  10  18
ATOM     18  C   UNL     1       0.940  -4.160   3.127  0.00  0.00    -0.031 A 
ATOM     19  C   UNL     1       0.122  -5.015   3.842  0.00  0.00    +0.008 A 
ATOM     20  C   UNL     1      -0.588  -4.547   4.933  0.00  0.00    +0.050 A 
ATOM     21  C   UNL     1      -0.481  -3.218   5.311  0.00  0.00    +0.162 A 
ATOM     22  C   UNL     1       0.343  -2.358   4.591  0.00  0.00    +0.162 A 
ATOM     23  C   UNL     1       1.055  -2.834   3.503  0.00  0.00    +0.054 A 
BRANCH  22  24
ATOM     24  O   UNL     1       0.451  -1.053   4.959  0.00  0.00    -0.491 OA
ATOM     25  C   UNL     1       1.271  -0.215   4.141  0.00  0.00    +0.277 C 
ENDBRANCH  22  24
BRANCH  21  26
ATOM     26  O   UNL     1      -1.179  -2.756   6.382  0.00  0.00    -0.484 OA
BRANCH  26  27
ATOM     27  C   UNL     1      -2.004  -3.696   7.073  0.00  0.00    +0.264 C 
BRANCH  27  28
ATOM     28  C   UNL     1      -2.695  -3.009   8.223  0.00  0.00    -0.010 A 
ATOM     29  C   UNL     1      -2.092  -2.967   9.466  0.00  0.00    +0.007 A 
ATOM     30  C   UNL     1      -2.726  -2.337  10.520  0.00  0.00    +0.000 A 
ATOM     31  C   UNL     1      -3.962  -1.747  10.331  0.00  0.00    +0.000 A 
ATOM     32  C   UNL     1      -4.564  -1.788   9.088  0.00  0.00    +0.000 A 
ATOM     33  C   UNL     1      -3.929  -2.415   8.032  0.00  0.00    +0.007 A 
ENDBRANCH  27  28
ENDBRANCH  26  27
ENDBRANCH  21  26
ENDBRANCH  10  18
BRANCH   8  34
ATOM     34  N   UNL     1       3.364  -7.985   2.541  0.00  0.00    -0.328 N 
ATOM     35  H   UNL     1       3.241  -8.928   2.348  0.00  0.00    +0.145 HD
ATOM     36  H   UNL     1       4.135  -7.691   3.051  0.00  0.00    +0.145 HD
ENDBRANCH   8  34
BRANCH   9  37
ATOM     37  C   UNL     1       3.821  -5.404   3.136  0.00  0.00    +0.101 C 
ATOM     38  N   UNL     1       4.743  -5.118   3.734  0.00  0.00    -0.191 NA
ENDBRANCH   9  37
TORSDOF 8
