REMARK  Name = ZINC38827663
REMARK  6 active torsions:
REMARK  status: ('A' for Active; 'I' for Inactive)
REMARK    1  A    between atoms: C_1  and  C_2
REMARK    2  A    between atoms: C_2  and  C_3
REMARK    3  A    between atoms: C_2  and  C_4
REMARK    4  A    between atoms: C_2  and  C_5
REMARK    5  A    between atoms: N_7  and  C_8
REMARK    6  A    between atoms: C_8  and  C_9
REMARK                            x       y       z     vdW  Elec       q    Type
REMARK                         _______ _______ _______ _____ _____    ______ ____
ROOT
ATOM      1  C   UNL     1       1.553  -3.814  -2.673  0.00  0.00    +0.164 C 
ATOM      2  C   UNL     1       2.325  -4.345  -3.908  0.00  0.00    +0.196 C 
ATOM      3  O   UNL     1       2.779  -5.637  -3.438  0.00  0.00    -0.346 OA
ATOM      4  C   UNL     1       3.083  -5.435  -2.047  0.00  0.00    +0.171 C 
ATOM      5  O   UNL     1       2.321  -4.320  -1.562  0.00  0.00    -0.342 OA
ATOM      6  C   UNL     1       2.712  -6.691  -1.258  0.00  0.00    +0.065 C 
ATOM      7  C   UNL     1       3.043  -6.482   0.221  0.00  0.00    +0.005 C 
ATOM      8  C   UNL     1       4.540  -6.202   0.373  0.00  0.00    +0.000 C 
ATOM      9  C   UNL     1       4.905  -4.940  -0.410  0.00  0.00    +0.005 C 
ATOM     10  C   UNL     1       4.577  -5.147  -1.891  0.00  0.00    +0.065 C 
ENDROOT
BRANCH   1  11
ATOM     11  C   UNL     1       1.532  -2.285  -2.665  0.00  0.00    +0.138 C 
BRANCH  11  14
ATOM     12  C   UNL     1       0.707  -0.490  -1.238  0.00  0.00    +0.218 C 
ATOM     13  O   UNL     1       1.150   0.308  -2.036  0.00  0.00    -0.275 OA
ATOM     14  N   UNL     1       0.847  -1.812  -1.460  0.00  0.00    -0.312 N 
ATOM     15  H   UNL     1       0.493  -2.451  -0.821  0.00  0.00    +0.149 HD
BRANCH  12  17
ATOM     16  C   UNL     1      -0.019   1.526   0.010  0.00  0.00    +0.020 C 
ATOM     17  C   UNL     1       0.002  -0.004   0.002  0.00  0.00    +0.039 C 
ATOM     18  C   UNL     1       0.742  -0.511   1.242  0.00  0.00    +0.020 C 
ATOM     19  C   UNL     1      -1.433  -0.534   0.013  0.00  0.00    +0.020 C 
ENDBRANCH  12  17
ENDBRANCH  11  14
ENDBRANCH   1  11
TORSDOF 3
