REMARK  Name = ZINC08619714
REMARK  10 active torsions:
REMARK  status: ('A' for Active; 'I' for Inactive)
REMARK    1  A    between atoms: C_1  and  C_2
REMARK    2  A    between atoms: C_5  and  N_9
REMARK    3  A    between atoms: C_6  and  C_8
REMARK    4  A    between atoms: C_10  and  C_12
REMARK    5  A    between atoms: C_12  and  N_66
REMARK    6  A    between atoms: C_15  and  O_33
REMARK    7  A    between atoms: C_22  and  C_24
REMARK    8  A    between atoms: C_27  and  O_32
REMARK    9  A    between atoms: C_28  and  O_30
REMARK   10  A    between atoms: O_30  and  C_31
REMARK                            x       y       z     vdW  Elec       q    Type
REMARK                         _______ _______ _______ _____ _____    ______ ____
ROOT
ATOM      1  C   UNL     1      -3.511   2.117   1.026  0.00  0.00    -0.075 C 
ATOM      2  C   UNL     1      -4.227   2.172  -0.326  0.00  0.00    +0.016 C 
ATOM      3  C   UNL     1      -3.356   2.938  -1.325  0.00  0.00    +0.066 C 
ATOM      4  C   UNL     1      -4.045   2.954  -2.689  0.00  0.00    +0.035 C 
ATOM      5  C   UNL     1      -4.225   1.524  -3.202  0.00  0.00    +0.003 C 
ATOM      6  C   UNL     1      -2.856   0.854  -3.328  0.00  0.00    +0.000 C 
ATOM      7  C   UNL     1      -2.178   0.819  -1.957  0.00  0.00    +0.005 C 
ATOM      8  C   UNL     1      -1.995   2.247  -1.439  0.00  0.00    +0.011 C 
ATOM      9  C   UNL     1      -1.342   2.199  -0.054  0.00  0.00    -0.031 C 
ATOM     10  N   UNL     1      -2.215   1.427   0.857  0.00  0.00    +0.390 N 
ATOM     11  H   UNL     1      -2.382   0.499   0.450  0.00  0.00    -0.080 HD
ENDROOT
BRANCH   9  12
ATOM     12  C   UNL     1      -0.005   1.511  -0.152  0.00  0.00    -0.057 A 
ATOM     13  C   UNL     1       0.058   0.130  -0.192  0.00  0.00    +0.006 A 
ATOM     14  C   UNL     1       1.282  -0.506  -0.288  0.00  0.00    +0.049 A 
ATOM     15  C   UNL     1       2.448   0.240  -0.344  0.00  0.00    +0.158 A 
ATOM     16  C   UNL     1       2.384   1.630  -0.303  0.00  0.00    +0.161 A 
ATOM     17  C   UNL     1       1.155   2.261  -0.207  0.00  0.00    +0.051 A 
BRANCH  16  18
ATOM     18  O   UNL     1       3.526   2.366  -0.357  0.00  0.00    -0.491 OA
ATOM     19  C   UNL     1       3.384   3.788  -0.311  0.00  0.00    +0.277 C 
ENDBRANCH  16  18
BRANCH  15  20
ATOM     20  O   UNL     1       3.653  -0.384  -0.437  0.00  0.00    -0.503 OA
ATOM     21  H   UNL     1       3.944  -0.542  -1.346  0.00  0.00    +0.292 HD
ENDBRANCH  15  20
ENDBRANCH   9  12
BRANCH   3  22
ATOM     22  O   UNL     1      -3.172   4.277  -0.859  0.00  0.00    -0.388 OA
ATOM     23  H   UNL     1      -3.994   4.777  -0.763  0.00  0.00    +0.210 HD
ENDBRANCH   3  22
BRANCH  10  24
ATOM     24  C   UNL     1      -1.555   1.264   2.169  0.00  0.00    +0.020 C 
BRANCH  24  26
ATOM     25  N   UNL     1      -0.872   2.667   4.088  0.00  0.00    -0.287 N 
ATOM     26  C   UNL     1      -1.348   2.603   2.829  0.00  0.00    +0.201 C 
ATOM     27  O   UNL     1      -1.611   3.623   2.227  0.00  0.00    -0.278 OA
ATOM     28  H   UNL     1      -0.600   1.856   4.545  0.00  0.00    +0.155 HD
BRANCH  25  33
ATOM     29  C   UNL     1      -0.457   7.680   6.712  0.00  0.00    +0.044 C 
ATOM     30  C   UNL     1      -0.567   6.348   6.015  0.00  0.00    -0.050 A 
ATOM     31  C   UNL     1      -0.499   6.284   4.635  0.00  0.00    +0.005 A 
ATOM     32  C   UNL     1      -0.595   5.065   3.993  0.00  0.00    +0.024 A 
ATOM     33  C   UNL     1      -0.770   3.904   4.735  0.00  0.00    +0.036 A 
ATOM     34  C   UNL     1      -0.837   3.972   6.120  0.00  0.00    -0.029 A 
ATOM     35  C   UNL     1      -0.736   5.194   6.756  0.00  0.00    +0.008 A 
ATOM     36  C   UNL     1      -1.020   2.713   6.929  0.00  0.00    +0.045 C 
ENDBRANCH  25  33
ENDBRANCH  24  26
ENDBRANCH  10  24
TORSDOF 7
