REMARK  Name = ZINC35523335
REMARK  10 active torsions:
REMARK  status: ('A' for Active; 'I' for Inactive)
REMARK    1  A    between atoms: C_1  and  C_2
REMARK    2  A    between atoms: C_2  and  C_3
REMARK    3  A    between atoms: C_3  and  C_4
REMARK    4  A    between atoms: C_4  and  C_5
REMARK    5  A    between atoms: C_5  and  C_6
REMARK    6  A    between atoms: C_6  and  N_7
REMARK    7  A    between atoms: C_8  and  C_10
REMARK    8  A    between atoms: C_13  and  C_15
REMARK    9  A    between atoms: C_15  and  N_16
REMARK   10  A    between atoms: C_24  and  C_26
REMARK                            x       y       z     vdW  Elec       q    Type
REMARK                         _______ _______ _______ _____ _____    ______ ____
ROOT
ATOM      1  N   UNL     1       6.341  -5.735   7.872  0.00  0.00    +0.394 N 
ATOM      2  C   UNL     1       6.499  -4.662   6.881  0.00  0.00    -0.055 C 
ATOM      3  C   UNL     1       7.929  -4.672   6.325  0.00  0.00    +0.103 C 
ATOM      4  N   UNL     1       8.858  -4.683   7.463  0.00  0.00    -0.353 N 
ATOM      5  C   UNL     1      10.184  -4.396   7.467  0.00  0.00    +0.086 A 
ATOM      6  C   UNL     1      10.638  -4.526   8.732  0.00  0.00    +0.019 A 
ATOM      7  C   UNL     1       9.546  -4.911   9.538  0.00  0.00    +0.021 A 
ATOM      8  C   UNL     1       8.473  -5.002   8.739  0.00  0.00    +0.009 A 
ATOM      9  C   UNL     1       7.061  -5.386   9.108  0.00  0.00    +0.012 C 
ATOM     10  H   UNL     1       6.716  -6.593   7.497  0.00  0.00    -0.080 HD
ENDROOT
BRANCH   9  11
ATOM     11  C   UNL     1       7.083  -6.573  10.036  0.00  0.00    -0.037 A 
ATOM     12  C   UNL     1       6.975  -7.852   9.524  0.00  0.00    +0.004 A 
ATOM     13  C   UNL     1       6.996  -8.941  10.376  0.00  0.00    +0.000 A 
ATOM     14  C   UNL     1       7.123  -8.752  11.739  0.00  0.00    +0.001 A 
ATOM     15  C   UNL     1       7.231  -7.473  12.252  0.00  0.00    +0.020 A 
ATOM     16  C   UNL     1       7.216  -6.383  11.400  0.00  0.00    +0.043 A 
ATOM     17 CL   UNL     1       7.358  -4.776  12.043  0.00  0.00    -0.083 Cl
ENDBRANCH   9  11
BRANCH   1  18
ATOM     18  C   UNL     1       4.915  -5.915   8.171  0.00  0.00    -0.002 C 
BRANCH  18  22
ATOM     19  C   UNL     1       3.085  -6.373   5.044  0.00  0.00    +0.189 A 
ATOM     20  C   UNL     1       3.304  -7.681   5.368  0.00  0.00    +0.055 A 
ATOM     21  C   UNL     1       4.016  -7.683   6.578  0.00  0.00    +0.043 A 
ATOM     22  C   UNL     1       4.198  -6.392   6.934  0.00  0.00    +0.090 A 
ATOM     23  O   UNL     1       3.639  -5.606   6.005  0.00  0.00    -0.457 OA
BRANCH  19  25
ATOM     24  N   UNL     1       2.232  -4.563   3.651  0.00  0.00    -0.309 N 
ATOM     25  C   UNL     1       2.375  -5.887   3.856  0.00  0.00    +0.279 C 
ATOM     26  O   UNL     1       1.916  -6.680   3.055  0.00  0.00    -0.267 OA
ATOM     27  H   UNL     1       2.598  -3.931   4.290  0.00  0.00    +0.149 HD
BRANCH  24  28
ATOM     28  C   UNL     1       1.524  -4.077   2.464  0.00  0.00    +0.104 C 
BRANCH  28  29
ATOM     29  C   UNL     1       1.503  -2.548   2.473  0.00  0.00    +0.019 C 
BRANCH  29  30
ATOM     30  C   UNL     1       0.763  -2.041   1.233  0.00  0.00    +0.002 C 
BRANCH  30  31
ATOM     31  C   UNL     1       0.742  -0.511   1.242  0.00  0.00    -0.000 C 
BRANCH  31  33
ATOM     32  C   UNL     1      -0.019   1.526   0.010  0.00  0.00    +0.004 C 
ATOM     33  C   UNL     1       0.002  -0.004   0.002  0.00  0.00    -0.003 C 
ENDBRANCH  31  33
ENDBRANCH  30  31
ENDBRANCH  29  30
ENDBRANCH  28  29
ENDBRANCH  24  28
ENDBRANCH  19  25
ENDBRANCH  18  22
ENDBRANCH   1  18
TORSDOF 9
