REMARK  Name = ZINC05298654
REMARK  16 active torsions:
REMARK  status: ('A' for Active; 'I' for Inactive)
REMARK    1  A    between atoms: C_1  and  C_2
REMARK    2  A    between atoms: C_2  and  C_3
REMARK    3  A    between atoms: C_3  and  N_65
REMARK    4  A    between atoms: C_4  and  C_5
REMARK    5  A    between atoms: C_4  and  N_65
REMARK    6  A    between atoms: C_5  and  C_6
REMARK    7  A    between atoms: C_7  and  P_8
REMARK    8  A    between atoms: C_7  and  N_65
REMARK    9  A    between atoms: C_10  and  C_15
REMARK   10  A    between atoms: C_10  and  C_16
REMARK   11  A    between atoms: C_11  and  C_13
REMARK   12  A    between atoms: C_11  and  C_14
REMARK   13  A    between atoms: C_18  and  C_23
REMARK   14  A    between atoms: C_18  and  C_24
REMARK   15  A    between atoms: C_19  and  C_21
REMARK   16  A    between atoms: C_19  and  C_22
REMARK                            x       y       z     vdW  Elec       q    Type
REMARK                         _______ _______ _______ _____ _____    ______ ____
ROOT
ATOM      1  P   UNL     1      -0.815  -0.582  -1.867  0.00  0.00    +0.263 P 
ATOM      2  O   UNL     1      -1.901  -1.881  -1.534  0.00  0.00    -0.298 OA
ATOM      3  C   UNL     1      -2.340  -1.675  -0.178  0.00  0.00    +0.102 C 
ATOM      4  C   UNL     1      -1.132  -1.128   0.591  0.00  0.00    +0.102 C 
ATOM      5  O   UNL     1      -0.066  -0.960  -0.358  0.00  0.00    -0.298 OA
ATOM      6  C   UNL     1      -1.483   0.220   1.222  0.00  0.00    +0.045 C 
ATOM      7  C   UNL     1      -0.712  -2.119   1.676  0.00  0.00    +0.045 C 
ATOM      8  C   UNL     1      -2.794  -3.001   0.430  0.00  0.00    +0.045 C 
ATOM      9  C   UNL     1      -3.484  -0.662  -0.150  0.00  0.00    +0.045 C 
ATOM     10  O   UNL     1      -0.266  -1.353  -3.308  0.00  0.00    -0.298 OA
ATOM     11  C   UNL     1       1.167  -1.273  -3.299  0.00  0.00    +0.102 C 
ATOM     12  C   UNL     1       1.552   0.017  -2.567  0.00  0.00    +0.102 C 
ATOM     13  O   UNL     1       0.335   0.665  -2.168  0.00  0.00    -0.298 OA
ATOM     14  C   UNL     1       2.344   0.931  -3.504  0.00  0.00    +0.045 C 
ATOM     15  C   UNL     1       2.393  -0.316  -1.334  0.00  0.00    +0.045 C 
ATOM     16  C   UNL     1       1.694  -1.233  -4.735  0.00  0.00    +0.045 C 
ATOM     17  C   UNL     1       1.751  -2.482  -2.566  0.00  0.00    +0.045 C 
ENDROOT
BRANCH   1  18
ATOM     18  C   UNL     1      -2.227   0.639  -1.932  0.00  0.00    +0.054 C 
BRANCH  18  19
ATOM     19  N   UNL     1      -2.071   1.476  -3.141  0.00  0.00    +0.388 N 
ATOM     20  H   UNL     1      -1.070   1.603  -3.331  0.00  0.00    -0.081 HD
BRANCH  19  21
ATOM     21  C   UNL     1      -2.700   0.809  -4.301  0.00  0.00    -0.078 C 
BRANCH  21  23
ATOM     22  C   UNL     1      -4.819  -0.112  -5.251  0.00  0.00    +0.002 C 
ATOM     23  C   UNL     1      -4.210   0.682  -4.093  0.00  0.00    -0.022 C 
ENDBRANCH  21  23
ENDBRANCH  19  21
BRANCH  19  24
ATOM     24  C   UNL     1      -2.691   2.800  -2.922  0.00  0.00    -0.078 C 
BRANCH  24  25
ATOM     25  C   UNL     1      -2.391   3.692  -4.128  0.00  0.00    -0.022 C 
ATOM     26  C   UNL     1      -2.892   5.111  -3.850  0.00  0.00    +0.002 C 
ENDBRANCH  24  25
ENDBRANCH  19  24
ENDBRANCH  18  19
ENDBRANCH   1  18
TORSDOF 6
