REMARK  Name = ZINC08445920
REMARK  11 active torsions:
REMARK  status: ('A' for Active; 'I' for Inactive)
REMARK    1  A    between atoms: C_1  and  C_2
REMARK    2  A    between atoms: C_3  and  C_14
REMARK    3  A    between atoms: N_5  and  C_7
REMARK    4  A    between atoms: N_16  and  C_17
REMARK    5  A    between atoms: C_17  and  C_18
REMARK    6  A    between atoms: C_18  and  C_19
REMARK    7  A    between atoms: C_19  and  C_20
REMARK    8  A    between atoms: C_20  and  N_21
REMARK    9  A    between atoms: C_22  and  C_24
REMARK   10  A    between atoms: C_25  and  C_36
REMARK   11  A    between atoms: N_27  and  C_30
REMARK                            x       y       z     vdW  Elec       q    Type
REMARK                         _______ _______ _______ _____ _____    ______ ____
ROOT
ATOM      1  C   UNL     1      -2.638   0.405  -5.056  0.00  0.00    +0.020 C 
ENDROOT
BRANCH   1   2
ATOM      2  C   UNL     1      -1.191   0.268  -4.578  0.00  0.00    +0.104 C 
BRANCH   2   5
ATOM      3  C   UNL     1      -0.005  -0.374  -2.548  0.00  0.00    +0.249 C 
ATOM      4  O   UNL     1       1.043  -0.173  -3.132  0.00  0.00    -0.270 OA
ATOM      5  N   UNL     1      -1.178  -0.183  -3.184  0.00  0.00    -0.311 N 
ATOM      6  H   UNL     1      -2.014  -0.344  -2.719  0.00  0.00    +0.149 HD
BRANCH   3   9
ATOM      7  C   UNL     1      -0.018   1.503   0.010  0.00  0.00    +0.068 C 
ATOM      8  C   UNL     1       0.002  -0.004   0.002  0.00  0.00    +0.074 A 
ATOM      9  C   UNL     1       0.008  -0.828  -1.147  0.00  0.00    +0.096 A 
ATOM     10  C   UNL     1       0.028  -2.139  -0.708  0.00  0.00    +0.145 A 
ATOM     11  N   UNL     1       0.034  -2.111   0.638  0.00  0.00    -0.220 N 
ATOM     12  N   UNL     1       0.023  -0.775   1.054  0.00  0.00    -0.170 NA
ATOM     13 CL   UNL     1       0.042  -3.558  -1.708  0.00  0.00    -0.061 Cl
BRANCH  11  14
ATOM     14  C   UNL     1       0.052  -3.232   1.480  0.00  0.00    +0.067 A 
ATOM     15  C   UNL     1      -0.619  -4.390   1.112  0.00  0.00    +0.028 A 
ATOM     16  C   UNL     1      -0.599  -5.492   1.944  0.00  0.00    +0.002 A 
ATOM     17  C   UNL     1       0.088  -5.443   3.143  0.00  0.00    +0.000 A 
ATOM     18  C   UNL     1       0.757  -4.291   3.512  0.00  0.00    +0.002 A 
ATOM     19  C   UNL     1       0.746  -3.187   2.682  0.00  0.00    +0.028 A 
ENDBRANCH  11  14
ENDBRANCH   3   9
ENDBRANCH   2   5
ENDBRANCH   1   2
BRANCH   1  20
ATOM     20  C   UNL     1      -2.651   0.876  -6.512  0.00  0.00    +0.020 C 
BRANCH  20  21
ATOM     21  C   UNL     1      -4.098   1.013  -6.990  0.00  0.00    +0.104 C 
BRANCH  21  22
ATOM     22  N   UNL     1      -4.111   1.464  -8.384  0.00  0.00    -0.311 N 
ATOM     23  C   UNL     1      -5.284   1.655  -9.020  0.00  0.00    +0.249 C 
ATOM     24  O   UNL     1      -6.331   1.453  -8.436  0.00  0.00    -0.270 OA
ATOM     25  H   UNL     1      -3.275   1.624  -8.849  0.00  0.00    +0.149 HD
BRANCH  23  26
ATOM     26  C   UNL     1      -5.296   2.108 -10.421  0.00  0.00    +0.096 A 
ATOM     27  C   UNL     1      -5.296   1.284 -11.570  0.00  0.00    +0.074 A 
ATOM     28  N   UNL     1      -5.310   2.056 -12.621  0.00  0.00    -0.170 NA
ATOM     29  N   UNL     1      -5.319   3.392 -12.206  0.00  0.00    -0.220 N 
ATOM     30  C   UNL     1      -5.317   3.419 -10.860  0.00  0.00    +0.145 A 
ATOM     31 CL   UNL     1      -5.333   4.838  -9.860  0.00  0.00    -0.061 Cl
ATOM     32  C   UNL     1      -5.282  -0.223 -11.578  0.00  0.00    +0.068 C 
BRANCH  29  33
ATOM     33  C   UNL     1      -5.334   4.512 -13.048  0.00  0.00    +0.067 A 
ATOM     34  C   UNL     1      -6.026   5.655 -12.673  0.00  0.00    +0.028 A 
ATOM     35  C   UNL     1      -6.039   6.758 -13.505  0.00  0.00    +0.002 A 
ATOM     36  C   UNL     1      -5.363   6.723 -14.710  0.00  0.00    +0.000 A 
ATOM     37  C   UNL     1      -4.673   5.586 -15.087  0.00  0.00    +0.002 A 
ATOM     38  C   UNL     1      -4.652   4.482 -14.257  0.00  0.00    +0.028 A 
ENDBRANCH  29  33
ENDBRANCH  23  26
ENDBRANCH  21  22
ENDBRANCH  20  21
ENDBRANCH   1  20
TORSDOF 9
