REMARK  Name = ZINC11155619
REMARK  8 active torsions:
REMARK  status: ('A' for Active; 'I' for Inactive)
REMARK    1  A    between atoms: C_1  and  C_2
REMARK    2  A    between atoms: C_2  and  C_3
REMARK    3  A    between atoms: C_2  and  C_4
REMARK    4  A    between atoms: C_4  and  C_6
REMARK    5  A    between atoms: C_4  and  N_24
REMARK    6  A    between atoms: C_11  and  N_14
REMARK    7  A    between atoms: N_14  and  S_15
REMARK    8  A    between atoms: S_15  and  C_18
REMARK                            x       y       z     vdW  Elec       q    Type
REMARK                         _______ _______ _______ _____ _____    ______ ____
ROOT
ATOM      1  C   UNL     1       0.820  -1.999  -1.172  0.00  0.00    +0.236 C 
ATOM      2  O   UNL     1       0.382  -2.688  -2.068  0.00  0.00    -0.274 OA
ATOM      3  N   UNL     1       1.396  -2.575  -0.099  0.00  0.00    -0.300 N 
ATOM      4  C   UNL     1       1.824  -1.763   1.048  0.00  0.00    +0.109 C 
ATOM      5  C   UNL     1       3.297  -2.063   1.343  0.00  0.00    +0.039 C 
ATOM      6  C   UNL     1       3.478  -3.570   1.538  0.00  0.00    +0.079 C 
ATOM      7  C   UNL     1       3.083  -4.303   0.254  0.00  0.00    +0.039 C 
ATOM      8  C   UNL     1       1.602  -4.029  -0.050  0.00  0.00    +0.109 C 
ENDROOT
BRANCH   6   9
ATOM      9  N   UNL     1       4.879  -3.857   1.852  0.00  0.00    -0.187 NA
ATOM     10  H   UNL     1       5.585  -3.331   1.446  0.00  0.00    +0.148 HD
BRANCH   9  11
ATOM     11  S   UNL     1       5.259  -5.081   2.902  0.00  0.00    +0.059 S 
ATOM     12  O   UNL     1       6.677  -5.126   2.978  0.00  0.00    -0.153 OA
ATOM     13  O   UNL     1       4.440  -4.900   4.049  0.00  0.00    -0.153 OA
BRANCH  11  14
ATOM     14  C   UNL     1       4.747  -6.590   2.150  0.00  0.00    +0.105 A 
ATOM     15  C   UNL     1       3.469  -7.070   2.365  0.00  0.00    +0.028 A 
ATOM     16  C   UNL     1       3.067  -8.254   1.775  0.00  0.00    +0.002 A 
ATOM     17  C   UNL     1       3.943  -8.957   0.970  0.00  0.00    +0.000 A 
ATOM     18  C   UNL     1       5.221  -8.476   0.753  0.00  0.00    +0.002 A 
ATOM     19  C   UNL     1       5.621  -7.290   1.340  0.00  0.00    +0.028 A 
ENDBRANCH  11  14
ENDBRANCH   9  11
ENDBRANCH   6   9
BRANCH   1  20
ATOM     20  C   UNL     1       0.722  -0.497  -1.259  0.00  0.00    +0.163 C 
BRANCH  20  21
ATOM     21  N   UNL     1       0.540  -0.100  -2.657  0.00  0.00    -0.288 N 
ATOM     22  C   UNL     1       0.919   1.128  -3.063  0.00  0.00    +0.298 C 
ATOM     23  O   UNL     1       1.411   1.906  -2.269  0.00  0.00    -0.253 OA
ATOM     24  N   UNL     1       0.751   1.494  -4.349  0.00  0.00    -0.313 N 
ATOM     25  H   UNL     1       0.147  -0.720  -3.290  0.00  0.00    +0.151 HD
ATOM     26  H   UNL     1       0.358   0.874  -4.983  0.00  0.00    +0.146 HD
ATOM     27  H   UNL     1       1.024   2.378  -4.642  0.00  0.00    +0.146 HD
ENDBRANCH  20  21
BRANCH  20  29
ATOM     28  C   UNL     1      -0.494   1.514  -0.410  0.00  0.00    +0.009 C 
ATOM     29  C   UNL     1      -0.472  -0.016  -0.432  0.00  0.00    +0.012 C 
ATOM     30  C   UNL     1      -1.768  -0.535  -1.058  0.00  0.00    +0.009 C 
ENDBRANCH  20  29
ENDBRANCH   1  20
TORSDOF 6
