REMARK  Name = ZINC09032450
REMARK  6 active torsions:
REMARK  status: ('A' for Active; 'I' for Inactive)
REMARK    1  A    between atoms: C_1  and  C_2
REMARK    2  A    between atoms: C_10  and  C_12
REMARK    3  A    between atoms: C_12  and  O_13
REMARK    4  A    between atoms: O_13  and  C_14
REMARK    5  A    between atoms: C_14  and  C_16
REMARK    6  A    between atoms: C_16  and  N_17
REMARK                            x       y       z     vdW  Elec       q    Type
REMARK                         _______ _______ _______ _____ _____    ______ ____
ROOT
ATOM      1  C   UNL     1       2.147  -2.974  -0.034  0.00  0.00    +0.329 C 
ATOM      2  O   UNL     1       3.257  -2.497  -0.042  0.00  0.00    -0.249 OA
ENDROOT
BRANCH   1   3
ATOM      3  O   UNL     1       1.071  -2.171  -0.020  0.00  0.00    -0.454 OA
BRANCH   3   4
ATOM      4  C   UNL     1       1.317  -0.740  -0.015  0.00  0.00    +0.328 C 
BRANCH   4  14
ATOM      5  C   UNL     1      -2.516   5.585   0.044  0.00  0.00    +0.047 C 
ATOM      6  C   UNL     1      -2.460   4.079   0.036  0.00  0.00    -0.009 A 
ATOM      7  C   UNL     1      -3.627   3.325   0.037  0.00  0.00    +0.063 A 
ATOM      8  C   UNL     1      -3.540   1.946   0.029  0.00  0.00    +0.133 A 
ATOM      9  N   UNL     1      -2.367   1.341   0.015  0.00  0.00    -0.237 NA
ATOM     10  C   UNL     1      -1.234   2.025   0.019  0.00  0.00    +0.144 A 
ATOM     11  C   UNL     1      -1.245   3.416   0.026  0.00  0.00    +0.085 A 
ATOM     12 CL   UNL     1       0.244   4.308   0.024  0.00  0.00    -0.080 Cl
ATOM     13  N   UNL     1      -0.016   1.344   0.009  0.00  0.00    -0.266 N 
ATOM     14  C   UNL     1       0.002  -0.004   0.002  0.00  0.00    +0.256 C 
ATOM     15  O   UNL     1      -1.040  -0.625   0.009  0.00  0.00    -0.272 OA
ATOM     16 CL   UNL     1      -5.177   4.106   0.050  0.00  0.00    -0.082 Cl
ATOM     17  H   UNL     1       0.817   1.840   0.004  0.00  0.00    +0.156 HD
ENDBRANCH   4  14
ENDBRANCH   3   4
ENDBRANCH   1   3
BRANCH   1  18
ATOM     18  C   UNL     1       1.970  -4.470  -0.041  0.00  0.00    +0.265 C 
BRANCH  18  19
ATOM     19  N   UNL     1       3.284  -5.118  -0.057  0.00  0.00    -0.238 N 
ATOM     20  C   UNL     1       3.884  -5.408   1.114  0.00  0.00    +0.274 A 
ATOM     21  O   UNL     1       3.338  -5.135   2.166  0.00  0.00    -0.266 OA
ATOM     22  C   UNL     1       5.208  -6.065   1.110  0.00  0.00    +0.053 A 
ATOM     23  C   UNL     1       5.864  -6.388   2.290  0.00  0.00    +0.014 A 
ATOM     24  C   UNL     1       7.105  -6.998   2.238  0.00  0.00    +0.001 A 
ATOM     25  C   UNL     1       7.696  -7.287   1.021  0.00  0.00    +0.001 A 
ATOM     26  C   UNL     1       7.055  -6.972  -0.165  0.00  0.00    +0.014 A 
ATOM     27  C   UNL     1       5.810  -6.360  -0.130  0.00  0.00    +0.053 A 
ATOM     28  C   UNL     1       5.086  -6.003  -1.369  0.00  0.00    +0.271 A 
ATOM     29  O   UNL     1       5.576  -6.243  -2.455  0.00  0.00    -0.266 OA
ATOM     30  N   UNL     1       3.879  -5.410  -1.285  0.00  0.00    -0.260 N 
ATOM     31  H   UNL     1       3.410  -5.179  -2.102  0.00  0.00    +0.190 HD
ENDBRANCH  18  19
ENDBRANCH   1  18
TORSDOF 5
