REMARK  Name = ZINC36485067
REMARK  16 active torsions:
REMARK  status: ('A' for Active; 'I' for Inactive)
REMARK    1  A    between atoms: C_1  and  C_2
REMARK    2  A    between atoms: C_7  and  C_8
REMARK    3  A    between atoms: C_8  and  C_10
REMARK    4  A    between atoms: C_8  and  N_21
REMARK    5  A    between atoms: N_12  and  C_13
REMARK    6  A    between atoms: C_13  and  C_14
REMARK    7  A    between atoms: C_13  and  C_15
REMARK    8  A    between atoms: C_13  and  C_16
REMARK    9  A    between atoms: C_16  and  C_17
REMARK   10  A    between atoms: C_17  and  C_18
REMARK   11  A    between atoms: C_17  and  C_19
REMARK   12  A    between atoms: C_17  and  C_20
REMARK   13  A    between atoms: N_21  and  C_22
REMARK   14  A    between atoms: C_29  and  C_31
REMARK   15  A    between atoms: C_35  and  O_38
REMARK   16  A    between atoms: C_36  and  O_37
REMARK                            x       y       z     vdW  Elec       q    Type
REMARK                         _______ _______ _______ _____ _____    ______ ____
ROOT
ATOM      1  C   UNL     1       1.451   1.365   3.284  0.00  0.00    +0.198 C 
ENDROOT
BRANCH   1   8
ATOM      2  C   UNL     1       1.329  -1.188   1.937  0.00  0.00    +0.044 C 
ATOM      3  C   UNL     1       2.633  -0.438   2.011  0.00  0.00    -0.045 A 
ATOM      4  C   UNL     1       3.770  -0.968   1.430  0.00  0.00    +0.004 A 
ATOM      5  C   UNL     1       4.967  -0.280   1.499  0.00  0.00    +0.000 A 
ATOM      6  C   UNL     1       5.027   0.940   2.148  0.00  0.00    +0.000 A 
ATOM      7  C   UNL     1       3.890   1.470   2.728  0.00  0.00    +0.006 A 
ATOM      8  C   UNL     1       2.692   0.784   2.656  0.00  0.00    -0.015 A 
ENDBRANCH   1   8
BRANCH   1   9
ATOM      9  C   UNL     1       1.616   2.855   3.436  0.00  0.00    +0.239 C 
ATOM     10  O   UNL     1       1.748   3.341   4.539  0.00  0.00    -0.273 OA
ATOM     11  N   UNL     1       1.617   3.648   2.345  0.00  0.00    -0.308 N 
ATOM     12  H   UNL     1       1.444   3.268   1.470  0.00  0.00    +0.149 HD
BRANCH  11  13
ATOM     13  C   UNL     1       1.881   5.082   2.483  0.00  0.00    +0.030 C 
ATOM     14  C   UNL     1       0.749   5.734   3.279  0.00  0.00    +0.031 C 
ATOM     15  C   UNL     1       3.206   5.290   3.218  0.00  0.00    +0.031 C 
BRANCH  13  16
ATOM     16  C   UNL     1       1.961   5.721   1.095  0.00  0.00    +0.031 C 
BRANCH  16  17
ATOM     17  C   UNL     1       2.640   4.751   0.126  0.00  0.00    -0.036 C 
ATOM     18  C   UNL     1       1.595   3.803  -0.463  0.00  0.00    +0.010 C 
ATOM     19  C   UNL     1       3.305   5.541  -1.003  0.00  0.00    +0.010 C 
ATOM     20  C   UNL     1       3.700   3.941   0.875  0.00  0.00    +0.010 C 
ENDBRANCH  16  17
ENDBRANCH  13  16
ENDBRANCH  11  13
ENDBRANCH   1   9
BRANCH   1  21
ATOM     21  N   UNL     1       1.242   0.760   4.601  0.00  0.00    -0.251 N 
ATOM     22  C   UNL     1       0.067   0.167   4.891  0.00  0.00    +0.255 C 
ATOM     23  O   UNL     1      -0.846   0.202   4.089  0.00  0.00    -0.269 OA
BRANCH  21  24
ATOM     24  C   UNL     1       2.261   0.798   5.559  0.00  0.00    +0.039 A 
ATOM     25  C   UNL     1       3.450   0.116   5.337  0.00  0.00    +0.023 A 
ATOM     26  C   UNL     1       4.455   0.155   6.283  0.00  0.00    +0.003 A 
ATOM     27  C   UNL     1       4.278   0.873   7.452  0.00  0.00    +0.020 A 
ATOM     28  C   UNL     1       3.095   1.555   7.676  0.00  0.00    +0.043 A 
ATOM     29  C   UNL     1       2.088   1.524   6.730  0.00  0.00    +0.043 A 
ATOM     30 CL   UNL     1       2.878   2.454   9.145  0.00  0.00    -0.083 Cl
ENDBRANCH  21  24
BRANCH  22  31
ATOM     31  C   UNL     1      -0.111  -0.526   6.182  0.00  0.00    +0.082 A 
ATOM     32  C   UNL     1       0.997  -1.038   6.863  0.00  0.00    +0.017 A 
ATOM     33  C   UNL     1       0.827  -1.684   8.067  0.00  0.00    +0.005 A 
ATOM     34  C   UNL     1      -0.439  -1.831   8.611  0.00  0.00    +0.049 A 
ATOM     35  C   UNL     1      -1.546  -1.329   7.948  0.00  0.00    +0.159 A 
ATOM     36  C   UNL     1      -1.390  -0.668   6.733  0.00  0.00    +0.171 A 
BRANCH  36  37
ATOM     37  O   UNL     1      -2.472  -0.169   6.084  0.00  0.00    -0.503 OA
ATOM     38  H   UNL     1      -2.884  -0.792   5.470  0.00  0.00    +0.292 HD
ENDBRANCH  36  37
BRANCH  35  39
ATOM     39  O   UNL     1      -2.786  -1.476   8.487  0.00  0.00    -0.503 OA
ATOM     40  H   UNL     1      -3.051  -0.750   9.069  0.00  0.00    +0.292 HD
ENDBRANCH  35  39
ENDBRANCH  22  31
ENDBRANCH   1  21
TORSDOF 10
