REMARK  Name = ZINC59040347
REMARK  8 active torsions:
REMARK  status: ('A' for Active; 'I' for Inactive)
REMARK    1  A    between atoms: C_2  and  C_3
REMARK    2  A    between atoms: C_3  and  S_4
REMARK    3  A    between atoms: S_4  and  C_5
REMARK    4  A    between atoms: C_10  and  N_14
REMARK    5  A    between atoms: C_15  and  C_17
REMARK    6  A    between atoms: C_17  and  S_18
REMARK    7  A    between atoms: S_18  and  C_19
REMARK    8  A    between atoms: N_24  and  N_25
REMARK                            x       y       z     vdW  Elec       q    Type
REMARK                         _______ _______ _______ _____ _____    ______ ____
ROOT
ATOM      1  N   UNL     1       8.633  -5.335   0.804  0.00  0.00    -0.285 N 
ATOM      2  C   UNL     1       9.511  -5.407  -0.216  0.00  0.00    +0.227 C 
ATOM      3  O   UNL     1       9.325  -4.758  -1.223  0.00  0.00    -0.275 OA
ATOM      4  H   UNL     1       8.816  -5.801   1.635  0.00  0.00    +0.155 HD
ENDROOT
BRANCH   1  10
ATOM      5  C   UNL     1       4.112  -1.183  -0.536  0.00  0.00    +0.136 A 
ATOM      6  N   UNL     1       4.021  -2.279   0.183  0.00  0.00    -0.233 NA
ATOM      7  C   UNL     1       5.078  -3.095   0.398  0.00  0.00    +0.080 A 
ATOM      8  C   UNL     1       5.115  -4.293   1.148  0.00  0.00    +0.031 A 
ATOM      9  C   UNL     1       6.276  -5.009   1.270  0.00  0.00    +0.025 A 
ATOM     10  C   UNL     1       7.457  -4.587   0.665  0.00  0.00    +0.035 A 
ATOM     11  C   UNL     1       7.454  -3.413  -0.078  0.00  0.00    +0.040 A 
ATOM     12  C   UNL     1       6.293  -2.694  -0.203  0.00  0.00    +0.042 A 
ATOM     13  S   UNL     1       5.829  -1.192  -1.030  0.00  0.00    -0.061 S 
BRANCH   5  14
ATOM     14  S   UNL     1       2.856  -0.009  -0.923  0.00  0.00    -0.095 S 
BRANCH  14  15
ATOM     15  C   UNL     1       1.381  -0.650  -0.084  0.00  0.00    +0.103 C 
BRANCH  15  17
ATOM     16  C   UNL     1      -0.815  -0.147  -1.024  0.00  0.00    +0.005 C 
ATOM     17  C   UNL     1       0.218   0.273  -0.337  0.00  0.00    -0.023 C 
ENDBRANCH  15  17
ENDBRANCH  14  15
ENDBRANCH   5  14
ENDBRANCH   1  10
BRANCH   2  18
ATOM     18  C   UNL     1      10.723  -6.296  -0.105  0.00  0.00    +0.173 C 
BRANCH  18  19
ATOM     19  S   UNL     1      11.701  -6.176  -1.628  0.00  0.00    -0.075 S 
BRANCH  19  20
ATOM     20  C   UNL     1      13.064  -7.256  -1.345  0.00  0.00    +0.211 A 
ATOM     21  N   UNL     1      14.063  -7.488  -2.204  0.00  0.00    -0.186 NA
ATOM     22  C   UNL     1      14.912  -8.345  -1.675  0.00  0.00    +0.232 A 
ATOM     23  N   UNL     1      14.457  -8.678  -0.449  0.00  0.00    -0.245 N 
ATOM     24  N   UNL     1      13.267  -7.959  -0.257  0.00  0.00    -0.144 NA
ATOM     25  N   UNL     1      16.065  -8.821  -2.272  0.00  0.00    -0.205 N 
ATOM     26  H   UNL     1      16.630  -9.454  -1.802  0.00  0.00    +0.177 HD
ATOM     27  H   UNL     1      14.873  -9.291   0.178  0.00  0.00    +0.192 HD
BRANCH  25  28
ATOM     28  N   UNL     1      16.419  -8.389  -3.558  0.00  0.00    -0.189 NA
ATOM     29  C   UNL     1      17.431  -8.901  -4.149  0.00  0.00    +0.037 C 
ATOM     30  C   UNL     1      18.322  -9.897  -3.440  0.00  0.00    +0.052 C 
ATOM     31  C   UNL     1      18.475 -11.134  -4.332  0.00  0.00    +0.006 C 
ATOM     32  C   UNL     1      18.980 -10.707  -5.711  0.00  0.00    +0.001 C 
ATOM     33  C   UNL     1      17.942  -9.812  -6.389  0.00  0.00    +0.006 C 
ATOM     34  C   UNL     1      17.765  -8.530  -5.577  0.00  0.00    +0.052 C 
ENDBRANCH  25  28
ENDBRANCH  19  20
ENDBRANCH  18  19
ENDBRANCH   2  18
TORSDOF 8
