REMARK  Name = ZINC63271673
REMARK  10 active torsions:
REMARK  status: ('A' for Active; 'I' for Inactive)
REMARK    1  A    between atoms: C_1  and  C_2
REMARK    2  A    between atoms: C_2  and  C_4
REMARK    3  A    between atoms: C_2  and  N_10
REMARK    4  A    between atoms: C_4  and  C_5
REMARK    5  A    between atoms: C_5  and  C_6
REMARK    6  A    between atoms: C_6  and  C_7
REMARK    7  A    between atoms: C_7  and  C_8
REMARK    8  A    between atoms: C_7  and  C_9
REMARK    9  A    between atoms: C_11  and  C_13
REMARK   10  A    between atoms: C_13  and  N_14
REMARK                            x       y       z     vdW  Elec       q    Type
REMARK                         _______ _______ _______ _____ _____    ______ ____
ROOT
ATOM      1  N   UNL     1       4.222  -1.132   2.125  0.00  0.00    -0.291 N 
ATOM      2  C   UNL     1       5.078  -1.542   3.081  0.00  0.00    +0.303 C 
ATOM      3  O   UNL     1       4.666  -1.802   4.195  0.00  0.00    -0.253 OA
ATOM      4  N   UNL     1       6.391  -1.665   2.803  0.00  0.00    -0.283 N 
ATOM      5  C   UNL     1       6.899  -1.234   1.496  0.00  0.00    +0.114 C 
ATOM      6  C   UNL     1       7.993  -0.170   1.697  0.00  0.00    +0.052 C 
ATOM      7  C   UNL     1       8.899  -0.682   2.789  0.00  0.00    -0.036 C 
ATOM      8  C   UNL     1      10.217  -0.832   2.839  0.00  0.00    -0.001 A 
ATOM      9  C   UNL     1      11.282  -0.455   1.895  0.00  0.00    +0.010 A 
ATOM     10  C   UNL     1      12.550  -0.783   2.260  0.00  0.00    +0.001 A 
ATOM     11  C   UNL     1      12.861  -1.440   3.455  0.00  0.00    +0.002 A 
ATOM     12  C   UNL     1      11.946  -1.816   4.384  0.00  0.00    +0.026 A 
ATOM     13  C   UNL     1      10.578  -1.518   4.117  0.00  0.00    +0.043 A 
ATOM     14  N   UNL     1       9.514  -1.739   4.831  0.00  0.00    -0.376 N 
ATOM     15  C   UNL     1       8.362  -1.170   4.130  0.00  0.00    +0.124 C 
ATOM     16  C   UNL     1       7.301  -2.223   3.816  0.00  0.00    +0.138 C 
ATOM     17  H   UNL     1       4.559  -0.856   1.258  0.00  0.00    +0.151 HD
ATOM     18  H   UNL     1       9.488  -2.202   5.683  0.00  0.00    +0.160 HD
ENDROOT
BRANCH   1  19
ATOM     19  C   UNL     1       2.782  -1.104   2.394  0.00  0.00    +0.201 C 
BRANCH  19  21
ATOM     20  N   UNL     1       0.709  -0.502   1.186  0.00  0.00    -0.311 N 
ATOM     21  C   UNL     1       2.052  -0.611   1.171  0.00  0.00    +0.230 C 
ATOM     22  O   UNL     1       2.674  -0.313   0.173  0.00  0.00    -0.274 OA
ATOM     23  H   UNL     1       0.212  -0.741   1.984  0.00  0.00    +0.149 HD
BRANCH  20  25
ATOM     24  C   UNL     1      -0.023   1.507  -0.001  0.00  0.00    +0.028 C 
ATOM     25  C   UNL     1      -0.001  -0.022  -0.003  0.00  0.00    +0.070 C 
BRANCH  25  26
ATOM     26  C   UNL     1      -1.435  -0.553   0.011  0.00  0.00    +0.022 C 
BRANCH  26  27
ATOM     27  C   UNL     1      -1.417  -2.078  -0.116  0.00  0.00    +0.002 C 
BRANCH  27  28
ATOM     28  C   UNL     1      -2.852  -2.609  -0.102  0.00  0.00    +0.003 C 
BRANCH  28  29
ATOM     29  C   UNL     1      -2.833  -4.133  -0.229  0.00  0.00    -0.017 C 
ATOM     30  C   UNL     1      -2.165  -4.740   1.006  0.00  0.00    +0.007 C 
ATOM     31  C   UNL     1      -4.267  -4.654  -0.341  0.00  0.00    +0.007 C 
ENDBRANCH  28  29
ENDBRANCH  27  28
ENDBRANCH  26  27
ENDBRANCH  25  26
ENDBRANCH  20  25
ENDBRANCH  19  21
ENDBRANCH   1  19
TORSDOF 7
