REMARK  Name = ZINC12204533
REMARK  5 active torsions:
REMARK  status: ('A' for Active; 'I' for Inactive)
REMARK    1  A    between atoms: C_12  and  C_14
REMARK    2  A    between atoms: C_14  and  C_15
REMARK    3  A    between atoms: C_15  and  C_16
REMARK    4  A    between atoms: C_23  and  C_25
REMARK    5  A    between atoms: C_25  and  C_26
REMARK                            x       y       z     vdW  Elec       q    Type
REMARK                         _______ _______ _______ _____ _____    ______ ____
ROOT
ATOM      1  C   UNL     1      -2.973  -3.667  -5.548  0.00  0.00    +0.096 C 
ENDROOT
BRANCH   1  13
ATOM      2  C   UNL     1       2.277  -5.591 -11.544  0.00  0.00    +0.005 A 
ATOM      3  C   UNL     1       1.819  -6.739 -12.177  0.00  0.00    +0.018 A 
ATOM      4  C   UNL     1       0.492  -7.097 -12.049  0.00  0.00    +0.084 A 
ATOM      5  C   UNL     1       0.057  -5.263 -10.718  0.00  0.00    +0.099 A 
ATOM      6  C   UNL     1       1.380  -4.843 -10.803  0.00  0.00    +0.042 A 
ATOM      7  N   UNL     1      -0.856  -4.521  -9.977  0.00  0.00    -0.314 N 
ATOM      8  C   UNL     1      -2.189  -5.134 -10.016  0.00  0.00    +0.125 C 
ATOM      9  C   UNL     1      -3.199  -4.198  -9.345  0.00  0.00    +0.126 C 
ATOM     10  N   UNL     1      -2.707  -3.867  -7.999  0.00  0.00    -0.298 N 
ATOM     11  C   UNL     1      -1.329  -3.369  -7.865  0.00  0.00    +0.126 C 
ATOM     12  C   UNL     1      -0.391  -4.344  -8.595  0.00  0.00    +0.125 C 
ATOM     13  C   UNL     1      -3.498  -4.011  -6.918  0.00  0.00    +0.216 C 
ATOM     14  O   UNL     1      -4.633  -4.419  -7.047  0.00  0.00    -0.276 OA
ATOM     15  N   UNL     1      -0.416  -6.390 -11.325  0.00  0.00    -0.350 N 
ATOM     16  H   UNL     1      -1.396  -6.685 -11.240  0.00  0.00    +0.166 HD
ENDBRANCH   1  13
BRANCH   1  17
ATOM     17  C   UNL     1      -4.063  -3.919  -4.505  0.00  0.00    +0.014 C 
BRANCH  17  18
ATOM     18  C   UNL     1      -3.530  -3.569  -3.115  0.00  0.00    +0.007 C 
ATOM     19  C   UNL     1      -4.577  -3.934  -2.059  0.00  0.00    +0.006 C 
ATOM     20  C   UNL     1      -4.031  -3.614  -0.665  0.00  0.00    +0.019 C 
ATOM     21  C   UNL     1      -3.744  -2.118  -0.564  0.00  0.00    +0.108 C 
ATOM     22  N   UNL     1      -2.853  -1.726  -1.665  0.00  0.00    -0.301 N 
ATOM     23  C   UNL     1      -3.240  -2.066  -3.042  0.00  0.00    +0.111 C 
ATOM     24  C   UNL     1      -1.702  -1.071  -1.418  0.00  0.00    +0.220 C 
ATOM     25  O   UNL     1      -0.973  -0.757  -2.335  0.00  0.00    -0.275 OA
BRANCH  24  26
ATOM     26  C   UNL     1      -1.319  -0.729  -0.001  0.00  0.00    +0.126 C 
BRANCH  26  27
ATOM     27  C   UNL     1       0.002  -0.004   0.002  0.00  0.00    -0.065 C 
ATOM     28  C   UNL     1      -0.015   1.290   0.009  0.00  0.00    -0.027 C 
ATOM     29  C   UNL     1       1.216   2.148   0.002  0.00  0.00    +0.027 C 
ATOM     30  C   UNL     1       2.437   1.320   0.409  0.00  0.00    +0.004 C 
ATOM     31  C   UNL     1       2.450   0.033  -0.424  0.00  0.00    +0.005 C 
ATOM     32  C   UNL     1       1.256  -0.828  -0.004  0.00  0.00    +0.031 C 
ENDBRANCH  26  27
ENDBRANCH  24  26
ENDBRANCH  17  18
ENDBRANCH   1  17
TORSDOF 5
