REMARK  Name = ZINC67299152
REMARK  6 active torsions:
REMARK  status: ('A' for Active; 'I' for Inactive)
REMARK    1  A    between atoms: C_1  and  C_2
REMARK    2  A    between atoms: C_6  and  N_8
REMARK    3  A    between atoms: C_10  and  C_20
REMARK    4  A    between atoms: C_15  and  O_19
REMARK    5  A    between atoms: N_22  and  C_23
REMARK    6  A    between atoms: C_23  and  C_24
REMARK                            x       y       z     vdW  Elec       q    Type
REMARK                         _______ _______ _______ _____ _____    ______ ____
ROOT
ATOM      1  N   UNL     1       0.049  -2.784   2.368  0.00  0.00    -0.325 N 
ATOM      2  C   UNL     1      -0.742  -3.824   2.526  0.00  0.00    +0.212 A 
ATOM      3  C   UNL     1      -0.673  -4.658   3.742  0.00  0.00    +0.097 A 
ATOM      4  C   UNL     1      -1.816  -5.357   4.103  0.00  0.00    +0.030 A 
ATOM      5  C   UNL     1      -2.957  -5.250   3.267  0.00  0.00    +0.018 A 
ATOM      6  C   UNL     1      -4.193  -5.768   3.685  0.00  0.00    +0.015 A 
ATOM      7  C   UNL     1      -5.293  -5.624   2.892  0.00  0.00    +0.046 A 
ATOM      8  C   UNL     1      -5.199  -4.971   1.664  0.00  0.00    +0.120 A 
ATOM      9  C   UNL     1      -3.982  -4.469   1.226  0.00  0.00    +0.092 A 
ATOM     10  C   UNL     1      -2.853  -4.615   2.015  0.00  0.00    +0.141 A 
ATOM     11  O   UNL     1      -1.654  -4.164   1.579  0.00  0.00    -0.438 OA
ATOM     12  H   UNL     1       0.632  -2.504   3.090  0.00  0.00    +0.169 HD
ENDROOT
BRANCH   1  18
ATOM     13  C   UNL     1      -0.001   1.489  -0.019  0.00  0.00    +0.044 C 
ATOM     14  C   UNL     1       0.024  -0.017  -0.015  0.00  0.00    -0.049 A 
ATOM     15  C   UNL     1       0.045  -0.711  -1.212  0.00  0.00    +0.003 A 
ATOM     16  C   UNL     1       0.068  -2.094  -1.218  0.00  0.00    +0.002 A 
ATOM     17  C   UNL     1       0.069  -2.792  -0.028  0.00  0.00    +0.026 A 
ATOM     18  C   UNL     1       0.048  -2.099   1.184  0.00  0.00    +0.042 A 
ATOM     19  C   UNL     1       0.030  -0.702   1.182  0.00  0.00    +0.029 A 
ENDBRANCH   1  18
BRANCH   3  20
ATOM     20  C   UNL     1       0.560  -4.745   4.541  0.00  0.00    +0.250 C 
ATOM     21  O   UNL     1       1.521  -4.055   4.254  0.00  0.00    -0.270 OA
ATOM     22  N   UNL     1       0.626  -5.588   5.590  0.00  0.00    -0.304 N 
ATOM     23  H   UNL     1      -0.111  -6.191   5.774  0.00  0.00    +0.149 HD
BRANCH  22  24
ATOM     24  C   UNL     1       1.810  -5.594   6.452  0.00  0.00    +0.179 C 
BRANCH  24  25
ATOM     25  C   UNL     1       1.633  -6.619   7.543  0.00  0.00    +0.122 A 
ATOM     26  C   UNL     1       2.005  -7.910   7.476  0.00  0.00    +0.046 A 
ATOM     27  C   UNL     1       1.652  -8.502   8.711  0.00  0.00    +0.041 A 
ATOM     28  C   UNL     1       1.085  -7.537   9.458  0.00  0.00    +0.195 A 
ATOM     29  O   UNL     1       1.081  -6.397   8.747  0.00  0.00    -0.466 OA
ENDBRANCH  24  25
ENDBRANCH  22  24
ENDBRANCH   3  20
BRANCH   8  30
ATOM     30  O   UNL     1      -6.305  -4.825   0.892  0.00  0.00    -0.507 OA
ATOM     31  H   UNL     1      -6.801  -4.013   1.064  0.00  0.00    +0.292 HD
ENDBRANCH   8  30
TORSDOF 5
