REMARK  Name = ZINC10497907
REMARK  10 active torsions:
REMARK  status: ('A' for Active; 'I' for Inactive)
REMARK    1  A    between atoms: C_1  and  C_2
REMARK    2  A    between atoms: C_2  and  O_3
REMARK    3  A    between atoms: O_3  and  C_4
REMARK    4  A    between atoms: C_4  and  C_6
REMARK    5  A    between atoms: C_7  and  C_21
REMARK    6  A    between atoms: C_12  and  C_14
REMARK    7  A    between atoms: C_21  and  S_22
REMARK    8  A    between atoms: S_22  and  C_23
REMARK    9  A    between atoms: N_27  and  C_28
REMARK   10  A    between atoms: C_33  and  C_34
REMARK                            x       y       z     vdW  Elec       q    Type
REMARK                         _______ _______ _______ _____ _____    ______ ____
ROOT
ATOM      1  C   UNL     1      -1.198   1.724   0.835  0.00  0.00    +0.079 C 
ATOM      2  C   UNL     1      -2.308   2.490   0.905  0.00  0.00    +0.034 C 
ATOM      3  N   UNL     1      -2.977   2.868  -0.224  0.00  0.00    -0.272 N 
ATOM      4  C   UNL     1      -2.600   2.520  -1.461  0.00  0.00    +0.304 C 
ATOM      5  O   UNL     1      -3.260   2.905  -2.407  0.00  0.00    -0.252 OA
ATOM      6  N   UNL     1      -1.514   1.758  -1.692  0.00  0.00    -0.288 N 
ATOM      7  C   UNL     1      -0.722   1.298  -0.539  0.00  0.00    +0.144 C 
ATOM      8  H   UNL     1      -3.769   3.419  -0.124  0.00  0.00    +0.156 HD
ATOM      9  H   UNL     1      -1.260   1.518  -2.597  0.00  0.00    +0.151 HD
ENDROOT
BRANCH   7  10
ATOM     10  C   UNL     1       0.689   1.796  -0.717  0.00  0.00    -0.022 A 
ATOM     11  C   UNL     1       0.916   3.092  -1.141  0.00  0.00    +0.007 A 
ATOM     12  C   UNL     1       2.210   3.551  -1.299  0.00  0.00    +0.020 A 
ATOM     13  C   UNL     1       3.278   2.711  -1.042  0.00  0.00    +0.041 A 
ATOM     14  C   UNL     1       3.051   1.412  -0.623  0.00  0.00    +0.020 A 
ATOM     15  C   UNL     1       1.756   0.956  -0.460  0.00  0.00    +0.007 A 
ATOM     16 CL   UNL     1       4.904   3.285  -1.247  0.00  0.00    -0.084 Cl
ENDBRANCH   7  10
BRANCH   1  17
ATOM     17  C   UNL     1      -0.505   1.332   2.003  0.00  0.00    +0.339 C 
ATOM     18  O   UNL     1      -0.658   0.213   2.457  0.00  0.00    -0.245 OA
BRANCH  17  19
ATOM     19  O   UNL     1       0.328   2.200   2.616  0.00  0.00    -0.462 OA
BRANCH  19  21
ATOM     20  C   UNL     1       1.889   2.851   4.342  0.00  0.00    +0.048 C 
ATOM     21  C   UNL     1       0.996   1.738   3.792  0.00  0.00    +0.229 C 
ENDBRANCH  19  21
ENDBRANCH  17  19
ENDBRANCH   1  17
BRANCH   2  22
ATOM     22  C   UNL     1      -2.817   2.936   2.252  0.00  0.00    +0.128 C 
BRANCH  22  23
ATOM     23  S   UNL     1      -2.416   4.683   2.500  0.00  0.00    -0.078 S 
BRANCH  23  24
ATOM     24  C   UNL     1      -3.105   4.931   4.103  0.00  0.00    +0.214 A 
ATOM     25  N   UNL     1      -3.728   4.031   4.834  0.00  0.00    -0.101 NA
ATOM     26  N   UNL     1      -4.102   4.540   5.952  0.00  0.00    -0.022 NA
ATOM     27  N   UNL     1      -3.763   5.782   6.016  0.00  0.00    -0.038 NA
ATOM     28  N   UNL     1      -3.100   6.086   4.814  0.00  0.00    -0.187 N 
BRANCH  28  29
ATOM     29  C   UNL     1      -2.551   7.319   4.432  0.00  0.00    +0.073 A 
ATOM     30  C   UNL     1      -1.264   7.377   3.914  0.00  0.00    +0.028 A 
ATOM     31  C   UNL     1      -0.726   8.592   3.539  0.00  0.00    +0.002 A 
ATOM     32  C   UNL     1      -1.468   9.751   3.678  0.00  0.00    +0.000 A 
ATOM     33  C   UNL     1      -2.750   9.696   4.193  0.00  0.00    +0.005 A 
ATOM     34  C   UNL     1      -3.296   8.483   4.565  0.00  0.00    -0.025 A 
ATOM     35  C   UNL     1      -4.695   8.424   5.120  0.00  0.00    +0.046 C 
ENDBRANCH  28  29
ENDBRANCH  23  24
ENDBRANCH  22  23
ENDBRANCH   2  22
TORSDOF 8
