REMARK  Name = ZINC21806473
REMARK  5 active torsions:
REMARK  status: ('A' for Active; 'I' for Inactive)
REMARK    1  A    between atoms: C_3  and  S_10
REMARK    2  A    between atoms: C_6  and  C_7
REMARK    3  A    between atoms: C_7  and  N_9
REMARK    4  A    between atoms: S_10  and  N_13
REMARK    5  A    between atoms: N_13  and  C_14
REMARK                            x       y       z     vdW  Elec       q    Type
REMARK                         _______ _______ _______ _____ _____    ______ ____
ROOT
ATOM      1  S   UNL     1       3.932  -0.830  -0.040  0.00  0.00    +0.059 S 
ATOM      2  O   UNL     1       4.902   0.053   0.507  0.00  0.00    -0.153 OA
ATOM      3  O   UNL     1       3.680  -2.118   0.506  0.00  0.00    -0.153 OA
ENDROOT
BRANCH   1   6
ATOM      4  C   UNL     1       1.187   2.100   0.002  0.00  0.00    +0.012 A 
ATOM      5  C   UNL     1       2.385   1.418  -0.013  0.00  0.00    +0.029 A 
ATOM      6  C   UNL     1       2.396   0.034  -0.020  0.00  0.00    +0.105 A 
ATOM      7  C   UNL     1       1.208  -0.674  -0.013  0.00  0.00    +0.029 A 
ATOM      8  C   UNL     1       0.002  -0.004   0.002  0.00  0.00    +0.012 A 
ATOM      9  C   UNL     1      -0.017   1.392   0.010  0.00  0.00    +0.003 A 
BRANCH   9  10
ATOM     10  C   UNL     1      -1.303   2.116   0.020  0.00  0.00    +0.077 C 
ATOM     11  S   UNL     1      -2.641   1.473   0.873  0.00  0.00    -0.035 S 
BRANCH  10  12
ATOM     12  N   UNL     1      -1.425   3.284  -0.643  0.00  0.00    -0.352 N 
ATOM     13  H   UNL     1      -2.383   3.823  -0.635  0.00  0.00    +0.143 HD
ATOM     14  H   UNL     1      -0.565   3.697  -1.191  0.00  0.00    +0.143 HD
ENDBRANCH  10  12
ENDBRANCH   9  10
ENDBRANCH   1   6
BRANCH   1  15
ATOM     15  N   UNL     1       4.344  -1.061  -1.627  0.00  0.00    -0.188 NA
ATOM     16  H   UNL     1       4.231  -2.061  -2.071  0.00  0.00    +0.148 HD
BRANCH  15  17
ATOM     17  C   UNL     1       4.642   0.091  -2.481  0.00  0.00    +0.063 C 
ATOM     18  C   UNL     1       6.154   0.334  -2.506  0.00  0.00    -0.058 C 
ATOM     19  N   UNL     1       6.644   0.216  -3.886  0.00  0.00    +0.381 N 
ATOM     20  C   UNL     1       6.415  -1.136  -4.414  0.00  0.00    -0.078 C 
ATOM     21  C   UNL     1       4.911  -1.421  -4.443  0.00  0.00    -0.014 C 
ATOM     22  C   UNL     1       4.163  -0.192  -3.911  0.00  0.00    +0.002 C 
ATOM     23  C   UNL     1       4.514   1.014  -4.792  0.00  0.00    -0.014 C 
ATOM     24  C   UNL     1       6.029   1.231  -4.753  0.00  0.00    -0.078 C 
ATOM     25  H   UNL     1       7.729   0.395  -3.873  0.00  0.00    -0.082 HD
ENDBRANCH  15  17
ENDBRANCH   1  15
TORSDOF 5
