REMARK  Name = ZINC49147403
REMARK  7 active torsions:
REMARK  status: ('A' for Active; 'I' for Inactive)
REMARK    1  A    between atoms: C_1  and  C_2
REMARK    2  A    between atoms: C_2  and  C_4
REMARK    3  A    between atoms: C_2  and  N_10
REMARK    4  A    between atoms: N_10  and  S_11
REMARK    5  A    between atoms: S_11  and  C_14
REMARK    6  A    between atoms: C_19  and  N_20
REMARK    7  A    between atoms: N_20  and  N_21
REMARK                            x       y       z     vdW  Elec       q    Type
REMARK                         _______ _______ _______ _____ _____    ______ ____
ROOT
ATOM      1  S   UNL     1      -1.948  -0.958   1.347  0.00  0.00    +0.062 S 
ATOM      2  O   UNL     1      -3.198  -1.597   1.125  0.00  0.00    -0.153 OA
ATOM      3  O   UNL     1      -0.829  -1.641   1.894  0.00  0.00    -0.153 OA
ENDROOT
BRANCH   1   4
ATOM      4  C   UNL     1      -2.267   0.415   2.405  0.00  0.00    +0.147 A 
ATOM      5  C   UNL     1      -1.505   0.615   3.543  0.00  0.00    +0.048 A 
ATOM      6  C   UNL     1      -1.791   1.710   4.348  0.00  0.00    +0.038 A 
ATOM      7  C   UNL     1      -2.819   2.561   3.992  0.00  0.00    +0.128 A 
ATOM      8  N   UNL     1      -3.529   2.345   2.901  0.00  0.00    -0.236 NA
ATOM      9  C   UNL     1      -3.283   1.315   2.105  0.00  0.00    +0.159 A 
ATOM     10 BR   UNL     1      -0.783   2.032   5.915  0.00  0.00    -0.049 Br
BRANCH   9  11
ATOM     11  N   UNL     1      -4.052   1.130   0.961  0.00  0.00    -0.266 N 
ATOM     12  H   UNL     1      -3.862   0.390   0.364  0.00  0.00    +0.167 HD
BRANCH  11  13
ATOM     13  N   UNL     1      -5.076   1.990   0.680  0.00  0.00    -0.255 NA
ATOM     14  H   UNL     1      -4.746   2.942   0.638  0.00  0.00    +0.140 HD
ATOM     15  H   UNL     1      -5.540   1.730  -0.177  0.00  0.00    +0.140 HD
ENDBRANCH  11  13
ENDBRANCH   9  11
ENDBRANCH   1   4
BRANCH   1  16
ATOM     16  N   UNL     1      -1.463  -0.348  -0.114  0.00  0.00    -0.182 NA
ATOM     17  H   UNL     1      -2.003  -0.497  -0.905  0.00  0.00    +0.149 HD
BRANCH  16  19
ATOM     18  C   UNL     1      -0.509   1.792  -0.818  0.00  0.00    +0.031 C 
ATOM     19  C   UNL     1      -0.217   0.418  -0.210  0.00  0.00    +0.110 C 
BRANCH  19  20
ATOM     20  C   UNL     1       0.760  -0.322  -1.087  0.00  0.00    +0.009 A 
ATOM     21  C   UNL     1       2.096  -0.482  -0.928  0.00  0.00    +0.014 A 
ATOM     22  C   UNL     1       2.801  -1.209  -1.870  0.00  0.00    +0.028 A 
ATOM     23  C   UNL     1       2.133  -1.740  -2.925  0.00  0.00    +0.078 A 
ATOM     24  S   UNL     1       0.456  -1.220  -2.600  0.00  0.00    -0.080 S 
ATOM     25 CL   UNL     1       2.748  -2.686  -4.244  0.00  0.00    -0.076 Cl
ENDBRANCH  19  20
ENDBRANCH  16  19
ENDBRANCH   1  16
TORSDOF 6
