REMARK  Name = ZINC08338532
REMARK  9 active torsions:
REMARK  status: ('A' for Active; 'I' for Inactive)
REMARK    1  A    between atoms: C_1  and  C_2
REMARK    2  A    between atoms: C_2  and  C_3
REMARK    3  A    between atoms: C_6  and  C_9
REMARK    4  A    between atoms: C_16  and  S_27
REMARK    5  A    between atoms: S_27  and  C_28
REMARK    6  A    between atoms: C_28  and  C_29
REMARK    7  A    between atoms: C_29  and  C_30
REMARK    8  A    between atoms: C_30  and  C_31
REMARK    9  A    between atoms: C_30  and  C_32
REMARK                            x       y       z     vdW  Elec       q    Type
REMARK                         _______ _______ _______ _____ _____    ______ ____
ROOT
ATOM      1  C   UNL     1      -5.419  -2.005   0.043  0.00  0.00    +0.092 C 
ATOM      2  C   UNL     1      -5.455  -3.335  -0.648  0.00  0.00    +0.069 A 
ATOM      3  C   UNL     1      -4.997  -4.485   0.006  0.00  0.00    +0.258 A 
ATOM      4  O   UNL     1      -4.564  -4.421   1.146  0.00  0.00    -0.267 OA
ATOM      5  N   UNL     1      -5.041  -5.665  -0.647  0.00  0.00    -0.302 N 
ATOM      6  H   UNL     1      -4.728  -6.473  -0.210  0.00  0.00    +0.171 HD
ATOM      7  C   UNL     1      -5.524  -5.724  -1.920  0.00  0.00    +0.171 A 
ATOM      8  N   UNL     1      -5.958  -4.645  -2.539  0.00  0.00    -0.208 NA
ATOM      9  C   UNL     1      -5.940  -3.450  -1.939  0.00  0.00    +0.135 A 
ATOM     10  N   UNL     1      -6.405  -2.329  -2.598  0.00  0.00    -0.302 N 
ATOM     11  C   UNL     1      -6.761  -1.208  -1.899  0.00  0.00    +0.017 C 
ATOM     12  C   UNL     1      -6.319  -1.007  -0.641  0.00  0.00    +0.024 C 
ATOM     13  C   UNL     1      -6.683   0.147   0.076  0.00  0.00    +0.162 C 
ATOM     14  O   UNL     1      -6.283   0.292   1.215  0.00  0.00    -0.292 OA
ATOM     15  C   UNL     1      -7.556   1.206  -0.538  0.00  0.00    +0.080 C 
ATOM     16  C   UNL     1      -7.356   1.196  -2.057  0.00  0.00    +0.014 C 
ATOM     17  C   UNL     1      -7.666  -0.207  -2.574  0.00  0.00    +0.051 C 
ATOM     18  H   UNL     1      -6.479  -2.336  -3.565  0.00  0.00    +0.153 HD
ENDROOT
BRANCH   1  22
ATOM     19  C   UNL     1      -1.412  -0.526   0.013  0.00  0.00    -0.048 A 
ATOM     20  C   UNL     1      -2.051  -0.766   1.215  0.00  0.00    +0.004 A 
ATOM     21  C   UNL     1      -3.348  -1.244   1.225  0.00  0.00    +0.005 A 
ATOM     22  C   UNL     1      -4.006  -1.482   0.032  0.00  0.00    -0.035 A 
ATOM     23  C   UNL     1      -3.367  -1.241  -1.170  0.00  0.00    +0.005 A 
ATOM     24  C   UNL     1      -2.072  -0.758  -1.179  0.00  0.00    +0.004 A 
BRANCH  19  26
ATOM     25  C   UNL     1      -0.019   1.526   0.010  0.00  0.00    +0.009 C 
ATOM     26  C   UNL     1       0.002  -0.004   0.002  0.00  0.00    +0.032 C 
ENDBRANCH  19  26
ENDBRANCH   1  22
BRANCH   7  27
ATOM     27  S   UNL     1      -5.568  -7.275  -2.755  0.00  0.00    -0.088 S 
BRANCH  27  28
ATOM     28  C   UNL     1      -6.270  -6.879  -4.380  0.00  0.00    +0.077 C 
BRANCH  28  29
ATOM     29  C   UNL     1      -6.365  -8.155  -5.219  0.00  0.00    +0.014 C 
BRANCH  29  30
ATOM     30  C   UNL     1      -6.957  -7.820  -6.590  0.00  0.00    -0.016 C 
ATOM     31  C   UNL     1      -5.995  -6.906  -7.351  0.00  0.00    +0.007 C 
ATOM     32  C   UNL     1      -7.169  -9.112  -7.383  0.00  0.00    +0.007 C 
ENDBRANCH  29  30
ENDBRANCH  28  29
ENDBRANCH  27  28
ENDBRANCH   7  27
TORSDOF 6
