REMARK  Name = ZINC01932945
REMARK  3 active torsions:
REMARK  status: ('A' for Active; 'I' for Inactive)
REMARK    1  A    between atoms: N_8  and  C_9
REMARK    2  A    between atoms: C_13  and  N_15
REMARK    3  A    between atoms: C_19  and  C_21
REMARK                            x       y       z     vdW  Elec       q    Type
REMARK                         _______ _______ _______ _____ _____    ______ ____
ROOT
ATOM      1  C   UNL     1       1.269  10.764   0.020  0.00  0.00    +0.001 A 
ATOM      2  C   UNL     1       2.436  10.016   0.010  0.00  0.00    +0.004 A 
ATOM      3  C   UNL     1       2.387   8.637   0.015  0.00  0.00    +0.047 A 
ATOM      4  C   UNL     1       1.160   7.987   0.031  0.00  0.00    +0.138 A 
ATOM      5  C   UNL     1      -0.020   8.746   0.041  0.00  0.00    +0.041 A 
ATOM      6  C   UNL     1       0.041  10.137   0.036  0.00  0.00    +0.013 A 
ATOM      7  C   UNL     1      -1.316   8.033   0.059  0.00  0.00    +0.054 A 
ATOM      8  N   UNL     1      -2.464   8.691   0.070  0.00  0.00    -0.354 N 
ATOM      9  C   UNL     1      -1.278   6.612   0.064  0.00  0.00    +0.073 A 
ATOM     10  C   UNL     1      -0.080   5.977   0.053  0.00  0.00    +0.138 A 
ATOM     11  O   UNL     1       1.091   6.638   0.043  0.00  0.00    -0.455 OA
ATOM     12  H   UNL     1      -2.469   9.788   0.155  0.00  0.00    +0.166 HD
ENDROOT
BRANCH  10  13
ATOM     13  C   UNL     1      -0.060   4.501   0.059  0.00  0.00    +0.017 A 
ATOM     14  C   UNL     1       1.157   3.816   0.049  0.00  0.00    +0.013 A 
ATOM     15  C   UNL     1       1.169   2.437   0.054  0.00  0.00    +0.021 A 
ATOM     16  C   UNL     1      -0.023   1.731   0.070  0.00  0.00    +0.041 A 
ATOM     17  C   UNL     1      -1.233   2.405   0.076  0.00  0.00    +0.021 A 
ATOM     18  C   UNL     1      -1.258   3.783   0.076  0.00  0.00    +0.013 A 
ATOM     19 CL   UNL     1       0.001  -0.005   0.077  0.00  0.00    -0.084 Cl
ENDBRANCH  10  13
BRANCH   8  20
ATOM     20  C   UNL     1      -3.642   8.010  -0.025  0.00  0.00    +0.042 A 
ATOM     21  C   UNL     1      -4.343   7.652   1.131  0.00  0.00    +0.026 A 
ATOM     22  C   UNL     1      -5.533   6.964   1.027  0.00  0.00    +0.004 A 
ATOM     23  C   UNL     1      -6.035   6.627  -0.218  0.00  0.00    +0.033 A 
ATOM     24  C   UNL     1      -5.347   6.977  -1.367  0.00  0.00    +0.128 A 
ATOM     25  C   UNL     1      -4.158   7.670  -1.280  0.00  0.00    +0.058 A 
BRANCH  24  26
ATOM     26  N   UNL     1      -5.893   6.611  -2.695  0.00  0.00    +0.056 N 
ATOM     27  O   UNL     1      -6.946   6.003  -2.774  0.00  0.00    -0.126 OA
ATOM     28  O   UNL     1      -5.289   6.918  -3.707  0.00  0.00    -0.126 OA
ENDBRANCH  24  26
ENDBRANCH   8  20
TORSDOF 3
