REMARK  Name = ZINC02152856
REMARK  7 active torsions:
REMARK  status: ('A' for Active; 'I' for Inactive)
REMARK    1  A    between atoms: C_1  and  N_2
REMARK    2  A    between atoms: C_3  and  C_9
REMARK    3  A    between atoms: C_6  and  S_7
REMARK    4  A    between atoms: S_7  and  C_8
REMARK    5  A    between atoms: C_12  and  S_14
REMARK    6  A    between atoms: S_14  and  O_17
REMARK    7  A    between atoms: O_17  and  C_18
REMARK                            x       y       z     vdW  Elec       q    Type
REMARK                         _______ _______ _______ _____ _____    ______ ____
ROOT
ATOM      1  C   UNL     1       5.153  -1.695  -3.269  0.00  0.00    +0.058 A 
ATOM      2  C   UNL     1       5.102  -2.892  -2.601  0.00  0.00    +0.021 A 
ATOM      3  C   UNL     1       3.923  -3.260  -1.994  0.00  0.00    +0.039 A 
ATOM      4  C   UNL     1       2.847  -2.436  -2.082  0.00  0.00    +0.166 A 
ATOM      5  S   UNL     1       3.493  -1.077  -3.041  0.00  0.00    -0.063 S 
ENDROOT
BRANCH   1   8
ATOM      6  C   UNL     1       5.012   0.697  -5.296  0.00  0.00    +0.153 C 
ATOM      7  N   UNL     1       6.212  -0.030  -4.875  0.00  0.00    -0.305 N 
ATOM      8  C   UNL     1       6.281  -1.080  -3.987  0.00  0.00    +0.171 A 
ATOM      9  N   UNL     1       7.547  -1.425  -3.897  0.00  0.00    -0.128 NA
ATOM     10  N   UNL     1       8.260  -0.680  -4.663  0.00  0.00    -0.122 NA
ATOM     11  C   UNL     1       7.499   0.192  -5.283  0.00  0.00    +0.191 A 
BRANCH  11  12
ATOM     12  S   UNL     1       8.035   1.422  -6.426  0.00  0.00    -0.089 S 
ATOM     13  C   UNL     1       9.813   1.085  -6.437  0.00  0.00    +0.093 C 
ENDBRANCH  11  12
ENDBRANCH   1   8
BRANCH   4  14
ATOM     14  S   UNL     1       1.230  -2.650  -1.415  0.00  0.00    +0.157 S 
ATOM     15  O   UNL     1       1.043  -4.049  -1.245  0.00  0.00    -0.131 OA
ATOM     16  O   UNL     1       0.356  -1.855  -2.205  0.00  0.00    -0.131 OA
BRANCH  14  17
ATOM     17  O   UNL     1       1.234  -2.039  -0.021  0.00  0.00    -0.342 OA
BRANCH  17  18
ATOM     18  C   UNL     1       1.213  -0.680  -0.013  0.00  0.00    +0.157 A 
ATOM     19  C   UNL     1       0.002  -0.004   0.002  0.00  0.00    +0.050 A 
ATOM     20  C   UNL     1      -0.017   1.377   0.010  0.00  0.00    +0.023 A 
ATOM     21  C   UNL     1       1.172   2.086   0.002  0.00  0.00    +0.041 A 
ATOM     22  C   UNL     1       2.381   1.413  -0.013  0.00  0.00    +0.023 A 
ATOM     23  C   UNL     1       2.403   0.032  -0.021  0.00  0.00    +0.050 A 
ATOM     24 CL   UNL     1       1.145   3.822   0.011  0.00  0.00    -0.084 Cl
ENDBRANCH  17  18
ENDBRANCH  14  17
ENDBRANCH   4  14
TORSDOF 5
