REMARK  Name = ZINC12567650
REMARK  5 active torsions:
REMARK  status: ('A' for Active; 'I' for Inactive)
REMARK    1  A    between atoms: C_4  and  C_7
REMARK    2  A    between atoms: C_7  and  C_28
REMARK    3  A    between atoms: N_10  and  N_14
REMARK    4  A    between atoms: C_15  and  C_17
REMARK    5  A    between atoms: C_20  and  C_23
REMARK                            x       y       z     vdW  Elec       q    Type
REMARK                         _______ _______ _______ _____ _____    ______ ____
ROOT
ATOM      1  C   UNL     1       0.640   3.376   0.014  0.00  0.00    +0.165 C 
ATOM      2  C   UNL     1      -0.558   3.923   0.765  0.00  0.00    +0.272 C 
ATOM      3  O   UNL     1      -0.646   4.996   1.321  0.00  0.00    -0.270 OA
ATOM      4  N   UNL     1      -1.507   2.970   0.680  0.00  0.00    -0.136 N 
ATOM      5  C   UNL     1      -1.077   1.904  -0.005  0.00  0.00    +0.327 C 
ATOM      6  O   UNL     1      -1.753   0.915  -0.211  0.00  0.00    -0.251 OA
ATOM      7  N   UNL     1       0.186   2.051  -0.445  0.00  0.00    -0.276 N 
ATOM      8  H   UNL     1       0.698   1.411  -0.963  0.00  0.00    +0.152 HD
ENDROOT
BRANCH   1  12
ATOM      9  C   UNL     1       4.000   2.991   2.623  0.00  0.00    +0.000 A 
ATOM     10  C   UNL     1       3.288   4.175   2.584  0.00  0.00    +0.000 A 
ATOM     11  C   UNL     1       2.200   4.300   1.739  0.00  0.00    +0.006 A 
ATOM     12  C   UNL     1       1.826   3.240   0.934  0.00  0.00    -0.011 A 
ATOM     13  C   UNL     1       2.535   2.054   0.978  0.00  0.00    +0.006 A 
ATOM     14  C   UNL     1       3.625   1.931   1.819  0.00  0.00    +0.000 A 
ENDBRANCH   1  12
BRANCH   1  15
ATOM     15  C   UNL     1       0.981   4.256  -1.161  0.00  0.00    -0.011 A 
ATOM     16  C   UNL     1       1.165   5.614  -0.977  0.00  0.00    +0.006 A 
ATOM     17  C   UNL     1       1.482   6.420  -2.053  0.00  0.00    +0.000 A 
ATOM     18  C   UNL     1       1.606   5.871  -3.316  0.00  0.00    +0.000 A 
ATOM     19  C   UNL     1       1.416   4.514  -3.501  0.00  0.00    +0.000 A 
ATOM     20  C   UNL     1       1.103   3.707  -2.423  0.00  0.00    +0.006 A 
ENDBRANCH   1  15
BRANCH   4  21
ATOM     21  N   UNL     1      -2.786   3.080   1.242  0.00  0.00    -0.220 N 
ATOM     22  C   UNL     1      -3.089   2.398   2.364  0.00  0.00    +0.261 C 
ATOM     23  O   UNL     1      -2.254   1.687   2.888  0.00  0.00    -0.269 OA
ATOM     24  H   UNL     1      -3.452   3.647   0.824  0.00  0.00    +0.174 HD
BRANCH  22  25
ATOM     25  C   UNL     1      -4.438   2.514   2.957  0.00  0.00    +0.038 A 
ATOM     26  C   UNL     1      -5.396   3.336   2.358  0.00  0.00    +0.014 A 
ATOM     27  C   UNL     1      -6.653   3.440   2.907  0.00  0.00    +0.014 A 
ATOM     28  C   UNL     1      -6.968   2.733   4.070  0.00  0.00    +0.039 A 
ATOM     29  C   UNL     1      -6.008   1.916   4.673  0.00  0.00    +0.014 A 
ATOM     30  C   UNL     1      -4.752   1.808   4.120  0.00  0.00    +0.014 A 
BRANCH  28  31
ATOM     31  C   UNL     1      -8.317   2.849   4.663  0.00  0.00    +0.248 A 
ATOM     32  N   UNL     1      -8.747   2.240   5.743  0.00  0.00    -0.108 NA
ATOM     33  N   UNL     1      -9.969   2.580   5.963  0.00  0.00    -0.116 NA
ATOM     34  C   UNL     1     -10.365   3.405   5.033  0.00  0.00    +0.332 A 
ATOM     35  O   UNL     1      -9.336   3.595   4.192  0.00  0.00    -0.423 OA
ENDBRANCH  28  31
ENDBRANCH  22  25
ENDBRANCH   4  21
TORSDOF 5
