REMARK  Name = ZINC63349681
REMARK  10 active torsions:
REMARK  status: ('A' for Active; 'I' for Inactive)
REMARK    1  A    between atoms: C_1  and  C_2
REMARK    2  A    between atoms: C_2  and  O_3
REMARK    3  A    between atoms: O_3  and  C_4
REMARK    4  A    between atoms: C_4  and  C_6
REMARK    5  A    between atoms: C_11  and  O_12
REMARK    6  A    between atoms: O_12  and  C_13
REMARK    7  A    between atoms: C_13  and  C_14
REMARK    8  A    between atoms: C_16  and  C_22
REMARK    9  A    between atoms: C_19  and  O_20
REMARK   10  A    between atoms: O_20  and  C_21
REMARK                            x       y       z     vdW  Elec       q    Type
REMARK                         _______ _______ _______ _____ _____    ______ ____
ROOT
ATOM      1  C   UNL     1       0.569  -6.755  -0.884  0.00  0.00    +0.032 A 
ATOM      2  C   UNL     1      -0.035  -6.086   0.163  0.00  0.00    +0.015 A 
ATOM      3  C   UNL     1      -0.609  -6.797   1.200  0.00  0.00    -0.028 A 
ATOM      4  C   UNL     1      -0.580  -8.180   1.192  0.00  0.00    +0.009 A 
ATOM      5  C   UNL     1       0.023  -8.853   0.148  0.00  0.00    +0.046 A 
ATOM      6  C   UNL     1       0.595  -8.142  -0.897  0.00  0.00    +0.126 A 
ENDROOT
BRANCH   3   7
ATOM      7  C   UNL     1      -1.267  -6.065   2.341  0.00  0.00    +0.111 C 
ATOM      8  C   UNL     1      -0.675  -6.541   3.669  0.00  0.00    +0.128 C 
ATOM      9  C   UNL     1      -1.089  -8.000   3.822  0.00  0.00    -0.035 C 
ATOM     10  C   UNL     1       0.027  -8.688   4.025  0.00  0.00    -0.001 A 
ATOM     11  C   UNL     1       0.263 -10.109   4.324  0.00  0.00    +0.010 A 
ATOM     12  C   UNL     1       1.562 -10.485   4.461  0.00  0.00    +0.001 A 
ATOM     13  C   UNL     1       2.637  -9.600   4.332  0.00  0.00    +0.002 A 
ATOM     14  C   UNL     1       2.512  -8.276   4.065  0.00  0.00    +0.026 A 
ATOM     15  C   UNL     1       1.193  -7.760   3.905  0.00  0.00    +0.043 A 
ATOM     16  N   UNL     1       0.787  -6.527   3.671  0.00  0.00    -0.376 N 
ATOM     17  C   UNL     1      -2.522  -8.439   3.646  0.00  0.00    +0.048 C 
ATOM     18  C   UNL     1      -3.014  -7.787   2.341  0.00  0.00    +0.086 C 
ATOM     19  N   UNL     1      -2.710  -6.352   2.348  0.00  0.00    -0.307 NA
ATOM     20  H   UNL     1      -3.167  -5.889   3.119  0.00  0.00    +0.123 HD
ATOM     21  H   UNL     1       1.347  -5.749   3.521  0.00  0.00    +0.160 HD
ENDBRANCH   3   7
BRANCH   6  22
ATOM     22  O   UNL     1       1.184  -8.802  -1.928  0.00  0.00    -0.495 OA
ATOM     23  C   UNL     1       1.173 -10.230  -1.875  0.00  0.00    +0.277 C 
ENDBRANCH   6  22
BRANCH   1  24
ATOM     24  C   UNL     1       1.195  -5.979  -2.014  0.00  0.00    +0.268 C 
BRANCH  24  25
ATOM     25  O   UNL     1       1.040  -4.579  -1.773  0.00  0.00    -0.486 OA
BRANCH  25  31
ATOM     26  C   UNL     1       1.437  -2.347  -2.533  0.00  0.00    +0.101 A 
ATOM     27  C   UNL     1       1.974  -1.486  -3.495  0.00  0.00    +0.018 A 
ATOM     28  C   UNL     1       2.605  -2.005  -4.604  0.00  0.00    +0.001 A 
ATOM     29  C   UNL     1       2.711  -3.376  -4.772  0.00  0.00    +0.004 A 
ATOM     30  C   UNL     1       2.185  -4.238  -3.829  0.00  0.00    +0.046 A 
ATOM     31  C   UNL     1       1.552  -3.733  -2.703  0.00  0.00    +0.135 A 
BRANCH  26  32
ATOM     32  C   UNL     1       0.760  -1.799  -1.343  0.00  0.00    +0.343 C 
ATOM     33  O   UNL     1       0.300  -2.550  -0.507  0.00  0.00    -0.245 OA
BRANCH  32  34
ATOM     34  O   UNL     1       0.653  -0.465  -1.184  0.00  0.00    -0.461 OA
BRANCH  34  36
ATOM     35  C   UNL     1      -0.040   1.526  -0.002  0.00  0.00    +0.048 C 
ATOM     36  C   UNL     1      -0.016  -0.004  -0.008  0.00  0.00    +0.229 C 
ENDBRANCH  34  36
ENDBRANCH  32  34
ENDBRANCH  26  32
ENDBRANCH  25  31
ENDBRANCH  24  25
ENDBRANCH   1  24
TORSDOF 8
