REMARK  Name = ZINC08860927
REMARK  6 active torsions:
REMARK  status: ('A' for Active; 'I' for Inactive)
REMARK    1  A    between atoms: C_4  and  C_7
REMARK    2  A    between atoms: C_13  and  C_15
REMARK    3  A    between atoms: N_17  and  N_18
REMARK    4  A    between atoms: N_18  and  C_19
REMARK    5  A    between atoms: C_22  and  C_27
REMARK    6  A    between atoms: C_27  and  C_28
REMARK                            x       y       z     vdW  Elec       q    Type
REMARK                         _______ _______ _______ _____ _____    ______ ____
ROOT
ATOM      1  N   UNL     1       0.762  -3.063  -3.020  0.00  0.00    -0.271 N 
ATOM      2  H   UNL     1       0.024  -2.551  -2.652  0.00  0.00    +0.169 HD
ENDROOT
BRANCH   1   3
ATOM      3  C   UNL     1       0.528  -4.008  -3.943  0.00  0.00    +0.099 C 
ATOM      4  C   UNL     1      -0.767  -4.205  -4.428  0.00  0.00    +0.037 C 
ATOM      5  C   UNL     1      -1.011  -5.104  -5.489  0.00  0.00    +0.017 C 
ATOM      6  C   UNL     1      -2.278  -5.283  -5.947  0.00  0.00    -0.042 C 
ATOM      7  C   UNL     1      -3.355  -4.598  -5.392  0.00  0.00    +0.008 C 
ATOM      8  C   UNL     1      -3.189  -3.719  -4.367  0.00  0.00    +0.052 C 
ATOM      9  C   UNL     1      -1.906  -3.488  -3.840  0.00  0.00    +0.187 C 
ATOM     10  O   UNL     1      -1.741  -2.705  -2.916  0.00  0.00    -0.287 OA
BRANCH   6  11
ATOM     11  C   UNL     1      -2.522  -6.245  -7.081  0.00  0.00    +0.071 C 
BRANCH  11  12
ATOM     12  C   UNL     1      -2.912  -7.590  -6.524  0.00  0.00    -0.025 A 
ATOM     13  C   UNL     1      -1.950  -8.565  -6.334  0.00  0.00    +0.005 A 
ATOM     14  C   UNL     1      -2.308  -9.798  -5.823  0.00  0.00    +0.000 A 
ATOM     15  C   UNL     1      -3.627 -10.058  -5.502  0.00  0.00    +0.001 A 
ATOM     16  C   UNL     1      -4.590  -9.084  -5.691  0.00  0.00    +0.020 A 
ATOM     17  C   UNL     1      -4.231  -7.847  -6.197  0.00  0.00    +0.044 A 
ATOM     18 CL   UNL     1      -5.439  -6.621  -6.429  0.00  0.00    -0.083 Cl
ENDBRANCH  11  12
ENDBRANCH   6  11
ENDBRANCH   1   3
BRANCH   1  21
ATOM     19  C   UNL     1       2.306  -1.865  -1.659  0.00  0.00    +0.242 C 
ATOM     20  O   UNL     1       1.383  -1.226  -1.199  0.00  0.00    -0.273 OA
ATOM     21  N   UNL     1       2.071  -2.815  -2.587  0.00  0.00    -0.236 N 
ATOM     22  H   UNL     1       2.808  -3.326  -2.954  0.00  0.00    +0.173 HD
BRANCH  19  28
ATOM     23  C   UNL     1       4.388  -0.534  -2.090  0.00  0.00    +0.057 C 
ATOM     24  C   UNL     1       4.104   0.765  -1.305  0.00  0.00    +0.113 C 
ATOM     25  N   UNL     1       3.932   0.350   0.092  0.00  0.00    -0.314 N 
ATOM     26  C   UNL     1       3.706  -0.972   0.184  0.00  0.00    +0.226 C 
ATOM     27  O   UNL     1       3.522  -1.575   1.220  0.00  0.00    -0.275 OA
ATOM     28  C   UNL     1       3.714  -1.599  -1.193  0.00  0.00    +0.171 C 
ATOM     29  H   UNL     1       3.976   0.952   0.852  0.00  0.00    +0.149 HD
BRANCH  23  33
ATOM     30  C   UNL     1       2.571  -0.414  -5.954  0.00  0.00    +0.000 A 
ATOM     31  C   UNL     1       1.906   0.108  -4.861  0.00  0.00    +0.000 A 
ATOM     32  C   UNL     1       2.494   0.069  -3.610  0.00  0.00    +0.004 A 
ATOM     33  C   UNL     1       3.747  -0.493  -3.453  0.00  0.00    -0.042 A 
ATOM     34  C   UNL     1       4.412  -1.016  -4.546  0.00  0.00    +0.004 A 
ATOM     35  C   UNL     1       3.825  -0.976  -5.797  0.00  0.00    +0.000 A 
ENDBRANCH  23  33
ENDBRANCH  19  28
ENDBRANCH   1  21
TORSDOF 6
