REMARK  Name = ZINC29910061
REMARK  8 active torsions:
REMARK  status: ('A' for Active; 'I' for Inactive)
REMARK    1  A    between atoms: C_1  and  C_2
REMARK    2  A    between atoms: C_2  and  C_3
REMARK    3  A    between atoms: C_3  and  C_5
REMARK    4  A    between atoms: C_3  and  N_25
REMARK    5  A    between atoms: C_5  and  N_6
REMARK    6  A    between atoms: C_7  and  C_9
REMARK    7  A    between atoms: C_9  and  N_10
REMARK    8  A    between atoms: C_17  and  C_20
REMARK                            x       y       z     vdW  Elec       q    Type
REMARK                         _______ _______ _______ _____ _____    ______ ____
ROOT
ATOM      1  N   UNL     1      -5.541  -1.391   1.647  0.00  0.00    -0.315 N 
ATOM      2  C   UNL     1      -4.367  -0.834   1.290  0.00  0.00    +0.233 C 
ATOM      3  O   UNL     1      -3.547  -0.552   2.138  0.00  0.00    -0.274 OA
ATOM      4  H   UNL     1      -6.285  -1.647   0.877  0.00  0.00    +0.149 HD
ENDROOT
BRANCH   1   5
ATOM      5  C   UNL     1      -5.827  -1.657   3.059  0.00  0.00    +0.089 C 
BRANCH   5   6
ATOM      6  C   UNL     1      -7.215  -2.287   3.188  0.00  0.00    -0.051 C 
BRANCH   6   7
ATOM      7  N   UNL     1      -7.290  -3.484   2.341  0.00  0.00    +0.385 N 
ATOM      8  C   UNL     1      -8.668  -3.997   2.275  0.00  0.00    -0.073 C 
ATOM      9  C   UNL     1      -8.761  -4.992   1.117  0.00  0.00    +0.017 C 
ATOM     10  C   UNL     1      -7.647  -6.003   1.216  0.00  0.00    -0.048 A 
ATOM     11  C   UNL     1      -7.754  -7.178   0.488  0.00  0.00    +0.004 A 
ATOM     12  C   UNL     1      -6.755  -8.129   0.548  0.00  0.00    +0.000 A 
ATOM     13  C   UNL     1      -5.642  -7.908   1.337  0.00  0.00    +0.000 A 
ATOM     14  C   UNL     1      -5.535  -6.739   2.064  0.00  0.00    +0.002 A 
ATOM     15  C   UNL     1      -6.539  -5.784   2.006  0.00  0.00    -0.061 A 
ATOM     16  C   UNL     1      -6.382  -4.528   2.824  0.00  0.00    -0.042 C 
ATOM     17  H   UNL     1      -6.975  -3.195   1.327  0.00  0.00    -0.081 HD
ENDBRANCH   6   7
BRANCH   6  19
ATOM     18  C   UNL     1      -7.536  -1.415   5.508  0.00  0.00    +0.002 C 
ATOM     19  C   UNL     1      -7.463  -2.678   4.647  0.00  0.00    -0.017 C 
ENDBRANCH   6  19
ENDBRANCH   5   6
ENDBRANCH   1   5
BRANCH   2  20
ATOM     20  C   UNL     1      -4.073  -0.561  -0.163  0.00  0.00    +0.221 C 
BRANCH  20  21
ATOM     21  N   UNL     1      -2.744   0.042  -0.287  0.00  0.00    -0.290 N 
ATOM     22  C   UNL     1      -2.619   1.394  -0.238  0.00  0.00    +0.203 A 
ATOM     23  N   UNL     1      -1.450   1.968  -0.340  0.00  0.00    -0.230 NA
ATOM     24  C   UNL     1      -0.344   1.246  -0.505  0.00  0.00    +0.116 A 
ATOM     25  C   UNL     1      -0.375  -0.156  -0.568  0.00  0.00    +0.080 A 
ATOM     26  C   UNL     1      -1.670  -0.753  -0.448  0.00  0.00    +0.263 A 
ATOM     27  O   UNL     1      -1.799  -1.965  -0.490  0.00  0.00    -0.267 OA
ATOM     28  C   UNL     1       0.923  -0.796  -0.746  0.00  0.00    +0.010 A 
ATOM     29  C   UNL     1       2.028  -0.014  -0.835  0.00  0.00    +0.057 A 
ATOM     30  S   UNL     1       1.377   1.638  -0.683  0.00  0.00    -0.076 S 
BRANCH  28  31
ATOM     31  C   UNL     1       1.033  -2.268  -0.829  0.00  0.00    +0.021 A 
ATOM     32  C   UNL     1       1.678  -3.034  -1.763  0.00  0.00    +0.016 A 
ATOM     33  C   UNL     1       1.646  -4.406  -1.630  0.00  0.00    +0.008 A 
ATOM     34  C   UNL     1       0.972  -4.954  -0.588  0.00  0.00    +0.046 A 
ATOM     35  S   UNL     1       0.354  -3.509   0.260  0.00  0.00    -0.097 S 
ENDBRANCH  28  31
ENDBRANCH  20  21
ENDBRANCH   2  20
TORSDOF 7
