REMARK  Name = ZINC40744836
REMARK  10 active torsions:
REMARK  status: ('A' for Active; 'I' for Inactive)
REMARK    1  A    between atoms: C_1  and  N_2
REMARK    2  A    between atoms: C_3  and  S_7
REMARK    3  A    between atoms: S_7  and  C_8
REMARK    4  A    between atoms: C_8  and  C_9
REMARK    5  A    between atoms: C_9  and  N_10
REMARK    6  A    between atoms: N_10  and  C_11
REMARK    7  A    between atoms: C_11  and  C_12
REMARK    8  A    between atoms: C_17  and  O_18
REMARK    9  A    between atoms: O_18  and  C_19
REMARK   10  A    between atoms: C_19  and  C_20
REMARK                            x       y       z     vdW  Elec       q    Type
REMARK                         _______ _______ _______ _____ _____    ______ ____
ROOT
ATOM      1  C   UNL     1       0.018  -3.876  -8.141  0.00  0.00    -0.021 A 
ATOM      2  C   UNL     1       1.202  -4.353  -8.671  0.00  0.00    +0.025 A 
ATOM      3  C   UNL     1       1.216  -5.545  -9.373  0.00  0.00    +0.041 A 
ATOM      4  C   UNL     1       0.045  -6.262  -9.546  0.00  0.00    +0.023 A 
ATOM      5  C   UNL     1      -1.140  -5.789  -9.017  0.00  0.00    +0.047 A 
ATOM      6  C   UNL     1      -1.155  -4.596  -8.308  0.00  0.00    +0.122 A 
ATOM      7 CL   UNL     1       2.704  -6.142 -10.039  0.00  0.00    -0.084 Cl
ENDROOT
BRANCH   1   8
ATOM      8  C   UNL     1       0.004  -2.578  -7.377  0.00  0.00    -0.043 C 
BRANCH   8   9
ATOM      9  N   UNL     1       0.014  -2.858  -5.935  0.00  0.00    +0.382 N 
ATOM     10  H   UNL     1       0.847  -3.377  -5.699  0.00  0.00    -0.085 HD
ATOM     11  H   UNL     1      -0.801  -3.400  -5.692  0.00  0.00    -0.085 HD
BRANCH   9  12
ATOM     12  C   UNL     1       0.000  -1.592  -5.190  0.00  0.00    -0.071 C 
BRANCH  12  13
ATOM     13  C   UNL     1       0.011  -1.884  -3.688  0.00  0.00    +0.058 C 
BRANCH  13  14
ATOM     14  S   UNL     1      -0.006  -0.321  -2.768  0.00  0.00    -0.086 S 
BRANCH  14  17
ATOM     15  C   UNL     1      -0.018   1.461   0.010  0.00  0.00    +0.177 C 
ATOM     16  N   UNL     1       0.002  -0.004   0.002  0.00  0.00    -0.223 N 
ATOM     17  C   UNL     1       0.008  -0.820  -1.078  0.00  0.00    +0.209 A 
ATOM     18  N   UNL     1       0.027  -2.056  -0.629  0.00  0.00    -0.102 NA
ATOM     19  N   UNL     1       0.033  -2.068   0.655  0.00  0.00    -0.022 NA
ATOM     20  N   UNL     1       0.025  -0.864   1.114  0.00  0.00    -0.043 NA
ENDBRANCH  14  17
ENDBRANCH  13  14
ENDBRANCH  12  13
ENDBRANCH   9  12
ENDBRANCH   8   9
ENDBRANCH   1   8
BRANCH   6  21
ATOM     21  O   UNL     1      -2.319  -4.132  -7.782  0.00  0.00    -0.487 OA
BRANCH  21  22
ATOM     22  C   UNL     1      -3.489  -4.926  -7.993  0.00  0.00    +0.266 C 
BRANCH  22  23
ATOM     23  C   UNL     1      -4.673  -4.258  -7.343  0.00  0.00    +0.008 A 
ATOM     24  C   UNL     1      -4.510  -3.055  -6.680  0.00  0.00    +0.011 A 
ATOM     25  C   UNL     1      -5.595  -2.442  -6.084  0.00  0.00    +0.039 A 
ATOM     26  C   UNL     1      -6.847  -3.031  -6.150  0.00  0.00    +0.125 A 
ATOM     27  C   UNL     1      -7.010  -4.235  -6.814  0.00  0.00    +0.058 A 
ATOM     28  C   UNL     1      -5.924  -4.845  -7.415  0.00  0.00    +0.050 A 
ATOM     29 CL   UNL     1      -6.128  -6.351  -8.253  0.00  0.00    -0.083 Cl
ATOM     30  F   UNL     1      -7.908  -2.432  -5.566  0.00  0.00    -0.205 F 
ENDBRANCH  22  23
ENDBRANCH  21  22
ENDBRANCH   6  21
TORSDOF 9
