REMARK  Name = ZINC18243356
REMARK  13 active torsions:
REMARK  status: ('A' for Active; 'I' for Inactive)
REMARK    1  A    between atoms: C_1  and  C_2
REMARK    2  A    between atoms: C_2  and  C_3
REMARK    3  A    between atoms: C_2  and  C_4
REMARK    4  A    between atoms: C_4  and  C_6
REMARK    5  A    between atoms: C_4  and  N_25
REMARK    6  A    between atoms: C_6  and  O_8
REMARK    7  A    between atoms: O_8  and  C_9
REMARK    8  A    between atoms: C_9  and  C_10
REMARK    9  A    between atoms: N_12  and  C_13
REMARK   10  A    between atoms: C_14  and  C_21
REMARK   11  A    between atoms: C_21  and  O_23
REMARK   12  A    between atoms: O_23  and  C_24
REMARK   13  A    between atoms: C_26  and  C_28
REMARK                            x       y       z     vdW  Elec       q    Type
REMARK                         _______ _______ _______ _____ _____    ______ ____
ROOT
ATOM      1  O   UNL     1      -3.280  -5.100   0.709  0.00  0.00    -0.454 OA
ENDROOT
BRANCH   1   2
ATOM      2  C   UNL     1      -2.264  -4.230   0.601  0.00  0.00    +0.328 C 
ATOM      3  O   UNL     1      -1.159  -4.543   0.977  0.00  0.00    -0.249 OA
BRANCH   2   4
ATOM      4  C   UNL     1      -2.500  -2.864   0.010  0.00  0.00    +0.185 C 
BRANCH   4   5
ATOM      5  N   UNL     1      -1.244  -2.111   0.002  0.00  0.00    -0.298 N 
ATOM      6  C   UNL     1      -1.265  -0.764   0.010  0.00  0.00    +0.246 C 
ATOM      7  O   UNL     1      -2.328  -0.173   0.022  0.00  0.00    -0.270 OA
ATOM      8  H   UNL     1      -0.396  -2.583  -0.008  0.00  0.00    +0.150 HD
BRANCH   6   9
ATOM      9  C   UNL     1       0.002  -0.004   0.002  0.00  0.00    +0.055 A 
ATOM     10  C   UNL     1       1.224  -0.679  -0.013  0.00  0.00    +0.014 A 
ATOM     11  C   UNL     1       2.403   0.036  -0.021  0.00  0.00    +0.001 A 
ATOM     12  C   UNL     1       2.378   1.420  -0.013  0.00  0.00    +0.001 A 
ATOM     13  C   UNL     1       1.172   2.096   0.002  0.00  0.00    +0.021 A 
ATOM     14  C   UNL     1      -0.017   1.393   0.010  0.00  0.00    +0.053 A 
ATOM     15 CL   UNL     1      -1.530   2.243   0.021  0.00  0.00    -0.083 Cl
ENDBRANCH   6   9
ENDBRANCH   4   5
BRANCH   4  17
ATOM     16  C   UNL     1      -4.328  -3.797  -1.416  0.00  0.00    +0.009 C 
ATOM     17  C   UNL     1      -3.015  -3.011  -1.424  0.00  0.00    +0.014 C 
ATOM     18  C   UNL     1      -3.255  -1.624  -2.024  0.00  0.00    +0.009 C 
ENDBRANCH   4  17
ENDBRANCH   2   4
ENDBRANCH   1   2
BRANCH   1  19
ATOM     19  C   UNL     1      -2.979  -6.397   1.288  0.00  0.00    +0.328 C 
BRANCH  19  20
ATOM     20  C   UNL     1      -4.233  -7.232   1.328  0.00  0.00    +0.255 C 
ATOM     21  O   UNL     1      -5.277  -6.779   0.910  0.00  0.00    -0.272 OA
ATOM     22  N   UNL     1      -4.194  -8.483   1.828  0.00  0.00    -0.277 N 
ATOM     23  H   UNL     1      -3.359  -8.846   2.163  0.00  0.00    +0.155 HD
BRANCH  22  24
ATOM     24  C   UNL     1      -5.347  -9.251   1.865  0.00  0.00    +0.086 A 
ATOM     25  C   UNL     1      -5.504 -10.546   2.332  0.00  0.00    +0.091 A 
ATOM     26  C   UNL     1      -6.843 -11.133   2.261  0.00  0.00    -0.021 A 
ATOM     27  C   UNL     1      -7.788 -10.336   1.732  0.00  0.00    -0.004 A 
ATOM     28  S   UNL     1      -6.939  -8.828   1.333  0.00  0.00    -0.077 S 
ATOM     29  C   UNL     1      -9.134 -11.009   1.690  0.00  0.00    +0.043 C 
ATOM     30  C   UNL     1      -9.005 -12.197   2.668  0.00  0.00    +0.010 C 
ATOM     31  C   UNL     1      -7.488 -12.468   2.636  0.00  0.00    +0.037 C 
BRANCH  25  32
ATOM     32  C   UNL     1      -4.374 -11.298   2.880  0.00  0.00    +0.342 C 
ATOM     33  O   UNL     1      -4.122 -11.239   4.068  0.00  0.00    -0.245 OA
BRANCH  32  34
ATOM     34  O   UNL     1      -3.611 -12.057   2.067  0.00  0.00    -0.464 OA
ATOM     35  C   UNL     1      -2.507 -12.775   2.678  0.00  0.00    +0.280 C 
ENDBRANCH  32  34
ENDBRANCH  25  32
ENDBRANCH  22  24
ENDBRANCH  19  20
ENDBRANCH   1  19
TORSDOF 10
