REMARK  Name = ZINC62930867
REMARK  8 active torsions:
REMARK  status: ('A' for Active; 'I' for Inactive)
REMARK    1  A    between atoms: C_1  and  C_2
REMARK    2  A    between atoms: C_6  and  S_14
REMARK    3  A    between atoms: C_11  and  C_13
REMARK    4  A    between atoms: S_14  and  N_17
REMARK    5  A    between atoms: N_17  and  N_18
REMARK    6  A    between atoms: N_21  and  C_22
REMARK    7  A    between atoms: C_22  and  C_23
REMARK    8  A    between atoms: C_22  and  C_24
REMARK                            x       y       z     vdW  Elec       q    Type
REMARK                         _______ _______ _______ _____ _____    ______ ____
ROOT
ATOM      1  S   UNL     1      -3.543  -3.671   3.906  0.00  0.00    +0.074 S 
ATOM      2  O   UNL     1      -3.234  -3.745   5.291  0.00  0.00    -0.152 OA
ATOM      3  O   UNL     1      -4.764  -3.125   3.426  0.00  0.00    -0.152 OA
ENDROOT
BRANCH   1   9
ATOM      4  C   UNL     1      -0.019   1.526   0.010  0.00  0.00    +0.029 C 
ATOM      5  C   UNL     1       0.002  -0.004   0.002  0.00  0.00    +0.083 C 
ATOM      6  C   UNL     1      -1.430  -0.557   0.083  0.00  0.00    +0.059 C 
ATOM      7  C   UNL     1      -1.456  -1.361   1.363  0.00  0.00    -0.022 A 
ATOM      8  C   UNL     1      -2.472  -2.086   1.957  0.00  0.00    +0.034 A 
ATOM      9  C   UNL     1      -2.247  -2.747   3.150  0.00  0.00    +0.107 A 
ATOM     10  C   UNL     1      -1.002  -2.681   3.749  0.00  0.00    +0.030 A 
ATOM     11  C   UNL     1       0.014  -1.959   3.160  0.00  0.00    +0.026 A 
ATOM     12  C   UNL     1      -0.206  -1.288   1.955  0.00  0.00    +0.040 A 
ATOM     13  N   UNL     1       0.677  -0.510   1.200  0.00  0.00    -0.268 N 
ATOM     14  C   UNL     1       1.961  -0.262   1.527  0.00  0.00    +0.217 C 
ATOM     15  O   UNL     1       2.648   0.428   0.803  0.00  0.00    -0.276 OA
ATOM     16  C   UNL     1       2.543  -0.841   2.790  0.00  0.00    +0.109 C 
ENDBRANCH   1   9
BRANCH   1  17
ATOM     17  N   UNL     1      -3.451  -5.216   3.317  0.00  0.00    -0.107 NA
ATOM     18  H   UNL     1      -4.201  -5.596   2.835  0.00  0.00    +0.172 HD
BRANCH  17  19
ATOM     19  N   UNL     1      -2.289  -5.973   3.516  0.00  0.00    -0.216 N 
ATOM     20  C   UNL     1      -2.366  -7.184   4.103  0.00  0.00    +0.315 C 
ATOM     21  O   UNL     1      -1.357  -7.841   4.275  0.00  0.00    -0.251 OA
ATOM     22  N   UNL     1      -3.560  -7.666   4.499  0.00  0.00    -0.296 N 
ATOM     23  H   UNL     1      -1.429  -5.626   3.231  0.00  0.00    +0.172 HD
ATOM     24  H   UNL     1      -4.365  -7.142   4.361  0.00  0.00    +0.151 HD
BRANCH  22  25
ATOM     25  C   UNL     1      -3.644  -8.982   5.137  0.00  0.00    +0.068 C 
ATOM     26  C   UNL     1      -3.369  -8.841   6.635  0.00  0.00    +0.027 C 
ATOM     27  C   UNL     1      -5.044  -9.562   4.928  0.00  0.00    +0.027 C 
ENDBRANCH  22  25
ENDBRANCH  17  19
ENDBRANCH   1  17
TORSDOF 4
