REMARK  Name = ZINC11880883
REMARK  12 active torsions:
REMARK  status: ('A' for Active; 'I' for Inactive)
REMARK    1  A    between atoms: C_1  and  C_2
REMARK    2  A    between atoms: C_2  and  S_3
REMARK    3  A    between atoms: S_3  and  N_6
REMARK    4  A    between atoms: N_6  and  C_7
REMARK    5  A    between atoms: C_12  and  C_13
REMARK    6  A    between atoms: C_15  and  C_19
REMARK    7  A    between atoms: C_16  and  C_18
REMARK    8  A    between atoms: C_19  and  N_20
REMARK    9  A    between atoms: C_21  and  C_23
REMARK   10  A    between atoms: C_26  and  N_29
REMARK   11  A    between atoms: C_30  and  C_35
REMARK   12  A    between atoms: C_32  and  C_34
REMARK                            x       y       z     vdW  Elec       q    Type
REMARK                         _______ _______ _______ _____ _____    ______ ____
ROOT
ATOM      1  C   UNL     1      -2.118   2.333   2.380  0.00  0.00    +0.230 A 
ATOM      2  N   UNL     1      -0.916   2.379   2.907  0.00  0.00    -0.212 NA
ATOM      3  C   UNL     1      -0.044   1.851   2.034  0.00  0.00    +0.100 A 
ATOM      4  C   UNL     1      -0.732   1.471   0.943  0.00  0.00    +0.127 A 
ATOM      5  O   UNL     1      -2.027   1.778   1.158  0.00  0.00    -0.440 OA
ATOM      6  C   UNL     1      -0.161   0.829  -0.295  0.00  0.00    +0.088 C 
ENDROOT
BRANCH   1  12
ATOM      7  C   UNL     1      -4.585   2.708   2.346  0.00  0.00    +0.060 A 
ATOM      8  C   UNL     1      -5.745   3.164   2.956  0.00  0.00    +0.025 A 
ATOM      9  C   UNL     1      -5.690   3.720   4.220  0.00  0.00    +0.002 A 
ATOM     10  C   UNL     1      -4.481   3.826   4.886  0.00  0.00    +0.001 A 
ATOM     11  C   UNL     1      -3.319   3.373   4.297  0.00  0.00    +0.015 A 
ATOM     12  C   UNL     1      -3.359   2.814   3.018  0.00  0.00    +0.059 A 
BRANCH   7  13
ATOM     13  N   UNL     1      -4.638   2.147   1.073  0.00  0.00    -0.220 N 
ATOM     14  H   UNL     1      -4.051   1.410   0.842  0.00  0.00    +0.173 HD
BRANCH  13  15
ATOM     15  S   UNL     1      -5.705   2.737  -0.048  0.00  0.00    +0.043 S 
ATOM     16  O   UNL     1      -5.425   2.007  -1.235  0.00  0.00    -0.155 OA
ATOM     17  O   UNL     1      -6.978   2.643   0.577  0.00  0.00    -0.155 OA
BRANCH  15  19
ATOM     18  C   UNL     1      -6.170   5.131  -1.287  0.00  0.00    +0.030 C 
ATOM     19  C   UNL     1      -5.241   4.478  -0.262  0.00  0.00    +0.185 C 
ENDBRANCH  15  19
ENDBRANCH  13  15
ENDBRANCH   7  13
ENDBRANCH   1  12
BRANCH   3  20
ATOM     20  C   UNL     1       1.442   1.708   2.241  0.00  0.00    +0.163 C 
BRANCH  20  21
ATOM     21  N   UNL     1       2.120   2.909   1.750  0.00  0.00    -0.306 N 
ATOM     22  C   UNL     1       3.462   3.006   1.832  0.00  0.00    +0.244 C 
ATOM     23  O   UNL     1       4.109   2.097   2.313  0.00  0.00    -0.270 OA
ATOM     24  H   UNL     1       1.604   3.635   1.366  0.00  0.00    +0.149 HD
BRANCH  22  25
ATOM     25  C   UNL     1       4.146   4.218   1.337  0.00  0.00    +0.037 A 
ATOM     26  C   UNL     1       3.405   5.262   0.778  0.00  0.00    +0.015 A 
ATOM     27  C   UNL     1       4.046   6.393   0.323  0.00  0.00    +0.028 A 
ATOM     28  C   UNL     1       5.431   6.491   0.409  0.00  0.00    +0.066 A 
ATOM     29  C   UNL     1       6.172   5.451   0.959  0.00  0.00    +0.028 A 
ATOM     30  C   UNL     1       5.537   4.320   1.421  0.00  0.00    +0.015 A 
BRANCH  28  31
ATOM     31  N   UNL     1       6.079   7.638  -0.059  0.00  0.00    -0.237 N 
ATOM     32  C   UNL     1       5.714   8.380  -1.137  0.00  0.00    +0.042 A 
ATOM     33  C   UNL     1       6.594   9.402  -1.248  0.00  0.00    +0.047 A 
ATOM     34  C   UNL     1       7.530   9.279  -0.215  0.00  0.00    +0.061 A 
ATOM     35  N   UNL     1       7.223   8.225   0.496  0.00  0.00    -0.171 NA
ATOM     36  C   UNL     1       8.694  10.203   0.034  0.00  0.00    +0.067 C 
ATOM     37  C   UNL     1       4.539   8.115  -2.044  0.00  0.00    +0.066 C 
ENDBRANCH  28  31
ENDBRANCH  22  25
ENDBRANCH  20  21
ENDBRANCH   3  20
TORSDOF 8
