REMARK  Name = ZINC21243392
REMARK  7 active torsions:
REMARK  status: ('A' for Active; 'I' for Inactive)
REMARK    1  A    between atoms: C_1  and  C_2
REMARK    2  A    between atoms: C_2  and  O_4
REMARK    3  A    between atoms: O_4  and  C_5
REMARK    4  A    between atoms: C_8  and  C_13
REMARK    5  A    between atoms: C_10  and  O_11
REMARK    6  A    between atoms: O_11  and  C_12
REMARK    7  A    between atoms: C_18  and  C_23
REMARK                            x       y       z     vdW  Elec       q    Type
REMARK                         _______ _______ _______ _____ _____    ______ ____
ROOT
ATOM      1  C   UNL     1       2.018  -0.556  -1.340  0.00  0.00    +0.136 C 
ATOM      2  C   UNL     1       2.533   0.832  -1.642  0.00  0.00    +0.036 C 
ATOM      3  C   UNL     1       2.148   1.964  -1.032  0.00  0.00    +0.017 C 
ATOM      4  C   UNL     1       2.717   3.304  -1.474  0.00  0.00    +0.059 C 
ATOM      5  C   UNL     1       4.162   3.127  -1.935  0.00  0.00    +0.032 C 
ATOM      6  C   UNL     1       4.161   2.142  -3.110  0.00  0.00    +0.088 C 
ATOM      7  C   UNL     1       3.508   0.868  -2.666  0.00  0.00    +0.163 C 
ATOM      8  O   UNL     1       3.828  -0.173  -3.206  0.00  0.00    -0.292 OA
ATOM      9  N   UNL     1       1.247   2.042  -0.020  0.00  0.00    -0.316 N 
ATOM     10  C   UNL     1       0.010   1.405  -0.010  0.00  0.00    +0.052 A 
ATOM     11  C   UNL     1      -1.183   2.105   0.025  0.00  0.00    +0.025 A 
ATOM     12  C   UNL     1      -2.377   1.407   0.097  0.00  0.00    +0.002 A 
ATOM     13  C   UNL     1      -2.375   0.025   0.134  0.00  0.00    +0.002 A 
ATOM     14  C   UNL     1      -1.183  -0.676   0.081  0.00  0.00    +0.025 A 
ATOM     15  C   UNL     1       0.014   0.018  -0.009  0.00  0.00    +0.049 A 
ATOM     16  N   UNL     1       1.231  -0.649  -0.129  0.00  0.00    -0.331 N 
ATOM     17  H   UNL     1       1.474   2.642   0.874  0.00  0.00    +0.152 HD
ATOM     18  H   UNL     1       1.591  -1.253   0.717  0.00  0.00    +0.147 HD
ENDROOT
BRANCH   5  19
ATOM     19  C   UNL     1       4.722   4.453  -2.381  0.00  0.00    -0.043 A 
ATOM     20  C   UNL     1       4.130   5.137  -3.426  0.00  0.00    +0.007 A 
ATOM     21  C   UNL     1       4.639   6.356  -3.832  0.00  0.00    +0.038 A 
ATOM     22  C   UNL     1       5.749   6.887  -3.199  0.00  0.00    +0.123 A 
ATOM     23  C   UNL     1       6.346   6.199  -2.156  0.00  0.00    +0.038 A 
ATOM     24  C   UNL     1       5.832   4.982  -1.748  0.00  0.00    +0.007 A 
ATOM     25  F   UNL     1       6.251   8.076  -3.599  0.00  0.00    -0.205 F 
ENDBRANCH   5  19
BRANCH   1  29
ATOM     26  C   UNL     1      -0.394  -1.851  -4.626  0.00  0.00    +0.173 A 
ATOM     27  C   UNL     1      -0.794  -0.774  -3.851  0.00  0.00    +0.050 A 
ATOM     28  C   UNL     1      -0.012  -0.358  -2.790  0.00  0.00    +0.009 A 
ATOM     29  C   UNL     1       1.169  -1.014  -2.498  0.00  0.00    -0.019 A 
ATOM     30  C   UNL     1       1.577  -2.086  -3.270  0.00  0.00    +0.055 A 
ATOM     31  C   UNL     1       0.795  -2.512  -4.332  0.00  0.00    +0.163 A 
BRANCH  31  32
ATOM     32  O   UNL     1       1.192  -3.569  -5.090  0.00  0.00    -0.491 OA
ATOM     33  C   UNL     1       2.424  -4.199  -4.730  0.00  0.00    +0.277 C 
ENDBRANCH  31  32
BRANCH  26  34
ATOM     34  O   UNL     1      -1.161  -2.261  -5.671  0.00  0.00    -0.422 OA
BRANCH  34  36
ATOM     35  C   UNL     1      -2.821  -3.851  -6.573  0.00  0.00    +0.136 C 
ATOM     36  C   UNL     1      -2.021  -3.265  -5.438  0.00  0.00    +0.309 C 
ATOM     37  O   UNL     1      -2.155  -3.699  -4.318  0.00  0.00    -0.251 OA
ENDBRANCH  34  36
ENDBRANCH  26  34
ENDBRANCH   1  29
TORSDOF 5
