REMARK  Name = ZINC12252444
REMARK  5 active torsions:
REMARK  status: ('A' for Active; 'I' for Inactive)
REMARK    1  A    between atoms: C_3  and  C_6
REMARK    2  A    between atoms: C_9  and  S_12
REMARK    3  A    between atoms: N_10  and  N_11
REMARK    4  A    between atoms: S_12  and  C_13
REMARK    5  A    between atoms: C_22  and  C_24
REMARK                            x       y       z     vdW  Elec       q    Type
REMARK                         _______ _______ _______ _____ _____    ______ ____
ROOT
ATOM      1  C   UNL     1      -4.381  -3.523  -0.009  0.00  0.00    +0.141 C 
ATOM      2  C   UNL     1      -5.822  -3.642  -0.512  0.00  0.00    +0.024 C 
ATOM      3  C   UNL     1      -6.622  -2.402  -0.152  0.00  0.00    +0.003 C 
ATOM      4  C   UNL     1      -6.844  -2.227   1.339  0.00  0.00    +0.019 C 
ATOM      5  C   UNL     1      -5.523  -1.941   2.057  0.00  0.00    +0.117 C 
ATOM      6  N   UNL     1      -4.882  -3.223   2.392  0.00  0.00    -0.237 N 
ATOM      7  C   UNL     1      -4.338  -3.976   1.435  0.00  0.00    +0.235 C 
ATOM      8  O   UNL     1      -3.807  -5.027   1.723  0.00  0.00    -0.274 OA
ATOM      9  C   UNL     1      -4.843  -3.637   3.674  0.00  0.00    +0.253 C 
ATOM     10  O   UNL     1      -4.379  -4.727   3.946  0.00  0.00    -0.270 OA
ENDROOT
BRANCH   9  11
ATOM     11  C   UNL     1      -5.364  -2.767   4.747  0.00  0.00    +0.037 A 
ATOM     12  C   UNL     1      -6.639  -2.209   4.640  0.00  0.00    +0.014 A 
ATOM     13  C   UNL     1      -7.122  -1.401   5.648  0.00  0.00    +0.021 A 
ATOM     14  C   UNL     1      -6.340  -1.135   6.761  0.00  0.00    +0.041 A 
ATOM     15  C   UNL     1      -5.072  -1.681   6.870  0.00  0.00    +0.021 A 
ATOM     16  C   UNL     1      -4.580  -2.495   5.871  0.00  0.00    +0.014 A 
ATOM     17 CL   UNL     1      -6.952  -0.111   8.022  0.00  0.00    -0.084 Cl
ENDBRANCH   9  11
BRANCH   1  18
ATOM     18  S   UNL     1      -3.838  -1.800  -0.122  0.00  0.00    -0.072 S 
BRANCH  18  22
ATOM     19  C   UNL     1      -0.080  -1.577   0.928  0.00  0.00    +0.188 A 
ATOM     20  N   UNL     1      -0.341  -2.860   1.053  0.00  0.00    -0.126 NA
ATOM     21  N   UNL     1      -1.564  -3.091   0.736  0.00  0.00    -0.121 NA
ATOM     22  C   UNL     1      -2.161  -1.973   0.389  0.00  0.00    +0.209 A 
ATOM     23  N   UNL     1      -1.240  -0.969   0.504  0.00  0.00    -0.223 N 
BRANCH  19  26
ATOM     24  C   UNL     1       3.522  -0.644   1.600  0.00  0.00    +0.008 A 
ATOM     25  C   UNL     1       2.451  -1.474   1.352  0.00  0.00    +0.019 A 
ATOM     26  C   UNL     1       1.208  -0.915   1.196  0.00  0.00    +0.058 A 
ATOM     27  S   UNL     1       1.557   0.823   1.404  0.00  0.00    -0.093 S 
ATOM     28  C   UNL     1       3.316   0.696   1.682  0.00  0.00    +0.046 A 
ENDBRANCH  19  26
BRANCH  23  29
ATOM     29  N   UNL     1      -1.431   0.359   0.248  0.00  0.00    -0.295 N 
ATOM     30  H   UNL     1      -1.225   0.575  -0.716  0.00  0.00    +0.163 HD
ATOM     31  H   UNL     1      -2.369   0.643   0.490  0.00  0.00    +0.163 HD
ENDBRANCH  23  29
ENDBRANCH  18  22
ENDBRANCH   1  18
TORSDOF 5
