REMARK  Name = ZINC29686239
REMARK  8 active torsions:
REMARK  status: ('A' for Active; 'I' for Inactive)
REMARK    1  A    between atoms: C_1  and  C_2
REMARK    2  A    between atoms: C_2  and  C_4
REMARK    3  A    between atoms: C_2  and  N_11
REMARK    4  A    between atoms: N_14  and  C_17
REMARK    5  A    between atoms: C_17  and  C_19
REMARK    6  A    between atoms: C_17  and  C_20
REMARK    7  A    between atoms: N_22  and  C_23
REMARK    8  A    between atoms: C_28  and  N_29
REMARK                            x       y       z     vdW  Elec       q    Type
REMARK                         _______ _______ _______ _____ _____    ______ ____
ROOT
ATOM      1  N   UNL     1       3.032   2.432   0.996  0.00  0.00    -0.299 NA
ATOM      2  C   UNL     1       1.725   2.021   1.529  0.00  0.00    +0.066 C 
ATOM      3  C   UNL     1       0.684   2.063   0.408  0.00  0.00    -0.062 C 
ATOM      4  N   UNL     1       0.620   3.422  -0.147  0.00  0.00    +0.389 N 
ATOM      5  C   UNL     1       1.927   3.833  -0.680  0.00  0.00    -0.062 C 
ATOM      6  C   UNL     1       2.968   3.791   0.441  0.00  0.00    +0.066 C 
ATOM      7  H   UNL     1       0.355   4.110   0.669  0.00  0.00    -0.081 HD
ENDROOT
BRANCH   1   9
ATOM      8  C   UNL     1       4.100   0.911   2.591  0.00  0.00    +0.029 C 
ATOM      9  C   UNL     1       4.075   2.332   2.026  0.00  0.00    +0.085 C 
BRANCH   9  10
ATOM     10  C   UNL     1       5.415   2.654   1.416  0.00  0.00    -0.012 A 
ATOM     11  C   UNL     1       5.633   2.432   0.069  0.00  0.00    +0.006 A 
ATOM     12  C   UNL     1       6.862   2.727  -0.490  0.00  0.00    +0.000 A 
ATOM     13  C   UNL     1       7.874   3.245   0.297  0.00  0.00    +0.001 A 
ATOM     14  C   UNL     1       7.657   3.468   1.643  0.00  0.00    +0.020 A 
ATOM     15  C   UNL     1       6.425   3.178   2.203  0.00  0.00    +0.046 A 
ATOM     16 CL   UNL     1       6.150   3.464   3.893  0.00  0.00    -0.083 Cl
ENDBRANCH   9  10
ENDBRANCH   1   9
BRANCH   4  17
ATOM     17  C   UNL     1      -0.423   3.522  -1.177  0.00  0.00    +0.017 C 
ATOM     18  C   UNL     1      -0.275   2.364  -2.166  0.00  0.00    -0.004 C 
BRANCH  17  19
ATOM     19  C   UNL     1      -1.780   3.455  -0.525  0.00  0.00    +0.203 C 
ATOM     20  O   UNL     1      -1.887   3.052   0.614  0.00  0.00    -0.277 OA
ATOM     21  N   UNL     1      -2.876   3.843  -1.208  0.00  0.00    -0.285 N 
ATOM     22  H   UNL     1      -2.792   4.124  -2.268  0.00  0.00    +0.155 HD
BRANCH  21  23
ATOM     23  C   UNL     1      -4.119   3.889  -0.568  0.00  0.00    +0.064 A 
ATOM     24  C   UNL     1      -4.506   2.857   0.277  0.00  0.00    +0.025 A 
ATOM     25  C   UNL     1      -5.732   2.908   0.910  0.00  0.00    +0.002 A 
ATOM     26  C   UNL     1      -6.578   3.980   0.697  0.00  0.00    +0.002 A 
ATOM     27  C   UNL     1      -6.198   5.008  -0.146  0.00  0.00    +0.034 A 
ATOM     28  C   UNL     1      -4.971   4.965  -0.779  0.00  0.00    +0.147 A 
BRANCH  28  29
ATOM     29  N   UNL     1      -4.565   6.065  -1.683  0.00  0.00    +0.058 N 
ATOM     30  O   UNL     1      -5.311   7.010  -1.865  0.00  0.00    -0.126 OA
ATOM     31  O   UNL     1      -3.485   6.024  -2.245  0.00  0.00    -0.126 OA
ENDBRANCH  28  29
ENDBRANCH  21  23
ENDBRANCH  17  19
ENDBRANCH   4  17
TORSDOF 6
