REMARK  Name = ZINC46560475
REMARK  11 active torsions:
REMARK  status: ('A' for Active; 'I' for Inactive)
REMARK    1  A    between atoms: C_1  and  C_2
REMARK    2  A    between atoms: C_2  and  C_3
REMARK    3  A    between atoms: C_8  and  N_9
REMARK    4  A    between atoms: C_10  and  C_12
REMARK    5  A    between atoms: C_12  and  N_13
REMARK    6  A    between atoms: N_13  and  C_14
REMARK    7  A    between atoms: N_13  and  C_15
REMARK    8  A    between atoms: C_15  and  C_16
REMARK    9  A    between atoms: N_18  and  C_19
REMARK   10  A    between atoms: C_19  and  C_20
REMARK   11  A    between atoms: N_22  and  C_23
REMARK                            x       y       z     vdW  Elec       q    Type
REMARK                         _______ _______ _______ _____ _____    ______ ____
ROOT
ATOM      1  C   UNL     1       8.533  -0.834   1.991  0.00  0.00    +0.197 C 
ATOM      2  O   UNL     1       8.896  -1.218   0.899  0.00  0.00    -0.278 OA
ATOM      3  N   UNL     1       9.409  -0.784   3.014  0.00  0.00    -0.308 N 
ATOM      4  H   UNL     1       9.118  -0.478   3.887  0.00  0.00    +0.149 HD
ENDROOT
BRANCH   1   5
ATOM      5  C   UNL     1       7.101  -0.413   2.204  0.00  0.00    +0.019 C 
BRANCH   5   6
ATOM      6  N   UNL     1       6.356  -0.559   0.947  0.00  0.00    +0.389 N 
ATOM      7  C   UNL     1       6.891   0.376  -0.051  0.00  0.00    -0.095 C 
ATOM      8  H   UNL     1       6.451  -1.504   0.607  0.00  0.00    -0.081 HD
BRANCH   6   9
ATOM      9  C   UNL     1       4.936  -0.264   1.182  0.00  0.00    +0.019 C 
BRANCH   9  11
ATOM     10  N   UNL     1       2.820  -0.330  -0.097  0.00  0.00    -0.287 N 
ATOM     11  C   UNL     1       4.152  -0.532  -0.077  0.00  0.00    +0.201 C 
ATOM     12  O   UNL     1       4.720  -0.929  -1.072  0.00  0.00    -0.278 OA
ATOM     13  H   UNL     1       2.376   0.053   0.676  0.00  0.00    +0.155 HD
BRANCH  10  19
ATOM     14  C   UNL     1       0.786  -1.166  -1.096  0.00  0.00    -0.026 A 
ATOM     15  C   UNL     1       0.054  -1.498  -2.219  0.00  0.00    +0.005 A 
ATOM     16  C   UNL     1       0.606  -1.343  -3.477  0.00  0.00    +0.000 A 
ATOM     17  C   UNL     1       1.893  -0.856  -3.616  0.00  0.00    +0.002 A 
ATOM     18  C   UNL     1       2.630  -0.522  -2.497  0.00  0.00    +0.023 A 
ATOM     19  C   UNL     1       2.077  -0.672  -1.232  0.00  0.00    +0.036 A 
BRANCH  14  21
ATOM     20  C   UNL     1      -0.434  -0.010   0.727  0.00  0.00    +0.009 C 
ATOM     21  C   UNL     1       0.184  -1.335   0.275  0.00  0.00    +0.033 C 
ENDBRANCH  14  21
ENDBRANCH  10  19
ENDBRANCH   9  11
ENDBRANCH   6   9
ENDBRANCH   5   6
ENDBRANCH   1   5
BRANCH   3  22
ATOM     22  C   UNL     1      10.800  -1.193   2.807  0.00  0.00    +0.200 C 
BRANCH  22  23
ATOM     23  C   UNL     1      11.565  -1.044   4.096  0.00  0.00    +0.234 C 
ATOM     24  O   UNL     1      11.003  -0.636   5.091  0.00  0.00    -0.274 OA
ATOM     25  N   UNL     1      12.874  -1.364   4.145  0.00  0.00    -0.282 N 
ATOM     26  H   UNL     1      13.342  -1.612   3.333  0.00  0.00    +0.155 HD
BRANCH  25  27
ATOM     27  C   UNL     1      13.556  -1.337   5.369  0.00  0.00    +0.072 A 
ATOM     28  C   UNL     1      12.858  -1.496   6.558  0.00  0.00    +0.029 A 
ATOM     29  C   UNL     1      13.532  -1.468   7.764  0.00  0.00    +0.043 A 
ATOM     30  C   UNL     1      14.904  -1.284   7.789  0.00  0.00    +0.161 A 
ATOM     31  C   UNL     1      15.605  -1.125   6.604  0.00  0.00    +0.195 A 
ATOM     32  C   UNL     1      14.934  -1.157   5.393  0.00  0.00    +0.182 A 
ATOM     33  F   UNL     1      15.617  -1.008   4.236  0.00  0.00    -0.200 F 
ATOM     34  F   UNL     1      16.944  -0.943   6.630  0.00  0.00    -0.199 F 
ATOM     35  F   UNL     1      15.560  -1.258   8.970  0.00  0.00    -0.202 F 
ENDBRANCH  25  27
ENDBRANCH  22  23
ENDBRANCH   3  22
TORSDOF 9
