REMARK  Name = ZINC63586842
REMARK  9 active torsions:
REMARK  status: ('A' for Active; 'I' for Inactive)
REMARK    1  A    between atoms: C_1  and  C_2
REMARK    2  A    between atoms: N_5  and  C_8
REMARK    3  A    between atoms: C_8  and  C_9
REMARK    4  A    between atoms: C_8  and  C_10
REMARK    5  A    between atoms: C_10  and  N_11
REMARK    6  A    between atoms: C_12  and  C_14
REMARK    7  A    between atoms: C_14  and  N_15
REMARK    8  A    between atoms: N_15  and  C_16
REMARK    9  A    between atoms: N_15  and  C_17
REMARK                            x       y       z     vdW  Elec       q    Type
REMARK                         _______ _______ _______ _____ _____    ______ ____
ROOT
ATOM      1  N   UNL     1       1.651  -3.736  -2.468  0.00  0.00    -0.318 N 
ATOM      2  C   UNL     1       1.989  -4.060  -3.732  0.00  0.00    +0.196 C 
ATOM      3  O   UNL     1       2.878  -4.858  -3.937  0.00  0.00    -0.278 OA
ATOM      4  H   UNL     1       0.939  -3.098  -2.305  0.00  0.00    +0.149 HD
ENDROOT
BRANCH   1   5
ATOM      5  C   UNL     1       2.358  -4.349  -1.341  0.00  0.00    +0.088 C 
BRANCH   5   6
ATOM      6  C   UNL     1       1.709  -3.904  -0.029  0.00  0.00    -0.054 C 
ATOM      7  C   UNL     1       2.499  -4.475   1.150  0.00  0.00    -0.012 C 
BRANCH   6  12
ATOM      8  C   UNL     1       2.260   1.619   1.282  0.00  0.00    +0.007 C 
ATOM      9  C   UNL     1       2.320   0.091   1.323  0.00  0.00    -0.018 C 
ATOM     10  C   UNL     1       0.899  -0.479   1.276  0.00  0.00    -0.016 C 
ATOM     11  C   UNL     1       0.970  -2.007   1.237  0.00  0.00    -0.078 C 
ATOM     12  N   UNL     1       1.711  -2.437   0.045  0.00  0.00    +0.382 N 
ATOM     13  C   UNL     1       3.095  -1.954   0.119  0.00  0.00    -0.078 C 
ATOM     14  C   UNL     1       3.107  -0.424   0.114  0.00  0.00    -0.016 C 
ATOM     15  H   UNL     1       1.268  -2.060  -0.779  0.00  0.00    -0.081 HD
ENDBRANCH   6  12
ENDBRANCH   5   6
ENDBRANCH   1   5
BRANCH   2  16
ATOM     16  C   UNL     1       1.261  -3.429  -4.892  0.00  0.00    +0.019 C 
BRANCH  16  17
ATOM     17  N   UNL     1       1.812  -3.943  -6.153  0.00  0.00    +0.387 N 
ATOM     18  C   UNL     1       1.536  -5.382  -6.258  0.00  0.00    -0.095 C 
ATOM     19  H   UNL     1       2.809  -3.789  -6.172  0.00  0.00    -0.081 HD
BRANCH  17  20
ATOM     20  C   UNL     1       1.187  -3.241  -7.282  0.00  0.00    -0.046 C 
ATOM     21  C   UNL     1       1.782  -3.752  -8.605  0.00  0.00    +0.009 C 
ATOM     22  C   UNL     1       1.375  -2.811  -9.764  0.00  0.00    +0.164 C 
ATOM     23  S   UNL     1       1.158  -1.194  -8.916  0.00  0.00    -0.033 S 
ATOM     24  O   UNL     1      -0.198  -0.786  -9.037  0.00  0.00    -0.174 OA
ATOM     25  O   UNL     1       2.193  -0.312  -9.330  0.00  0.00    -0.174 OA
ATOM     26  C   UNL     1       1.474  -1.716  -7.178  0.00  0.00    +0.151 C 
ENDBRANCH  17  20
ENDBRANCH  16  17
ENDBRANCH   2  16
TORSDOF 6
