REMARK  Name = ZINC65537845
REMARK  6 active torsions:
REMARK  status: ('A' for Active; 'I' for Inactive)
REMARK    1  A    between atoms: C_1  and  C_2
REMARK    2  A    between atoms: C_3  and  C_8
REMARK    3  A    between atoms: C_4  and  C_7
REMARK    4  A    between atoms: C_8  and  N_9
REMARK    5  A    between atoms: C_12  and  C_16
REMARK    6  A    between atoms: C_12  and  C_17
REMARK                            x       y       z     vdW  Elec       q    Type
REMARK                         _______ _______ _______ _____ _____    ______ ____
ROOT
ATOM      1  N   UNL     1       1.371  -0.174  -3.041  0.00  0.00    -0.219 N 
ATOM      2  C   UNL     1       2.072   0.971  -2.926  0.00  0.00    +0.251 C 
ATOM      3  O   UNL     1       1.696   2.014  -2.434  0.00  0.00    -0.272 OA
ATOM      4  C   UNL     1       3.428   0.686  -3.541  0.00  0.00    +0.138 C 
ATOM      5  N   UNL     1       3.324  -0.720  -3.970  0.00  0.00    -0.281 N 
ATOM      6  C   UNL     1       2.091  -1.136  -3.631  0.00  0.00    +0.310 C 
ATOM      7  O   UNL     1       1.675  -2.258  -3.840  0.00  0.00    -0.252 OA
ATOM      8  C   UNL     1       4.536   0.850  -2.499  0.00  0.00    +0.047 C 
ATOM      9  H   UNL     1       4.013  -1.244  -4.408  0.00  0.00    +0.152 HD
ENDROOT
BRANCH   4  10
ATOM     10  C   UNL     1       3.674   1.585  -4.725  0.00  0.00    +0.020 A 
ATOM     11  C   UNL     1       3.884   1.038  -5.976  0.00  0.00    +0.009 A 
ATOM     12  C   UNL     1       4.110   1.862  -7.063  0.00  0.00    +0.001 A 
ATOM     13  C   UNL     1       4.125   3.235  -6.899  0.00  0.00    +0.003 A 
ATOM     14  C   UNL     1       3.914   3.784  -5.648  0.00  0.00    +0.039 A 
ATOM     15  C   UNL     1       3.683   2.959  -4.560  0.00  0.00    +0.129 A 
ATOM     16  F   UNL     1       3.472   3.495  -3.338  0.00  0.00    -0.205 F 
ENDBRANCH   4  10
BRANCH   1  17
ATOM     17  C   UNL     1      -0.005  -0.348  -2.571  0.00  0.00    +0.158 C 
BRANCH  17  20
ATOM     18  C   UNL     1      -0.018   1.503   0.010  0.00  0.00    +0.069 C 
ATOM     19  C   UNL     1       0.002  -0.004   0.002  0.00  0.00    +0.085 A 
ATOM     20  C   UNL     1       0.008  -0.824  -1.141  0.00  0.00    +0.035 A 
ATOM     21  C   UNL     1       0.027  -2.108  -0.735  0.00  0.00    +0.139 A 
ATOM     22  O   UNL     1       0.034  -2.119   0.606  0.00  0.00    -0.359 OA
ATOM     23  N   UNL     1       0.023  -0.775   1.052  0.00  0.00    -0.083 NA
ATOM     24  C   UNL     1       0.039  -3.320  -1.631  0.00  0.00    +0.089 C 
ENDBRANCH  17  20
ENDBRANCH   1  17
TORSDOF 3
