REMARK  Name = ZINC36600906
REMARK  11 active torsions:
REMARK  status: ('A' for Active; 'I' for Inactive)
REMARK    1  A    between atoms: C_1  and  C_2
REMARK    2  A    between atoms: C_7  and  C_8
REMARK    3  A    between atoms: C_8  and  C_10
REMARK    4  A    between atoms: C_8  and  N_19
REMARK    5  A    between atoms: N_12  and  C_13
REMARK    6  A    between atoms: N_19  and  C_20
REMARK    7  A    between atoms: C_20  and  C_21
REMARK    8  A    between atoms: C_24  and  C_26
REMARK    9  A    between atoms: C_27  and  C_29
REMARK   10  A    between atoms: C_29  and  N_30
REMARK   11  A    between atoms: C_31  and  C_33
REMARK                            x       y       z     vdW  Elec       q    Type
REMARK                         _______ _______ _______ _____ _____    ______ ____
ROOT
ATOM      1  N   UNL     1       0.952  -0.570   3.442  0.00  0.00    -0.277 N 
ATOM      2  C   UNL     1       0.714  -1.759   4.029  0.00  0.00    +0.234 C 
ATOM      3  O   UNL     1      -0.378  -2.277   3.929  0.00  0.00    -0.274 OA
ENDROOT
BRANCH   1   4
ATOM      4  C   UNL     1      -0.108   0.099   2.685  0.00  0.00    +0.193 C 
BRANCH   4  11
ATOM      5  C   UNL     1       1.443  -0.370   0.293  0.00  0.00    +0.044 C 
ATOM      6  C   UNL     1       0.114  -1.056   0.476  0.00  0.00    -0.045 A 
ATOM      7  C   UNL     1      -0.360  -1.915  -0.499  0.00  0.00    +0.004 A 
ATOM      8  C   UNL     1      -1.579  -2.544  -0.331  0.00  0.00    +0.000 A 
ATOM      9  C   UNL     1      -2.324  -2.316   0.811  0.00  0.00    +0.000 A 
ATOM     10  C   UNL     1      -1.850  -1.458   1.785  0.00  0.00    +0.006 A 
ATOM     11  C   UNL     1      -0.628  -0.832   1.620  0.00  0.00    -0.015 A 
ENDBRANCH   4  11
BRANCH   4  12
ATOM     12  C   UNL     1      -1.232   0.473   3.617  0.00  0.00    +0.238 C 
ATOM     13  O   UNL     1      -1.261   0.024   4.743  0.00  0.00    -0.273 OA
ATOM     14  N   UNL     1      -2.204   1.308   3.199  0.00  0.00    -0.311 N 
ATOM     15  H   UNL     1      -2.221   1.610   2.278  0.00  0.00    +0.149 HD
BRANCH  14  16
ATOM     16  C   UNL     1      -3.236   1.758   4.137  0.00  0.00    +0.073 C 
ATOM     17  C   UNL     1      -4.357   0.718   4.199  0.00  0.00    +0.022 C 
ATOM     18  C   UNL     1      -5.435   1.188   5.178  0.00  0.00    +0.002 C 
ATOM     19  C   UNL     1      -6.006   2.526   4.704  0.00  0.00    +0.000 C 
ATOM     20  C   UNL     1      -4.885   3.566   4.642  0.00  0.00    +0.002 C 
ATOM     21  C   UNL     1      -3.807   3.096   3.663  0.00  0.00    +0.022 C 
ENDBRANCH  14  16
ENDBRANCH   4  12
ENDBRANCH   1   4
BRANCH   1  22
ATOM     22  C   UNL     1       2.272   0.055   3.562  0.00  0.00    +0.183 C 
BRANCH  22  23
ATOM     23  C   UNL     1       2.259   1.042   4.701  0.00  0.00    +0.122 A 
ATOM     24  C   UNL     1       2.652   0.792   5.963  0.00  0.00    +0.046 A 
ATOM     25  C   UNL     1       2.472   1.989   6.693  0.00  0.00    +0.045 A 
ATOM     26  C   UNL     1       1.980   2.900   5.834  0.00  0.00    +0.102 A 
ATOM     27  O   UNL     1       1.858   2.322   4.628  0.00  0.00    -0.463 OA
ATOM     28  C   UNL     1       1.629   4.327   6.167  0.00  0.00    +0.086 C 
ENDBRANCH  22  23
ENDBRANCH   1  22
BRANCH   2  29
ATOM     29  C   UNL     1       1.806  -2.447   4.808  0.00  0.00    +0.200 C 
BRANCH  29  30
ATOM     30  N   UNL     1       1.300  -3.714   5.342  0.00  0.00    -0.303 N 
ATOM     31  C   UNL     1       2.106  -4.505   6.078  0.00  0.00    +0.244 C 
ATOM     32  O   UNL     1       3.253  -4.167   6.298  0.00  0.00    -0.270 OA
ATOM     33  H   UNL     1       0.385  -3.984   5.167  0.00  0.00    +0.150 HD
BRANCH  31  34
ATOM     34  C   UNL     1       1.596  -5.784   6.617  0.00  0.00    +0.037 A 
ATOM     35  C   UNL     1       0.282  -6.177   6.361  0.00  0.00    +0.013 A 
ATOM     36  C   UNL     1      -0.188  -7.372   6.867  0.00  0.00    +0.001 A 
ATOM     37  C   UNL     1       0.641  -8.179   7.626  0.00  0.00    +0.000 A 
ATOM     38  C   UNL     1       1.945  -7.794   7.884  0.00  0.00    +0.001 A 
ATOM     39  C   UNL     1       2.429  -6.605   7.379  0.00  0.00    +0.013 A 
ENDBRANCH  31  34
ENDBRANCH  29  30
ENDBRANCH   2  29
TORSDOF 9
