REMARK  Name = ZINC08815585
REMARK  5 active torsions:
REMARK  status: ('A' for Active; 'I' for Inactive)
REMARK    1  A    between atoms: C_3  and  C_10
REMARK    2  A    between atoms: C_5  and  N_7
REMARK    3  A    between atoms: C_10  and  C_12
REMARK    4  A    between atoms: C_10  and  N_23
REMARK    5  A    between atoms: C_21  and  O_22
REMARK                            x       y       z     vdW  Elec       q    Type
REMARK                         _______ _______ _______ _____ _____    ______ ____
ROOT
ATOM      1  C   UNL     1      -0.070   5.347   0.030  0.00  0.00    +0.136 C 
ENDROOT
BRANCH   1   2
ATOM      2  N   UNL     1      -1.040   5.968  -0.876  0.00  0.00    -0.312 N 
ATOM      3  C   UNL     1      -0.783   6.019  -2.237  0.00  0.00    +0.159 A 
ATOM      4  N   UNL     1      -1.522   6.529  -3.201  0.00  0.00    -0.230 NA
ATOM      5  C   UNL     1      -1.139   6.505  -4.477  0.00  0.00    +0.054 A 
ATOM      6  C   UNL     1       0.060   5.921  -4.727  0.00  0.00    +0.014 A 
ATOM      7  S   UNL     1       0.602   5.434  -3.111  0.00  0.00    -0.057 S 
ATOM      8  C   UNL     1       0.738   5.749  -6.044  0.00  0.00    +0.044 C 
ATOM      9  C   UNL     1      -0.293   6.012  -7.153  0.00  0.00    +0.006 C 
ATOM     10  C   UNL     1      -1.049   7.303  -6.826  0.00  0.00    +0.006 C 
ATOM     11  C   UNL     1      -1.964   7.085  -5.620  0.00  0.00    +0.056 C 
ATOM     12  H   UNL     1      -1.862   6.343  -0.523  0.00  0.00    +0.149 HD
ENDBRANCH   1   2
BRANCH   1  13
ATOM     13  C   UNL     1      -0.192   5.968   1.397  0.00  0.00    +0.021 A 
ATOM     14  C   UNL     1      -1.410   6.510   1.799  0.00  0.00    +0.010 A 
ATOM     15  C   UNL     1      -1.552   7.078   3.028  0.00  0.00    +0.010 A 
ATOM     16  C   UNL     1      -0.457   7.120   3.907  0.00  0.00    +0.004 A 
ATOM     17  C   UNL     1      -0.566   7.700   5.186  0.00  0.00    +0.011 A 
ATOM     18  C   UNL     1       0.540   7.705   5.986  0.00  0.00    +0.020 A 
ATOM     19  C   UNL     1       1.732   7.147   5.529  0.00  0.00    +0.111 A 
ATOM     20  N   UNL     1       1.829   6.609   4.338  0.00  0.00    -0.251 NA
ATOM     21  C   UNL     1       0.785   6.571   3.506  0.00  0.00    +0.113 A 
ATOM     22  C   UNL     1       0.894   5.986   2.226  0.00  0.00    +0.148 A 
BRANCH  22  23
ATOM     23  O   UNL     1       2.072   5.447   1.820  0.00  0.00    -0.504 OA
ATOM     24  H   UNL     1       2.656   6.073   1.368  0.00  0.00    +0.292 HD
ENDBRANCH  22  23
ENDBRANCH   1  13
BRANCH   1  27
ATOM     25  C   UNL     1      -1.901   2.053   0.258  0.00  0.00    +0.003 A 
ATOM     26  C   UNL     1      -1.649   3.410   0.178  0.00  0.00    +0.006 A 
ATOM     27  C   UNL     1      -0.346   3.868   0.123  0.00  0.00    -0.021 A 
ATOM     28  C   UNL     1       0.705   2.970   0.154  0.00  0.00    +0.038 A 
ATOM     29  C   UNL     1       0.452   1.614   0.240  0.00  0.00    +0.127 A 
ATOM     30  C   UNL     1      -0.851   1.156   0.294  0.00  0.00    +0.033 A 
BRANCH  29  31
ATOM     31  N   UNL     1       1.577   0.652   0.273  0.00  0.00    +0.056 N 
ATOM     32  O   UNL     1       1.355  -0.543   0.348  0.00  0.00    -0.126 OA
ATOM     33  O   UNL     1       2.725   1.056   0.225  0.00  0.00    -0.126 OA
ENDBRANCH  29  31
ENDBRANCH   1  27
TORSDOF 5
