REMARK  Name = ZINC14715631
REMARK  5 active torsions:
REMARK  status: ('A' for Active; 'I' for Inactive)
REMARK    1  A    between atoms: C_1  and  C_2
REMARK    2  A    between atoms: C_8  and  C_10
REMARK    3  A    between atoms: C_12  and  N_23
REMARK    4  A    between atoms: C_15  and  N_16
REMARK    5  A    between atoms: C_19  and  C_22
REMARK                            x       y       z     vdW  Elec       q    Type
REMARK                         _______ _______ _______ _____ _____    ______ ____
ROOT
ATOM      1  C   UNL     1       0.110  -6.364   0.193  0.00  0.00    +0.060 A 
ATOM      2  C   UNL     1       0.219  -6.713   1.541  0.00  0.00    +0.047 A 
ATOM      3  C   UNL     1       0.217  -8.040   1.910  0.00  0.00    +0.127 A 
ATOM      4  C   UNL     1       0.109  -9.034   0.949  0.00  0.00    +0.034 A 
ATOM      5  C   UNL     1       0.001  -8.705  -0.387  0.00  0.00    +0.026 A 
ATOM      6  C   UNL     1      -0.005  -7.372  -0.777  0.00  0.00    +0.042 A 
ENDROOT
BRANCH   1  14
ATOM      7  C   UNL     1       0.090   1.503  -0.003  0.00  0.00    +0.075 C 
ATOM      8  C   UNL     1       0.094  -0.004  -0.009  0.00  0.00    +0.101 A 
ATOM      9  N   UNL     1       0.110  -0.847  -1.022  0.00  0.00    -0.145 NA
ATOM     10  N   UNL     1       0.111  -2.097  -0.856  0.00  0.00    -0.126 NA
ATOM     11  C   UNL     1       0.097  -2.642   0.353  0.00  0.00    +0.188 A 
ATOM     12  S   UNL     1       0.088  -1.160   1.358  0.00  0.00    -0.036 S 
ATOM     13  N   UNL     1       0.096  -3.979   0.731  0.00  0.00    -0.259 N 
ATOM     14  C   UNL     1       0.111  -4.945  -0.208  0.00  0.00    +0.252 C 
ATOM     15  O   UNL     1       0.126  -4.647  -1.387  0.00  0.00    -0.270 OA
ATOM     16  H   UNL     1       0.085  -4.218   1.671  0.00  0.00    +0.157 HD
ENDBRANCH   1  14
BRANCH   6  17
ATOM     17  N   UNL     1      -0.120  -7.038  -2.121  0.00  0.00    -0.329 N 
ATOM     18  C   UNL     1      -1.433  -6.740  -2.709  0.00  0.00    +0.105 C 
ATOM     19  C   UNL     1      -1.636  -7.631  -3.938  0.00  0.00    +0.022 C 
ATOM     20  C   UNL     1      -0.460  -7.444  -4.899  0.00  0.00    -0.011 C 
ATOM     21  C   UNL     1       0.838  -7.866  -4.207  0.00  0.00    +0.022 C 
ATOM     22  C   UNL     1       1.071  -6.972  -2.979  0.00  0.00    +0.105 C 
ATOM     23  C   UNL     1      -0.677  -8.306  -6.144  0.00  0.00    +0.007 C 
ENDBRANCH   6  17
BRANCH   3  24
ATOM     24  N   UNL     1       0.332  -8.408   3.339  0.00  0.00    +0.056 N 
ATOM     25  O   UNL     1       0.427  -7.544   4.179  0.00  0.00    -0.126 OA
ATOM     26  O   UNL     1       0.331  -9.572   3.666  0.00  0.00    -0.126 OA
ENDBRANCH   3  24
TORSDOF 3
