REMARK  Name = ZINC40551195
REMARK  13 active torsions:
REMARK  status: ('A' for Active; 'I' for Inactive)
REMARK    1  A    between atoms: C_1  and  C_2
REMARK    2  A    between atoms: C_2  and  O_3
REMARK    3  A    between atoms: O_3  and  C_4
REMARK    4  A    between atoms: C_6  and  C_14
REMARK    5  A    between atoms: C_9  and  O_10
REMARK    6  A    between atoms: O_10  and  C_11
REMARK    7  A    between atoms: C_11  and  C_12
REMARK    8  A    between atoms: C_17  and  C_32
REMARK    9  A    between atoms: N_24  and  C_25
REMARK   10  A    between atoms: C_25  and  C_26
REMARK   11  A    between atoms: C_33  and  C_40
REMARK   12  A    between atoms: C_35  and  C_39
REMARK   13  A    between atoms: C_37  and  O_38
REMARK                            x       y       z     vdW  Elec       q    Type
REMARK                         _______ _______ _______ _____ _____    ______ ____
ROOT
ATOM      1  C   UNL     1       0.749  -4.922  -0.008  0.00  0.00    +0.141 C 
ATOM      2  C   UNL     1       0.871  -5.565  -1.363  0.00  0.00    +0.035 A 
ATOM      3  C   UNL     1       1.073  -5.392  -2.736  0.00  0.00    +0.102 A 
ATOM      4  N   UNL     1       1.035  -6.586  -3.294  0.00  0.00    -0.173 NA
ATOM      5  N   UNL     1       0.829  -7.496  -2.409  0.00  0.00    -0.272 N 
ATOM      6  H   UNL     1       0.764  -8.446  -2.591  0.00  0.00    +0.189 HD
ATOM      7  C   UNL     1       0.716  -6.925  -1.173  0.00  0.00    +0.126 A 
ATOM      8  C   UNL     1       0.499  -7.175   0.256  0.00  0.00    +0.266 C 
ATOM      9  O   UNL     1       0.328  -8.272   0.751  0.00  0.00    -0.268 OA
ATOM     10  N   UNL     1       0.517  -6.016   0.943  0.00  0.00    -0.283 N 
ENDROOT
BRANCH   3  11
ATOM     11  C   UNL     1       1.290  -4.102  -3.437  0.00  0.00    +0.047 A 
ATOM     12  C   UNL     1       0.546  -3.788  -4.571  0.00  0.00    -0.037 A 
ATOM     13  C   UNL     1       0.751  -2.587  -5.220  0.00  0.00    +0.007 A 
ATOM     14  C   UNL     1       1.694  -1.692  -4.746  0.00  0.00    -0.047 A 
ATOM     15  C   UNL     1       2.439  -1.994  -3.622  0.00  0.00    +0.049 A 
ATOM     16  C   UNL     1       2.238  -3.194  -2.958  0.00  0.00    +0.127 A 
ATOM     17  C   UNL     1       1.912  -0.384  -5.461  0.00  0.00    +0.044 C 
ATOM     18  C   UNL     1      -0.483  -4.760  -5.091  0.00  0.00    +0.044 C 
BRANCH  16  19
ATOM     19  O   UNL     1       2.965  -3.489  -1.848  0.00  0.00    -0.506 OA
ATOM     20  H   UNL     1       3.827  -3.883  -2.037  0.00  0.00    +0.292 HD
ENDBRANCH  16  19
ENDBRANCH   3  11
BRANCH   1  23
ATOM     21  C   UNL     1      -1.281  -1.756   0.354  0.00  0.00    +0.162 A 
ATOM     22  C   UNL     1      -0.212  -2.638   0.338  0.00  0.00    +0.055 A 
ATOM     23  C   UNL     1      -0.415  -3.965   0.008  0.00  0.00    -0.019 A 
ATOM     24  C   UNL     1      -1.684  -4.416  -0.307  0.00  0.00    +0.009 A 
ATOM     25  C   UNL     1      -2.755  -3.542  -0.293  0.00  0.00    +0.050 A 
ATOM     26  C   UNL     1      -2.559  -2.212   0.043  0.00  0.00    +0.162 A 
BRANCH  21  27
ATOM     27  O   UNL     1      -1.083  -0.451   0.679  0.00  0.00    -0.489 OA
BRANCH  27  29
ATOM     28  C   UNL     1       0.280   1.437   1.326  0.00  0.00    +0.048 C 
ATOM     29  C   UNL     1       0.255  -0.055   0.987  0.00  0.00    +0.226 C 
ENDBRANCH  27  29
ENDBRANCH  21  27
BRANCH  26  30
ATOM     30  O   UNL     1      -3.612  -1.352   0.062  0.00  0.00    -0.484 OA
BRANCH  30  31
ATOM     31  C   UNL     1      -4.894  -1.889  -0.269  0.00  0.00    +0.256 C 
BRANCH  31  32
ATOM     32  C   UNL     1      -5.931  -0.797  -0.195  0.00  0.00    +0.006 C 
ATOM     33  C   UNL     1      -6.823  -0.675  -1.146  0.00  0.00    +0.007 C 
ENDBRANCH  31  32
ENDBRANCH  30  31
ENDBRANCH  26  30
ENDBRANCH   1  23
BRANCH  10  34
ATOM     34  C   UNL     1       0.336  -5.872   2.390  0.00  0.00    +0.140 C 
BRANCH  34  35
ATOM     35  C   UNL     1      -1.159  -5.851   2.717  0.00  0.00    +0.136 C 
ATOM     36  C   UNL     1      -1.373  -5.781   4.250  0.00  0.00    +0.035 C 
ATOM     37  C   UNL     1      -2.784  -5.136   4.322  0.00  0.00    +0.031 C 
ATOM     38  C   UNL     1      -2.773  -4.188   3.103  0.00  0.00    +0.160 C 
ATOM     39  O   UNL     1      -1.767  -4.659   2.196  0.00  0.00    -0.375 OA
ENDBRANCH  34  35
ENDBRANCH  10  34
TORSDOF 10
