REMARK  Name = ZINC22876191
REMARK  17 active torsions:
REMARK  status: ('A' for Active; 'I' for Inactive)
REMARK    1  A    between atoms: C_1  and  C_2
REMARK    2  A    between atoms: C_5  and  C_30
REMARK    3  A    between atoms: C_6  and  O_9
REMARK    4  A    between atoms: C_7  and  C_8
REMARK    5  A    between atoms: O_9  and  C_10
REMARK    6  A    between atoms: C_10  and  C_11
REMARK    7  A    between atoms: C_11  and  C_13
REMARK    8  A    between atoms: C_11  and  O_29
REMARK    9  A    between atoms: C_13  and  N_14
REMARK   10  A    between atoms: N_14  and  C_15
REMARK   11  A    between atoms: C_15  and  C_16
REMARK   12  A    between atoms: C_16  and  C_18
REMARK   13  A    between atoms: C_16  and  N_26
REMARK   14  A    between atoms: C_21  and  O_24
REMARK   15  A    between atoms: O_24  and  C_25
REMARK   16  A    between atoms: N_26  and  C_27
REMARK   17  A    between atoms: N_26  and  C_28
REMARK                            x       y       z     vdW  Elec       q    Type
REMARK                         _______ _______ _______ _____ _____    ______ ____
ROOT
ATOM      1  N   UNL     1       1.955  -5.411   6.342  0.00  0.00    +0.380 N 
ATOM      2  H   UNL     1       1.292  -4.994   6.979  0.00  0.00    -0.086 HD
ATOM      3  H   UNL     1       1.738  -6.389   6.223  0.00  0.00    -0.086 HD
ENDROOT
BRANCH   1   4
ATOM      4  C   UNL     1       1.881  -4.730   5.043  0.00  0.00    -0.048 C 
BRANCH   4   5
ATOM      5  C   UNL     1       0.469  -4.872   4.472  0.00  0.00    +0.135 C 
BRANCH   5   6
ATOM      6  O   UNL     1       0.161  -6.257   4.303  0.00  0.00    -0.390 OA
ATOM      7  H   UNL     1       0.759  -6.723   3.702  0.00  0.00    +0.210 HD
ENDBRANCH   5   6
BRANCH   5   8
ATOM      8  C   UNL     1       0.392  -4.163   3.119  0.00  0.00    +0.258 C 
BRANCH   8   9
ATOM      9  O   UNL     1      -0.954  -4.195   2.640  0.00  0.00    -0.489 OA
BRANCH   9  15
ATOM     10  C   UNL     1      -2.168  -0.206   0.103  0.00  0.00    +0.044 C 
ATOM     11  C   UNL     1      -1.791  -1.664   0.165  0.00  0.00    -0.044 A 
ATOM     12  C   UNL     1      -1.691  -2.401  -1.001  0.00  0.00    +0.004 A 
ATOM     13  C   UNL     1      -1.345  -3.739  -0.948  0.00  0.00    +0.007 A 
ATOM     14  C   UNL     1      -1.098  -4.342   0.270  0.00  0.00    -0.009 A 
ATOM     15  C   UNL     1      -1.197  -3.604   1.441  0.00  0.00    +0.127 A 
ATOM     16  C   UNL     1      -1.539  -2.261   1.385  0.00  0.00    -0.006 A 
ATOM     17  C   UNL     1      -1.640  -1.455   2.654  0.00  0.00    +0.048 C 
ATOM     18  C   UNL     1      -0.722  -5.800   0.327  0.00  0.00    +0.047 C 
ENDBRANCH   9  15
ENDBRANCH   8   9
ENDBRANCH   5   8
ENDBRANCH   4   5
ENDBRANCH   1   4
BRANCH   1  19
ATOM     19  C   UNL     1       3.312  -5.274   6.890  0.00  0.00    -0.094 C 
BRANCH  19  20
ATOM     20  C   UNL     1       3.374  -5.937   8.268  0.00  0.00    -0.056 C 
BRANCH  20  21
ATOM     21  C   UNL     1       2.485  -5.188   9.226  0.00  0.00    -0.063 A 
ATOM     22  C   UNL     1       2.928  -4.012   9.803  0.00  0.00    +0.005 A 
ATOM     23  C   UNL     1       2.115  -3.323  10.683  0.00  0.00    +0.046 A 
ATOM     24  C   UNL     1       0.853  -3.812  10.986  0.00  0.00    +0.120 A 
ATOM     25  C   UNL     1       0.410  -4.992  10.406  0.00  0.00    +0.046 A 
ATOM     26  C   UNL     1       1.225  -5.674   9.523  0.00  0.00    +0.005 A 
BRANCH  24  27
ATOM     27  O   UNL     1       0.051  -3.137  11.851  0.00  0.00    -0.495 OA
ATOM     28  C   UNL     1      -1.236  -3.700  12.117  0.00  0.00    +0.277 C 
ENDBRANCH  24  27
ENDBRANCH  20  21
BRANCH  20  29
ATOM     29  N   UNL     1       4.758  -5.911   8.761  0.00  0.00    +0.379 N 
ATOM     30  C   UNL     1       4.809  -6.500  10.106  0.00  0.00    -0.096 C 
ATOM     31  C   UNL     1       5.616  -6.685   7.854  0.00  0.00    -0.096 C 
ATOM     32  H   UNL     1       5.083  -4.957   8.799  0.00  0.00    -0.082 HD
ENDBRANCH  20  29
ENDBRANCH  19  20
ENDBRANCH   1  19
TORSDOF 11
