REMARK  Name = ZINC20865411
REMARK  5 active torsions:
REMARK  status: ('A' for Active; 'I' for Inactive)
REMARK    1  A    between atoms: C_1  and  C_2
REMARK    2  A    between atoms: C_8  and  C_10
REMARK    3  A    between atoms: C_10  and  S_11
REMARK    4  A    between atoms: S_11  and  C_12
REMARK    5  A    between atoms: N_25  and  C_26
REMARK                            x       y       z     vdW  Elec       q    Type
REMARK                         _______ _______ _______ _____ _____    ______ ____
ROOT
ATOM      1  C   UNL     1      -0.033  -4.765  -0.519  0.00  0.00    +0.178 A 
ATOM      2  N   UNL     1      -0.942  -3.823  -0.309  0.00  0.00    -0.215 NA
ATOM      3  C   UNL     1      -0.504  -2.628   0.066  0.00  0.00    +0.117 A 
ATOM      4  C   UNL     1       0.861  -2.309   0.253  0.00  0.00    +0.076 A 
ATOM      5  C   UNL     1       1.149  -0.946   0.666  0.00  0.00    -0.023 A 
ATOM      6  C   UNL     1       0.087  -0.124   0.830  0.00  0.00    -0.004 A 
ATOM      7  S   UNL     1      -1.333  -1.117   0.445  0.00  0.00    -0.073 S 
ATOM      8  C   UNL     1       0.109   1.314   1.247  0.00  0.00    +0.043 C 
ATOM      9  C   UNL     1       1.495   1.633   1.824  0.00  0.00    +0.005 C 
ATOM     10  C   UNL     1       2.561   1.091   0.867  0.00  0.00    +0.005 C 
ATOM     11  C   UNL     1       2.567  -0.438   0.910  0.00  0.00    +0.037 C 
ATOM     12  C   UNL     1       1.815  -3.352   0.018  0.00  0.00    +0.268 A 
ATOM     13  O   UNL     1       3.014  -3.174   0.152  0.00  0.00    -0.267 OA
ATOM     14  N   UNL     1       1.304  -4.546  -0.363  0.00  0.00    -0.255 N 
ENDROOT
BRANCH  14  15
ATOM     15  C   UNL     1       2.189  -5.605  -0.607  0.00  0.00    +0.052 A 
ATOM     16  C   UNL     1       2.550  -6.462   0.424  0.00  0.00    +0.028 A 
ATOM     17  C   UNL     1       3.418  -7.508   0.180  0.00  0.00    +0.022 A 
ATOM     18  C   UNL     1       3.936  -7.696  -1.089  0.00  0.00    +0.041 A 
ATOM     19  C   UNL     1       3.582  -6.841  -2.118  0.00  0.00    +0.022 A 
ATOM     20  C   UNL     1       2.711  -5.796  -1.879  0.00  0.00    +0.028 A 
ATOM     21 CL   UNL     1       5.033  -9.008  -1.391  0.00  0.00    -0.084 Cl
ENDBRANCH  14  15
BRANCH   1  22
ATOM     22  S   UNL     1      -0.574  -6.366  -1.019  0.00  0.00    -0.078 S 
BRANCH  22  23
ATOM     23  C   UNL     1      -2.363  -6.093  -1.065  0.00  0.00    +0.173 C 
BRANCH  23  31
ATOM     24  C   UNL     1      -5.386 -12.075  -3.003  0.00  0.00    +0.089 C 
ATOM     25  C   UNL     1      -5.463 -10.627  -2.591  0.00  0.00    +0.136 A 
ATOM     26  C   UNL     1      -4.424  -9.817  -2.285  0.00  0.00    +0.091 A 
ATOM     27  C   UNL     1      -5.039  -8.576  -1.969  0.00  0.00    +0.168 A 
ATOM     28  N   UNL     1      -6.326  -8.761  -2.105  0.00  0.00    -0.063 NA
ATOM     29  O   UNL     1      -6.576  -9.892  -2.455  0.00  0.00    -0.358 OA
ATOM     30  N   UNL     1      -4.398  -7.399  -1.583  0.00  0.00    -0.267 N 
ATOM     31  C   UNL     1      -3.055  -7.365  -1.480  0.00  0.00    +0.229 C 
ATOM     32  O   UNL     1      -2.403  -8.359  -1.722  0.00  0.00    -0.275 OA
ATOM     33  H   UNL     1      -4.989  -6.497  -1.364  0.00  0.00    +0.156 HD
ENDBRANCH  23  31
ENDBRANCH  22  23
ENDBRANCH   1  22
TORSDOF 4
