REMARK  Name = ZINC15517064
REMARK  5 active torsions:
REMARK  status: ('A' for Active; 'I' for Inactive)
REMARK    1  A    between atoms: C_9  and  C_12
REMARK    2  A    between atoms: N_14  and  N_15
REMARK    3  A    between atoms: C_16  and  C_18
REMARK    4  A    between atoms: C_18  and  S_19
REMARK    5  A    between atoms: S_19  and  C_20
REMARK                            x       y       z     vdW  Elec       q    Type
REMARK                         _______ _______ _______ _____ _____    ______ ____
ROOT
ATOM      1  C   UNL     1      -1.209   7.309   0.082  0.00  0.00    +0.273 C 
ATOM      2  O   UNL     1      -0.244   7.734   0.681  0.00  0.00    -0.270 OA
ATOM      3  N   UNL     1      -2.228   8.135  -0.228  0.00  0.00    -0.231 N 
ATOM      4  H   UNL     1      -3.000   7.795  -0.707  0.00  0.00    +0.173 HD
ENDROOT
BRANCH   1  13
ATOM      5  C   UNL     1      -0.013   1.076   0.008  0.00  0.00    +0.004 A 
ATOM      6  C   UNL     1       1.176   1.782   0.000  0.00  0.00    +0.004 A 
ATOM      7  C   UNL     1       1.161   3.164   0.009  0.00  0.00    +0.049 A 
ATOM      8  C   UNL     1      -0.046   3.846   0.026  0.00  0.00    +0.163 A 
ATOM      9  C   UNL     1      -1.241   3.136   0.031  0.00  0.00    +0.162 A 
ATOM     10  C   UNL     1      -1.219   1.749   0.017  0.00  0.00    +0.049 A 
ATOM     11  O   UNL     1      -2.437   3.785   0.043  0.00  0.00    -0.484 OA
ATOM     12  C   UNL     1      -2.417   5.163   0.432  0.00  0.00    +0.283 C 
ATOM     13  C   UNL     1      -1.270   5.856  -0.315  0.00  0.00    +0.297 C 
ATOM     14  O   UNL     1      -0.045   5.207   0.043  0.00  0.00    -0.472 OA
ENDBRANCH   1  13
BRANCH   3  15
ATOM     15  N   UNL     1      -2.172   9.486   0.141  0.00  0.00    -0.234 N 
ATOM     16  C   UNL     1      -3.190  10.312  -0.169  0.00  0.00    +0.239 C 
ATOM     17  O   UNL     1      -4.155   9.887  -0.768  0.00  0.00    -0.273 OA
ATOM     18  H   UNL     1      -1.400   9.826   0.620  0.00  0.00    +0.173 HD
BRANCH  16  19
ATOM     19  C   UNL     1      -3.130  11.764   0.228  0.00  0.00    +0.171 C 
BRANCH  19  20
ATOM     20  S   UNL     1      -4.638  12.606  -0.328  0.00  0.00    -0.116 S 
BRANCH  20  21
ATOM     21  C   UNL     1      -4.417  14.271   0.205  0.00  0.00    +0.008 A 
ATOM     22  C   UNL     1      -3.265  14.636   0.890  0.00  0.00    +0.016 A 
ATOM     23  C   UNL     1      -3.093  15.943   1.302  0.00  0.00    +0.016 A 
ATOM     24  C   UNL     1      -4.071  16.886   1.042  0.00  0.00    +0.018 A 
ATOM     25  C   UNL     1      -5.222  16.525   0.364  0.00  0.00    +0.016 A 
ATOM     26  C   UNL     1      -5.397  15.221  -0.055  0.00  0.00    +0.016 A 
ATOM     27 BR   UNL     1      -3.834  18.673   1.614  0.00  0.00    -0.050 Br
ENDBRANCH  20  21
ENDBRANCH  19  20
ENDBRANCH  16  19
ENDBRANCH   3  15
TORSDOF 5
