REMARK  Name = ZINC66080665
REMARK  6 active torsions:
REMARK  status: ('A' for Active; 'I' for Inactive)
REMARK    1  A    between atoms: C_3  and  O_25
REMARK    2  A    between atoms: C_4  and  C_12
REMARK    3  A    between atoms: C_12  and  N_13
REMARK    4  A    between atoms: C_17  and  C_20
REMARK    5  A    between atoms: C_20  and  C_21
REMARK    6  A    between atoms: C_21  and  C_22
REMARK                            x       y       z     vdW  Elec       q    Type
REMARK                         _______ _______ _______ _____ _____    ______ ____
ROOT
ATOM      1  C   UNL     1       3.770  -0.646  -0.039  0.00  0.00    -0.039 C 
ENDROOT
BRANCH   1   5
ATOM      2  C   UNL     1      -0.017   1.401   0.010  0.00  0.00    +0.012 A 
ATOM      3  C   UNL     1       1.155   2.092   0.002  0.00  0.00    +0.046 A 
ATOM      4  C   UNL     1       2.383   1.424  -0.013  0.00  0.00    +0.119 A 
ATOM      5  C   UNL     1       2.438   0.059  -0.021  0.00  0.00    -0.015 A 
ATOM      6  C   UNL     1       1.246  -0.684  -0.013  0.00  0.00    -0.013 A 
ATOM      7  C   UNL     1       0.002  -0.004   0.002  0.00  0.00    -0.016 A 
ATOM      8  C   UNL     1      -1.190  -0.749   0.009  0.00  0.00    +0.023 A 
ATOM      9  C   UNL     1      -1.134  -2.109   0.001  0.00  0.00    +0.018 A 
ATOM     10  C   UNL     1       0.090  -2.778  -0.015  0.00  0.00    +0.016 A 
ATOM     11  C   UNL     1       1.263  -2.090  -0.022  0.00  0.00    +0.010 A 
ATOM     12 BR   UNL     1      -2.741  -3.107   0.011  0.00  0.00    -0.050 Br
BRANCH   4  13
ATOM     13  O   UNL     1       3.537   2.141  -0.022  0.00  0.00    -0.507 OA
ATOM     14  H   UNL     1       3.880   2.345   0.860  0.00  0.00    +0.292 HD
ENDBRANCH   4  13
ENDBRANCH   1   5
BRANCH   1  15
ATOM     15  N   UNL     1       4.217  -0.882   1.340  0.00  0.00    +0.383 N 
ATOM     16  C   UNL     1       4.458   0.406   2.002  0.00  0.00    -0.078 C 
ATOM     17  C   UNL     1       4.846   0.167   3.463  0.00  0.00    -0.018 C 
ATOM     18  C   UNL     1       6.119  -0.682   3.516  0.00  0.00    -0.000 C 
ATOM     19  C   UNL     1       5.879  -1.991   2.759  0.00  0.00    -0.027 C 
ATOM     20  C   UNL     1       5.453  -1.673   1.324  0.00  0.00    -0.075 C 
ATOM     21  H   UNL     1       3.502  -1.388   1.843  0.00  0.00    -0.081 HD
BRANCH  19  22
ATOM     22  C   UNL     1       7.169  -2.813   2.739  0.00  0.00    +0.011 C 
BRANCH  22  23
ATOM     23  C   UNL     1       7.529  -3.232   4.166  0.00  0.00    +0.096 C 
BRANCH  23  24
ATOM     24  C   UNL     1       8.800  -4.042   4.147  0.00  0.00    +0.210 C 
ATOM     25  O   UNL     1       9.362  -4.263   3.095  0.00  0.00    -0.276 OA
ATOM     26  N   UNL     1       9.311  -4.521   5.298  0.00  0.00    -0.329 N 
ATOM     27  H   UNL     1       8.861  -4.345   6.139  0.00  0.00    +0.145 HD
ATOM     28  H   UNL     1      10.129  -5.043   5.286  0.00  0.00    +0.145 HD
ENDBRANCH  23  24
ENDBRANCH  22  23
ENDBRANCH  19  22
ENDBRANCH   1  15
TORSDOF 6
