REMARK  Name = ZINC57838042
REMARK  7 active torsions:
REMARK  status: ('A' for Active; 'I' for Inactive)
REMARK    1  A    between atoms: C_1  and  C_2
REMARK    2  A    between atoms: C_5  and  C_7
REMARK    3  A    between atoms: N_9  and  C_10
REMARK    4  A    between atoms: C_10  and  C_12
REMARK    5  A    between atoms: C_10  and  C_23
REMARK    6  A    between atoms: C_23  and  C_24
REMARK    7  A    between atoms: C_23  and  C_25
REMARK                            x       y       z     vdW  Elec       q    Type
REMARK                         _______ _______ _______ _____ _____    ______ ____
ROOT
ATOM      1  C   UNL     1       2.984  -5.457  -0.043  0.00  0.00    +0.106 C 
ENDROOT
BRANCH   1   2
ATOM      2  C   UNL     1       4.368  -5.422   0.551  0.00  0.00    -0.023 A 
ATOM      3  C   UNL     1       5.215  -4.367   0.264  0.00  0.00    +0.009 A 
ATOM      4  C   UNL     1       6.487  -4.327   0.806  0.00  0.00    +0.050 A 
ATOM      5  C   UNL     1       6.910  -5.349   1.639  0.00  0.00    +0.162 A 
ATOM      6  C   UNL     1       6.060  -6.407   1.928  0.00  0.00    +0.162 A 
ATOM      7  C   UNL     1       4.786  -6.441   1.388  0.00  0.00    +0.055 A 
ATOM      8  O   UNL     1       6.487  -7.408   2.752  0.00  0.00    -0.488 OA
ATOM      9  C   UNL     1       7.523  -8.245   2.234  0.00  0.00    +0.232 C 
ATOM     10  C   UNL     1       8.889  -7.620   2.471  0.00  0.00    +0.082 C 
ATOM     11  C   UNL     1       9.070  -6.317   1.708  0.00  0.00    +0.232 C 
ATOM     12  O   UNL     1       8.162  -5.321   2.182  0.00  0.00    -0.488 OA
ENDBRANCH   1   2
BRANCH   1  15
ATOM     13  C   UNL     1       1.076  -3.942  -0.025  0.00  0.00    +0.251 C 
ATOM     14  O   UNL     1       0.342  -4.913  -0.028  0.00  0.00    -0.270 OA
ATOM     15  N   UNL     1       2.413  -4.108  -0.033  0.00  0.00    -0.304 N 
ATOM     16  H   UNL     1       2.998  -3.334  -0.031  0.00  0.00    +0.150 HD
BRANCH  13  21
ATOM     17  C   UNL     1      -0.018   1.503   0.010  0.00  0.00    +0.051 C 
ATOM     18  C   UNL     1       0.002  -0.004   0.002  0.00  0.00    -0.013 A 
ATOM     19  C   UNL     1      -1.056  -0.852   0.002  0.00  0.00    +0.011 A 
ATOM     20  C   UNL     1      -0.827  -2.207  -0.007  0.00  0.00    +0.021 A 
ATOM     21  C   UNL     1       0.505  -2.592  -0.015  0.00  0.00    +0.074 A 
ATOM     22  S   UNL     1       1.341  -1.018  -0.017  0.00  0.00    -0.089 S 
ENDBRANCH  13  21
ENDBRANCH   1  15
BRANCH   1  23
ATOM     23  C   UNL     1       3.060  -5.968  -1.483  0.00  0.00    +0.008 C 
ATOM     24  C   UNL     1       3.656  -7.377  -1.494  0.00  0.00    +0.009 C 
ATOM     25  C   UNL     1       1.655  -6.004  -2.087  0.00  0.00    +0.009 C 
ENDBRANCH   1  23
TORSDOF 4
