REMARK  Name = ZINC22851720
REMARK  8 active torsions:
REMARK  status: ('A' for Active; 'I' for Inactive)
REMARK    1  A    between atoms: C_1  and  C_2
REMARK    2  A    between atoms: C_5  and  S_8
REMARK    3  A    between atoms: S_8  and  N_11
REMARK    4  A    between atoms: N_11  and  C_12
REMARK    5  A    between atoms: C_12  and  C_13
REMARK    6  A    between atoms: C_13  and  C_15
REMARK    7  A    between atoms: C_13  and  N_24
REMARK    8  A    between atoms: N_27  and  C_30
REMARK                            x       y       z     vdW  Elec       q    Type
REMARK                         _______ _______ _______ _____ _____    ______ ____
ROOT
ATOM      1  C   UNL     1       0.532   5.338  -1.011  0.00  0.00    +0.102 C 
ENDROOT
BRANCH   1   2
ATOM      2  C   UNL     1       1.945   5.824  -1.210  0.00  0.00    -0.025 A 
ATOM      3  C   UNL     1       2.741   5.248  -2.183  0.00  0.00    +0.009 A 
ATOM      4  C   UNL     1       4.038   5.690  -2.370  0.00  0.00    +0.050 A 
ATOM      5  C   UNL     1       4.543   6.711  -1.582  0.00  0.00    +0.166 A 
ATOM      6  C   UNL     1       3.741   7.291  -0.602  0.00  0.00    +0.167 A 
ATOM      7  C   UNL     1       2.440   6.847  -0.424  0.00  0.00    +0.054 A 
ATOM      8  O   UNL     1       4.460   8.263   0.031  0.00  0.00    -0.453 OA
ATOM      9  C   UNL     1       5.569   8.551  -0.841  0.00  0.00    +0.466 C 
ATOM     10  O   UNL     1       5.764   7.320  -1.562  0.00  0.00    -0.453 OA
ENDBRANCH   1   2
BRANCH   1  11
ATOM     11  N   UNL     1       0.554   4.026  -0.352  0.00  0.00    -0.291 NA
ATOM     12  C   UNL     1       1.428   3.089  -1.071  0.00  0.00    +0.104 C 
ATOM     13  C   UNL     1       1.361   1.715  -0.401  0.00  0.00    +0.120 C 
ATOM     14  N   UNL     1       1.770   1.839   1.005  0.00  0.00    -0.325 N 
ATOM     15  C   UNL     1       0.895   2.775   1.725  0.00  0.00    +0.120 C 
ATOM     16  C   UNL     1       0.963   4.149   1.054  0.00  0.00    +0.104 C 
BRANCH  14  17
ATOM     17  C   UNL     1       1.790   0.589   1.633  0.00  0.00    +0.065 A 
ATOM     18  C   UNL     1       0.628  -0.167   1.716  0.00  0.00    +0.026 A 
ATOM     19  C   UNL     1       0.652  -1.403   2.333  0.00  0.00    +0.002 A 
ATOM     20  C   UNL     1       1.829  -1.884   2.876  0.00  0.00    +0.003 A 
ATOM     21  C   UNL     1       2.988  -1.133   2.800  0.00  0.00    +0.040 A 
ATOM     22  C   UNL     1       2.973   0.103   2.180  0.00  0.00    +0.144 A 
ATOM     23  F   UNL     1       4.104   0.837   2.106  0.00  0.00    -0.204 F 
ENDBRANCH  14  17
ENDBRANCH   1  11
BRANCH   1  24
ATOM     24  C   UNL     1      -0.161   5.216  -2.369  0.00  0.00    +0.129 C 
BRANCH  24  25
ATOM     25  N   UNL     1      -1.506   4.667  -2.183  0.00  0.00    -0.188 NA
ATOM     26  H   UNL     1      -1.730   4.046  -1.303  0.00  0.00    +0.148 HD
BRANCH  25  27
ATOM     27  S   UNL     1      -2.618   4.766  -3.406  0.00  0.00    +0.058 S 
ATOM     28  O   UNL     1      -3.798   4.130  -2.936  0.00  0.00    -0.153 OA
ATOM     29  O   UNL     1      -2.607   6.114  -3.857  0.00  0.00    -0.153 OA
BRANCH  27  34
ATOM     30  C   UNL     1      -0.553   1.406  -7.972  0.00  0.00    +0.044 C 
ATOM     31  C   UNL     1      -1.069   2.245  -6.832  0.00  0.00    -0.050 A 
ATOM     32  C   UNL     1      -1.877   1.676  -5.866  0.00  0.00    +0.005 A 
ATOM     33  C   UNL     1      -2.351   2.446  -4.820  0.00  0.00    +0.029 A 
ATOM     34  C   UNL     1      -2.015   3.785  -4.740  0.00  0.00    +0.105 A 
ATOM     35  C   UNL     1      -1.210   4.355  -5.709  0.00  0.00    +0.029 A 
ATOM     36  C   UNL     1      -0.733   3.584  -6.752  0.00  0.00    +0.005 A 
ENDBRANCH  27  34
ENDBRANCH  25  27
ENDBRANCH  24  25
ENDBRANCH   1  24
TORSDOF 7
