REMARK  Name = ZINC39227928
REMARK  5 active torsions:
REMARK  status: ('A' for Active; 'I' for Inactive)
REMARK    1  A    between atoms: C_1  and  N_2
REMARK    2  A    between atoms: N_2  and  C_3
REMARK    3  A    between atoms: C_3  and  C_4
REMARK    4  A    between atoms: C_10  and  C_12
REMARK    5  A    between atoms: C_14  and  O_39
REMARK                            x       y       z     vdW  Elec       q    Type
REMARK                         _______ _______ _______ _____ _____    ______ ____
ROOT
ATOM      1  C   UNL     1      -0.023   0.089  -2.470  0.00  0.00    +0.107 C 
ATOM      2  C   UNL     1       1.216   0.984  -2.561  0.00  0.00    +0.127 C 
ATOM      3  C   UNL     1       1.203   1.751  -3.884  0.00  0.00    +0.032 C 
ATOM      4  C   UNL     1       1.192   0.763  -5.054  0.00  0.00    +0.004 C 
ATOM      5  C   UNL     1      -0.053  -0.118  -4.955  0.00  0.00    -0.024 C 
ATOM      6  C   UNL     1      -0.017  -0.897  -3.638  0.00  0.00    +0.004 C 
ATOM      7  C   UNL     1      -1.238  -1.816  -3.560  0.00  0.00    -0.005 C 
ATOM      8  C   UNL     1      -1.236  -2.738  -4.782  0.00  0.00    -0.020 C 
ATOM      9  C   UNL     1      -2.429  -3.659  -4.737  0.00  0.00    +0.006 A 
ATOM     10  H   UNL     1      -2.578  -4.265  -2.750  0.00  0.00    +0.166 HD
ATOM     11  C   UNL     1      -3.168  -3.950  -5.833  0.00  0.00    -0.022 A 
ATOM     12  C   UNL     1      -4.216  -4.852  -5.414  0.00  0.00    +0.003 A 
ATOM     13  C   UNL     1      -5.262  -5.479  -6.098  0.00  0.00    +0.010 A 
ATOM     14  C   UNL     1      -6.088  -6.292  -5.362  0.00  0.00    +0.001 A 
ATOM     15  C   UNL     1      -5.905  -6.491  -4.003  0.00  0.00    +0.002 A 
ATOM     16  C   UNL     1      -4.879  -5.883  -3.300  0.00  0.00    +0.026 A 
ATOM     17  C   UNL     1      -4.025  -5.053  -4.021  0.00  0.00    +0.047 A 
ATOM     18  N   UNL     1      -2.936  -4.315  -3.650  0.00  0.00    -0.359 N 
ATOM     19  C   UNL     1      -2.876  -3.389  -7.202  0.00  0.00    +0.019 C 
ATOM     20  C   UNL     1      -1.461  -2.793  -7.181  0.00  0.00    -0.073 C 
ATOM     21  N   UNL     1      -1.309  -1.929  -6.006  0.00  0.00    +0.386 N 
ATOM     22  C   UNL     1      -0.097  -1.105  -6.123  0.00  0.00    -0.074 C 
ATOM     23  H   UNL     1      -2.110  -1.318  -5.947  0.00  0.00    -0.081 HD
ENDROOT
BRANCH   1  26
ATOM     24  C   UNL     1      -0.018   1.461   0.010  0.00  0.00    +0.132 C 
ATOM     25  N   UNL     1       0.002  -0.004   0.002  0.00  0.00    -0.300 N 
ATOM     26  C   UNL     1       0.000  -0.672  -1.169  0.00  0.00    +0.221 C 
ATOM     27  O   UNL     1       0.017  -1.884  -1.175  0.00  0.00    -0.275 OA
BRANCH  25  28
ATOM     28  C   UNL     1       0.024  -0.743   1.267  0.00  0.00    +0.142 C 
BRANCH  28  29
ATOM     29  C   UNL     1      -1.389  -1.016   1.714  0.00  0.00    -0.030 A 
ATOM     30  C   UNL     1      -2.047  -0.105   2.518  0.00  0.00    +0.005 A 
ATOM     31  C   UNL     1      -3.344  -0.355   2.929  0.00  0.00    +0.000 A 
ATOM     32  C   UNL     1      -3.981  -1.516   2.534  0.00  0.00    +0.000 A 
ATOM     33  C   UNL     1      -3.323  -2.427   1.728  0.00  0.00    +0.000 A 
ATOM     34  C   UNL     1      -2.029  -2.175   1.315  0.00  0.00    +0.005 A 
ENDBRANCH  28  29
ENDBRANCH  25  28
ENDBRANCH   1  26
BRANCH   2  35
ATOM     35  O   UNL     1       2.393   0.177  -2.492  0.00  0.00    -0.391 OA
ATOM     36  H   UNL     1       3.218   0.678  -2.543  0.00  0.00    +0.210 HD
ENDBRANCH   2  35
TORSDOF 4
