REMARK  Name = ZINC63174748
REMARK  5 active torsions:
REMARK  status: ('A' for Active; 'I' for Inactive)
REMARK    1  A    between atoms: C_3  and  S_11
REMARK    2  A    between atoms: C_6  and  N_7
REMARK    3  A    between atoms: S_11  and  N_14
REMARK    4  A    between atoms: N_14  and  C_15
REMARK    5  A    between atoms: C_20  and  N_22
REMARK                            x       y       z     vdW  Elec       q    Type
REMARK                         _______ _______ _______ _____ _____    ______ ____
ROOT
ATOM      1  S   UNL     1       3.971   2.340  -0.056  0.00  0.00    +0.060 S 
ATOM      2  O   UNL     1       4.937   1.864  -0.982  0.00  0.00    -0.153 OA
ATOM      3  O   UNL     1       3.486   3.675  -0.080  0.00  0.00    -0.153 OA
ENDROOT
BRANCH   1   6
ATOM      4  C   UNL     1       1.459  -0.553  -1.264  0.00  0.00    +0.035 A 
ATOM      5  C   UNL     1       2.562   0.271  -1.143  0.00  0.00    +0.032 A 
ATOM      6  C   UNL     1       2.565   1.290  -0.210  0.00  0.00    +0.124 A 
ATOM      7  C   UNL     1       1.463   1.485   0.604  0.00  0.00    +0.069 A 
ATOM      8  C   UNL     1       0.359   0.660   0.482  0.00  0.00    +0.054 A 
ATOM      9  C   UNL     1       0.358  -0.359  -0.452  0.00  0.00    +0.128 A 
ATOM     10 CL   UNL     1       1.465   2.764   1.777  0.00  0.00    -0.081 Cl
BRANCH   9  11
ATOM     11  N   UNL     1      -0.823  -1.242  -0.582  0.00  0.00    +0.056 N 
ATOM     12  O   UNL     1      -0.825  -2.132  -1.400  0.00  0.00    -0.126 OA
ATOM     13  O   UNL     1      -1.786  -1.072   0.128  0.00  0.00    -0.126 OA
ENDBRANCH   9  11
ENDBRANCH   1   6
BRANCH   1  14
ATOM     14  N   UNL     1       4.603   2.094   1.455  0.00  0.00    -0.188 NA
ATOM     15  H   UNL     1       4.607   2.816   2.103  0.00  0.00    +0.148 HD
BRANCH  14  16
ATOM     16  C   UNL     1       5.155   0.785   1.814  0.00  0.00    +0.062 C 
ATOM     17  C   UNL     1       6.691   0.801   1.667  0.00  0.00    +0.019 C 
ATOM     18  C   UNL     1       7.205   1.108   3.095  0.00  0.00    -0.000 C 
ATOM     19  C   UNL     1       6.223   0.312   3.991  0.00  0.00    -0.015 C 
ATOM     20  C   UNL     1       4.857   0.473   3.291  0.00  0.00    -0.056 C 
BRANCH  20  21
ATOM     21  N   UNL     1       4.086  -0.773   3.397  0.00  0.00    +0.381 N 
ATOM     22  H   UNL     1       4.618  -1.532   2.998  0.00  0.00    -0.090 HD
ATOM     23  H   UNL     1       3.896  -0.969   4.368  0.00  0.00    -0.090 HD
ATOM     24  H   UNL     1       3.216  -0.673   2.896  0.00  0.00    -0.090 HD
ENDBRANCH  20  21
ENDBRANCH  14  16
ENDBRANCH   1  14
TORSDOF 5
