REMARK  Name = ZINC12771989
REMARK  7 active torsions:
REMARK  status: ('A' for Active; 'I' for Inactive)
REMARK    1  A    between atoms: C_1  and  C_2
REMARK    2  A    between atoms: C_2  and  O_3
REMARK    3  A    between atoms: O_3  and  C_4
REMARK    4  A    between atoms: C_9  and  S_10
REMARK    5  A    between atoms: S_10  and  N_13
REMARK    6  A    between atoms: C_20  and  C_26
REMARK    7  A    between atoms: C_23  and  C_25
REMARK                            x       y       z     vdW  Elec       q    Type
REMARK                         _______ _______ _______ _____ _____    ______ ____
ROOT
ATOM      1  N   UNL     1       4.686  -0.626  -1.574  0.00  0.00    -0.200 N 
ATOM      2  C   UNL     1       4.312  -1.446  -2.645  0.00  0.00    +0.055 A 
ATOM      3  C   UNL     1       3.234  -2.310  -2.492  0.00  0.00    +0.025 A 
ATOM      4  C   UNL     1       2.852  -3.129  -3.535  0.00  0.00    +0.002 A 
ATOM      5  C   UNL     1       3.543  -3.089  -4.732  0.00  0.00    +0.000 A 
ATOM      6  C   UNL     1       4.604  -2.224  -4.890  0.00  0.00    +0.006 A 
ATOM      7  C   UNL     1       4.997  -1.401  -3.848  0.00  0.00    -0.013 A 
ATOM      8  C   UNL     1       6.170  -0.479  -4.051  0.00  0.00    +0.108 C 
ATOM      9  C   UNL     1       6.755  -0.051  -2.705  0.00  0.00    +0.041 C 
ATOM     10  C   UNL     1       5.620   0.480  -1.819  0.00  0.00    +0.096 C 
ATOM     11  C   UNL     1       4.896   1.622  -2.534  0.00  0.00    +0.030 C 
ENDROOT
BRANCH   8  12
ATOM     12  C   UNL     1       7.231  -1.192  -4.849  0.00  0.00    +0.218 C 
ATOM     13  O   UNL     1       8.137  -1.763  -4.280  0.00  0.00    -0.275 OA
ATOM     14  N   UNL     1       7.172  -1.197  -6.196  0.00  0.00    -0.329 N 
ATOM     15  H   UNL     1       6.489  -0.681  -6.653  0.00  0.00    +0.145 HD
ATOM     16  H   UNL     1       7.812  -1.716  -6.707  0.00  0.00    +0.145 HD
ENDBRANCH   8  12
BRANCH   1  17
ATOM     17  S   UNL     1       4.089  -0.903  -0.054  0.00  0.00    +0.078 S 
ATOM     18  O   UNL     1       4.921  -0.186   0.846  0.00  0.00    -0.150 OA
ATOM     19  O   UNL     1       3.882  -2.305   0.051  0.00  0.00    -0.150 OA
BRANCH  17  25
ATOM     20  C   UNL     1       2.381   1.229   0.037  0.00  0.00    +0.147 A 
ATOM     21  C   UNL     1       1.126   1.818   0.098  0.00  0.00    +0.049 A 
ATOM     22  C   UNL     1      -0.005   1.027   0.148  0.00  0.00    +0.019 A 
ATOM     23  C   UNL     1       0.113  -0.352   0.137  0.00  0.00    +0.020 A 
ATOM     24  C   UNL     1       1.363  -0.941   0.075  0.00  0.00    +0.047 A 
ATOM     25  C   UNL     1       2.497  -0.153   0.025  0.00  0.00    +0.151 A 
ATOM     26 BR   UNL     1      -1.438  -1.432   0.206  0.00  0.00    -0.050 Br
BRANCH  20  27
ATOM     27  O   UNL     1       3.495   2.006  -0.012  0.00  0.00    -0.490 OA
BRANCH  27  29
ATOM     28  C   UNL     1       4.658   4.124  -0.058  0.00  0.00    +0.048 C 
ATOM     29  C   UNL     1       3.300   3.422   0.003  0.00  0.00    +0.226 C 
ENDBRANCH  27  29
ENDBRANCH  20  27
ENDBRANCH  17  25
ENDBRANCH   1  17
TORSDOF 5
