REMARK  Name = ZINC39939843
REMARK  4 active torsions:
REMARK  status: ('A' for Active; 'I' for Inactive)
REMARK    1  A    between atoms: C_4  and  N_16
REMARK    2  A    between atoms: C_5  and  C_7
REMARK    3  A    between atoms: N_19  and  C_20
REMARK    4  A    between atoms: C_25  and  S_26
REMARK                            x       y       z     vdW  Elec       q    Type
REMARK                         _______ _______ _______ _____ _____    ______ ____
ROOT
ATOM      1  C   UNL     1      -0.016   1.376  -0.002  0.00  0.00    +0.000 A 
ATOM      2  C   UNL     1       1.171   2.085  -0.019  0.00  0.00    +0.002 A 
ATOM      3  C   UNL     1       2.378   1.413  -0.025  0.00  0.00    +0.024 A 
ATOM      4  C   UNL     1       2.398   0.025  -0.015  0.00  0.00    +0.040 A 
ATOM      5  C   UNL     1       1.204  -0.684   0.002  0.00  0.00    +0.006 A 
ATOM      6  C   UNL     1       0.001  -0.006   0.008  0.00  0.00    +0.008 A 
ENDROOT
BRANCH   5   7
ATOM      7  C   UNL     1       1.222  -2.191   0.013  0.00  0.00    +0.214 C 
ATOM      8  C   UNL     1       1.453  -2.648   1.441  0.00  0.00    +0.247 C 
ATOM      9  O   UNL     1       2.436  -2.314   2.068  0.00  0.00    -0.273 OA
ATOM     10  N   UNL     1       0.502  -3.450   1.979  0.00  0.00    -0.263 N 
ATOM     11  C   UNL     1      -0.571  -3.796   1.251  0.00  0.00    +0.178 C 
ATOM     12  S   UNL     1      -1.743  -4.810   1.978  0.00  0.00    -0.015 S 
ATOM     13  N   UNL     1      -0.782  -3.397  -0.007  0.00  0.00    -0.123 NA
ATOM     14  N   UNL     1      -0.011  -2.666  -0.638  0.00  0.00    -0.299 N 
ATOM     15  H   UNL     1       0.597  -3.773   2.889  0.00  0.00    +0.157 HD
ATOM     16  H   UNL     1      -0.216  -2.408  -1.550  0.00  0.00    +0.181 HD
ENDBRANCH   5   7
BRANCH   4  17
ATOM     17  N   UNL     1       3.619  -0.659  -0.023  0.00  0.00    -0.269 N 
ATOM     18  C   UNL     1       4.730  -0.060   0.451  0.00  0.00    +0.308 C 
ATOM     19  O   UNL     1       4.653   1.033   0.979  0.00  0.00    -0.252 OA
ATOM     20  N   UNL     1       5.925  -0.673   0.341  0.00  0.00    -0.268 N 
ATOM     21  H   UNL     1       3.666  -1.564  -0.369  0.00  0.00    +0.156 HD
ATOM     22  H   UNL     1       6.000  -1.505  -0.151  0.00  0.00    +0.156 HD
BRANCH  20  23
ATOM     23  C   UNL     1       7.061  -0.106   0.936  0.00  0.00    +0.048 A 
ATOM     24  C   UNL     1       6.925   0.742   2.024  0.00  0.00    +0.024 A 
ATOM     25  C   UNL     1       8.046   1.300   2.610  0.00  0.00    +0.002 A 
ATOM     26  C   UNL     1       9.305   1.014   2.115  0.00  0.00    +0.001 A 
ATOM     27  C   UNL     1       9.450   0.169   1.032  0.00  0.00    +0.016 A 
ATOM     28  C   UNL     1       8.331  -0.400   0.440  0.00  0.00    +0.026 A 
BRANCH  28  29
ATOM     29  S   UNL     1       8.513  -1.483  -0.937  0.00  0.00    -0.141 S 
ATOM     30  H   UNL     1       8.465  -0.665  -2.003  0.00  0.00    +0.107 HD
ENDBRANCH  28  29
ENDBRANCH  20  23
ENDBRANCH   4  17
TORSDOF 4
