REMARK  Name = ZINC36541457
REMARK  15 active torsions:
REMARK  status: ('A' for Active; 'I' for Inactive)
REMARK    1  A    between atoms: C_1  and  C_2
REMARK    2  A    between atoms: C_2  and  C_3
REMARK    3  A    between atoms: C_2  and  C_4
REMARK    4  A    between atoms: C_2  and  N_5
REMARK    5  A    between atoms: C_6  and  C_8
REMARK    6  A    between atoms: C_8  and  C_10
REMARK    7  A    between atoms: C_8  and  N_19
REMARK    8  A    between atoms: C_13  and  O_18
REMARK    9  A    between atoms: C_14  and  O_16
REMARK   10  A    between atoms: O_16  and  C_17
REMARK   11  A    between atoms: N_19  and  C_20
REMARK   12  A    between atoms: C_27  and  C_29
REMARK   13  A    between atoms: C_29  and  C_31
REMARK   14  A    between atoms: C_29  and  O_37
REMARK   15  A    between atoms: O_37  and  C_38
REMARK                            x       y       z     vdW  Elec       q    Type
REMARK                         _______ _______ _______ _____ _____    ______ ____
ROOT
ATOM      1  C   UNL     1       2.760  -0.873  -2.695  0.00  0.00    +0.197 C 
ENDROOT
BRANCH   1   2
ATOM      2  C   UNL     1       2.687  -2.277  -3.237  0.00  0.00    -0.014 A 
ATOM      3  C   UNL     1       3.581  -3.235  -2.795  0.00  0.00    +0.010 A 
ATOM      4  C   UNL     1       3.518  -4.524  -3.289  0.00  0.00    +0.049 A 
ATOM      5  C   UNL     1       2.557  -4.860  -4.229  0.00  0.00    +0.158 A 
ATOM      6  C   UNL     1       1.656  -3.897  -4.673  0.00  0.00    +0.162 A 
ATOM      7  C   UNL     1       1.722  -2.607  -4.171  0.00  0.00    +0.055 A 
BRANCH   6   8
ATOM      8  O   UNL     1       0.711  -4.221  -5.596  0.00  0.00    -0.491 OA
ATOM      9  C   UNL     1      -0.179  -3.181  -6.006  0.00  0.00    +0.277 C 
ENDBRANCH   6   8
BRANCH   5  10
ATOM     10  O   UNL     1       2.493  -6.128  -4.716  0.00  0.00    -0.503 OA
ATOM     11  H   UNL     1       1.918  -6.716  -4.208  0.00  0.00    +0.292 HD
ENDBRANCH   5  10
ENDBRANCH   1   2
BRANCH   1  13
ATOM     12  N   UNL     1       1.007  -0.402  -1.015  0.00  0.00    -0.309 N 
ATOM     13  C   UNL     1       2.249  -0.854  -1.278  0.00  0.00    +0.239 C 
ATOM     14  O   UNL     1       2.955  -1.246  -0.373  0.00  0.00    -0.273 OA
ATOM     15  H   UNL     1       0.442  -0.088  -1.739  0.00  0.00    +0.149 HD
BRANCH  12  17
ATOM     16  C   UNL     1       1.415   0.504   1.220  0.00  0.00    +0.031 C 
ATOM     17  C   UNL     1       0.510  -0.383   0.363  0.00  0.00    +0.026 C 
ATOM     18  C   UNL     1       0.511  -1.806   0.924  0.00  0.00    +0.031 C 
ATOM     19  C   UNL     1      -0.916   0.172   0.384  0.00  0.00    +0.031 C 
ENDBRANCH  12  17
ENDBRANCH   1  13
BRANCH   1  20
ATOM     20  N   UNL     1       4.150  -0.412  -2.719  0.00  0.00    -0.252 N 
ATOM     21  C   UNL     1       4.810  -0.321  -3.891  0.00  0.00    +0.254 C 
ATOM     22  O   UNL     1       4.232  -0.553  -4.932  0.00  0.00    -0.272 OA
BRANCH  20  23
ATOM     23  C   UNL     1       4.794  -0.067  -1.525  0.00  0.00    +0.056 A 
ATOM     24  C   UNL     1       5.530  -1.018  -0.832  0.00  0.00    +0.025 A 
ATOM     25  C   UNL     1       6.164  -0.674   0.346  0.00  0.00    +0.002 A 
ATOM     26  C   UNL     1       6.066   0.615   0.836  0.00  0.00    +0.002 A 
ATOM     27  C   UNL     1       5.333   1.565   0.149  0.00  0.00    +0.022 A 
ATOM     28  C   UNL     1       4.702   1.230  -1.034  0.00  0.00    +0.062 A 
ATOM     29 CL   UNL     1       3.788   2.425  -1.901  0.00  0.00    -0.082 Cl
ENDBRANCH  20  23
BRANCH  21  30
ATOM     30  C   UNL     1       6.265   0.070  -3.908  0.00  0.00    +0.234 C 
BRANCH  30  31
ATOM     31  C   UNL     1       6.384   1.570  -3.827  0.00  0.00    -0.010 A 
ATOM     32  C   UNL     1       6.087   2.348  -4.930  0.00  0.00    +0.006 A 
ATOM     33  C   UNL     1       6.196   3.724  -4.855  0.00  0.00    +0.000 A 
ATOM     34  C   UNL     1       6.601   4.322  -3.677  0.00  0.00    +0.000 A 
ATOM     35  C   UNL     1       6.896   3.544  -2.573  0.00  0.00    +0.000 A 
ATOM     36  C   UNL     1       6.784   2.168  -2.647  0.00  0.00    +0.006 A 
ENDBRANCH  30  31
BRANCH  30  37
ATOM     37  O   UNL     1       6.868  -0.390  -5.120  0.00  0.00    -0.366 OA
ATOM     38  C   UNL     1       7.422  -1.704  -5.030  0.00  0.00    +0.195 C 
ENDBRANCH  30  37
ENDBRANCH  21  30
ENDBRANCH   1  20
TORSDOF 10
