REMARK  Name = ZINC41078173
REMARK  10 active torsions:
REMARK  status: ('A' for Active; 'I' for Inactive)
REMARK    1  A    between atoms: C_1  and  C_2
REMARK    2  A    between atoms: C_6  and  C_8
REMARK    3  A    between atoms: C_14  and  C_18
REMARK    4  A    between atoms: C_18  and  N_19
REMARK    5  A    between atoms: C_20  and  C_22
REMARK    6  A    between atoms: C_22  and  O_23
REMARK    7  A    between atoms: O_23  and  C_24
REMARK    8  A    between atoms: C_29  and  C_30
REMARK    9  A    between atoms: C_30  and  C_31
REMARK   10  A    between atoms: C_30  and  C_32
REMARK                            x       y       z     vdW  Elec       q    Type
REMARK                         _______ _______ _______ _____ _____    ______ ____
ROOT
ATOM      1  C   UNL     1       0.054  -2.845   2.459  0.00  0.00    +0.132 A 
ATOM      2  N   UNL     1       0.078  -4.138   2.651  0.00  0.00    -0.154 NA
ATOM      3  N   UNL     1       0.091  -4.681   3.932  0.00  0.00    -0.171 N 
ATOM      4  C   UNL     1       0.116  -6.005   4.267  0.00  0.00    +0.275 A 
ATOM      5  O   UNL     1       0.130  -6.857   3.392  0.00  0.00    -0.266 OA
ATOM      6  C   UNL     1       0.125  -6.383   5.610  0.00  0.00    +0.097 A 
ATOM      7  C   UNL     1       0.109  -5.416   6.592  0.00  0.00    +0.066 A 
ATOM      8  N   UNL     1       0.085  -4.135   6.232  0.00  0.00    -0.225 NA
ATOM      9  C   UNL     1       0.076  -3.789   4.970  0.00  0.00    +0.199 A 
ATOM     10  S   UNL     1       0.054  -2.219   4.131  0.00  0.00    -0.028 S 
ENDROOT
BRANCH   1  16
ATOM     11  C   UNL     1      -0.018   1.503   0.010  0.00  0.00    +0.044 C 
ATOM     12  C   UNL     1       0.002  -0.004   0.002  0.00  0.00    -0.050 A 
ATOM     13  C   UNL     1       0.006  -0.688  -1.201  0.00  0.00    +0.003 A 
ATOM     14  C   UNL     1       0.025  -2.071  -1.217  0.00  0.00    +0.001 A 
ATOM     15  C   UNL     1       0.041  -2.777  -0.031  0.00  0.00    +0.010 A 
ATOM     16  C   UNL     1       0.037  -2.094   1.184  0.00  0.00    +0.009 A 
ATOM     17  C   UNL     1       0.023  -0.699   1.194  0.00  0.00    +0.014 A 
ENDBRANCH   1  16
BRANCH   7  18
ATOM     18  C   UNL     1       0.119  -5.803   8.049  0.00  0.00    +0.160 C 
BRANCH  18  19
ATOM     19  N   UNL     1       1.363  -5.342   8.669  0.00  0.00    -0.307 N 
ATOM     20  C   UNL     1       1.593  -5.577   9.976  0.00  0.00    +0.251 C 
ATOM     21  O   UNL     1       0.769  -6.171  10.639  0.00  0.00    -0.272 OA
ATOM     22  H   UNL     1       2.022  -4.867   8.138  0.00  0.00    +0.149 HD
BRANCH  20  23
ATOM     23  C   UNL     1       2.873  -5.103  10.613  0.00  0.00    +0.324 C 
BRANCH  23  24
ATOM     24  O   UNL     1       2.882  -5.470  11.994  0.00  0.00    -0.482 OA
BRANCH  24  25
ATOM     25  C   UNL     1       3.975  -5.114  12.720  0.00  0.00    +0.125 A 
ATOM     26  C   UNL     1       5.014  -4.420  12.117  0.00  0.00    +0.046 A 
ATOM     27  C   UNL     1       6.123  -4.059  12.857  0.00  0.00    +0.004 A 
ATOM     28  C   UNL     1       6.198  -4.388  14.198  0.00  0.00    +0.001 A 
ATOM     29  C   UNL     1       5.164  -5.079  14.801  0.00  0.00    +0.007 A 
ATOM     30  C   UNL     1       4.050  -5.438  14.067  0.00  0.00    -0.003 A 
BRANCH  30  31
ATOM     31  C   UNL     1       2.920  -6.186  14.726  0.00  0.00    +0.016 C 
ATOM     32  C   UNL     1       3.443  -7.511  15.285  0.00  0.00    +0.012 C 
ATOM     33  C   UNL     1       2.348  -5.342  15.868  0.00  0.00    +0.012 C 
ENDBRANCH  30  31
ENDBRANCH  24  25
ENDBRANCH  23  24
ENDBRANCH  20  23
ENDBRANCH  18  19
ENDBRANCH   7  18
TORSDOF 7
