REMARK  Name = ZINC49646567
REMARK  3 active torsions:
REMARK  status: ('A' for Active; 'I' for Inactive)
REMARK    1  A    between atoms: C_7  and  N_12
REMARK    2  A    between atoms: N_12  and  S_13
REMARK    3  A    between atoms: S_13  and  C_16
REMARK                            x       y       z     vdW  Elec       q    Type
REMARK                         _______ _______ _______ _____ _____    ______ ____
ROOT
ATOM      1  N   UNL     1       0.684  -2.599   0.248  0.00  0.00    -0.193 NA
ATOM      2  H   UNL     1       0.999  -1.993  -0.441  0.00  0.00    +0.148 HD
ENDROOT
BRANCH   1   9
ATOM      3  C   UNL     1      -0.938   1.307   0.497  0.00  0.00    -0.003 C 
ATOM      4  C   UNL     1       0.345   2.086   0.787  0.00  0.00    -0.019 C 
ATOM      5  C   UNL     1       1.088   1.484   1.990  0.00  0.00    -0.078 C 
ATOM      6  N   UNL     1       1.373   0.089   1.684  0.00  0.00    +0.383 N 
ATOM      7  C   UNL     1       2.125  -0.640   2.717  0.00  0.00    -0.077 C 
ATOM      8  C   UNL     1       1.836  -2.130   2.391  0.00  0.00    +0.000 C 
ATOM      9  C   UNL     1       0.493  -2.116   1.617  0.00  0.00    +0.061 C 
ATOM     10  C   UNL     1       0.079  -0.641   1.617  0.00  0.00    -0.050 C 
ATOM     11  C   UNL     1      -0.636  -0.194   0.350  0.00  0.00    -0.014 C 
ATOM     12  H   UNL     1       1.850   0.023   0.797  0.00  0.00    -0.081 HD
ENDBRANCH   1   9
BRANCH   1  13
ATOM     13  S   UNL     1       0.360  -4.180  -0.125  0.00  0.00    +0.031 S 
ATOM     14  O   UNL     1      -0.939  -4.418   0.400  0.00  0.00    -0.158 OA
ATOM     15  O   UNL     1       0.608  -4.281  -1.521  0.00  0.00    -0.158 OA
BRANCH  13  16
ATOM     16  C   UNL     1       1.593  -5.138   0.799  0.00  0.00    +0.131 C 
ATOM     17  C   UNL     1       2.998  -4.756   0.325  0.00  0.00    +0.024 C 
ATOM     18  C   UNL     1       4.026  -5.626   1.054  0.00  0.00    -0.017 C 
ATOM     19  C   UNL     1       3.709  -7.101   0.800  0.00  0.00    -0.082 C 
ATOM     20  N   UNL     1       2.364  -7.410   1.299  0.00  0.00    +0.380 N 
ATOM     21  C   UNL     1       1.366  -6.632   0.556  0.00  0.00    -0.055 C 
ATOM     22  H   UNL     1       2.179  -8.394   1.179  0.00  0.00    -0.086 HD
ATOM     23  H   UNL     1       2.308  -7.176   2.279  0.00  0.00    -0.086 HD
ENDBRANCH  13  16
ENDBRANCH   1  13
TORSDOF 3
