REMARK  Name = ZINC36032776
REMARK  12 active torsions:
REMARK  status: ('A' for Active; 'I' for Inactive)
REMARK    1  A    between atoms: C_1  and  C_2
REMARK    2  A    between atoms: C_2  and  C_3
REMARK    3  A    between atoms: C_3  and  C_5
REMARK    4  A    between atoms: C_3  and  C_6
REMARK    5  A    between atoms: C_6  and  N_7
REMARK    6  A    between atoms: C_10  and  C_29
REMARK    7  A    between atoms: N_16  and  C_19
REMARK    8  A    between atoms: C_19  and  N_21
REMARK    9  A    between atoms: N_21  and  C_22
REMARK   10  A    between atoms: C_29  and  C_30
REMARK   11  A    between atoms: C_30  and  C_31
REMARK   12  A    between atoms: C_30  and  C_32
REMARK                            x       y       z     vdW  Elec       q    Type
REMARK                         _______ _______ _______ _____ _____    ______ ____
ROOT
ATOM      1  N   UNL     1       1.046  -2.438  -2.329  0.00  0.00    -0.313 N 
ATOM      2  C   UNL     1       0.498  -2.587  -3.553  0.00  0.00    +0.200 C 
ATOM      3  O   UNL     1      -0.618  -2.240  -3.876  0.00  0.00    -0.277 OA
ATOM      4  C   UNL     1       1.511  -3.259  -4.454  0.00  0.00    +0.019 C 
ATOM      5  N   UNL     1       2.807  -3.102  -3.750  0.00  0.00    +0.401 N 
ATOM      6  C   UNL     1       2.408  -2.980  -2.334  0.00  0.00    +0.006 C 
ATOM      7  C   UNL     1       2.431  -4.358  -1.676  0.00  0.00    +0.025 C 
ATOM      8  C   UNL     1       1.980  -4.232  -0.216  0.00  0.00    +0.107 C 
ATOM      9  N   UNL     1       2.813  -3.222   0.449  0.00  0.00    -0.312 N 
ATOM     10  C   UNL     1       2.916  -1.884  -0.149  0.00  0.00    +0.107 C 
ATOM     11  C   UNL     1       3.358  -2.029  -1.609  0.00  0.00    +0.025 C 
ATOM     12  H   UNL     1       3.389  -3.914  -3.890  0.00  0.00    -0.082 HD
ATOM     13  H   UNL     1       3.280  -2.265  -4.057  0.00  0.00    -0.082 HD
ENDROOT
BRANCH   9  14
ATOM     14  C   UNL     1       3.471  -3.516   1.588  0.00  0.00    +0.137 C 
ATOM     15  S   UNL     1       3.242  -5.037   2.340  0.00  0.00    -0.018 S 
BRANCH  14  16
ATOM     16  N   UNL     1       4.310  -2.614   2.135  0.00  0.00    -0.295 N 
ATOM     17  H   UNL     1       5.268  -2.701   2.005  0.00  0.00    +0.154 HD
BRANCH  16  18
ATOM     18  C   UNL     1       3.799  -1.551   2.890  0.00  0.00    +0.068 A 
ATOM     19  C   UNL     1       2.442  -1.487   3.171  0.00  0.00    +0.026 A 
ATOM     20  C   UNL     1       1.940  -0.437   3.917  0.00  0.00    +0.002 A 
ATOM     21  C   UNL     1       2.789   0.549   4.384  0.00  0.00    +0.003 A 
ATOM     22  C   UNL     1       4.143   0.490   4.106  0.00  0.00    +0.040 A 
ATOM     23  C   UNL     1       4.652  -0.561   3.365  0.00  0.00    +0.144 A 
ATOM     24  F   UNL     1       5.975  -0.622   3.098  0.00  0.00    -0.204 F 
ENDBRANCH  16  18
ENDBRANCH  14  16
ENDBRANCH   9  14
BRANCH   1  25
ATOM     25  C   UNL     1       0.385  -1.824  -1.175  0.00  0.00    +0.109 C 
BRANCH  25  26
ATOM     26  C   UNL     1       0.344  -0.305  -1.359  0.00  0.00    +0.003 C 
ATOM     27  C   UNL     1       1.750   0.208  -1.676  0.00  0.00    +0.009 C 
BRANCH  26  29
ATOM     28  C   UNL     1      -0.321   1.856  -0.297  0.00  0.00    +0.004 C 
ATOM     29  C   UNL     1      -0.161   0.351  -0.073  0.00  0.00    +0.001 C 
ENDBRANCH  26  29
ENDBRANCH  25  26
ENDBRANCH   1  25
BRANCH   4  30
ATOM     30  C   UNL     1       1.555  -2.564  -5.817  0.00  0.00    -0.004 C 
BRANCH  30  31
ATOM     31  C   UNL     1       2.519  -3.313  -6.740  0.00  0.00    -0.018 C 
ATOM     32  C   UNL     1       1.974  -4.715  -7.018  0.00  0.00    +0.007 C 
ATOM     33  C   UNL     1       2.658  -2.549  -8.059  0.00  0.00    +0.007 C 
ENDBRANCH  30  31
ENDBRANCH   4  30
TORSDOF 8
