REMARK  Name = ZINC39631731
REMARK  14 active torsions:
REMARK  status: ('A' for Active; 'I' for Inactive)
REMARK    1  A    between atoms: C_1  and  C_2
REMARK    2  A    between atoms: C_2  and  C_4
REMARK    3  A    between atoms: C_2  and  N_11
REMARK    4  A    between atoms: C_4  and  C_5
REMARK    5  A    between atoms: C_5  and  C_6
REMARK    6  A    between atoms: C_6  and  C_7
REMARK    7  A    between atoms: C_7  and  C_8
REMARK    8  A    between atoms: C_7  and  C_9
REMARK    9  A    between atoms: C_7  and  O_10
REMARK   10  A    between atoms: C_12  and  C_14
REMARK   11  A    between atoms: C_25  and  C_27
REMARK   12  A    between atoms: C_27  and  C_28
REMARK   13  A    between atoms: C_28  and  S_29
REMARK   14  A    between atoms: S_29  and  C_30
REMARK                            x       y       z     vdW  Elec       q    Type
REMARK                         _______ _______ _______ _____ _____    ______ ____
ROOT
ATOM      1  C   UNL     1       2.736  -1.073  -2.455  0.00  0.00    +0.100 C 
ATOM      2  C   UNL     1       2.403  -0.160  -3.656  0.00  0.00    +0.121 C 
ATOM      3  N   UNL     1       3.518   0.815  -3.706  0.00  0.00    -0.300 N 
ATOM      4  C   UNL     1       4.723   0.013  -3.386  0.00  0.00    +0.115 C 
ATOM      5  C   UNL     1       4.260  -0.959  -2.283  0.00  0.00    -0.004 C 
ATOM      6  C   UNL     1       4.917  -2.324  -2.472  0.00  0.00    -0.010 C 
ATOM      7  C   UNL     1       6.425  -2.196  -2.239  0.00  0.00    -0.082 C 
ATOM      8  N   UNL     1       6.671  -1.696  -0.881  0.00  0.00    +0.379 N 
ATOM      9  C   UNL     1       6.117  -0.345  -0.737  0.00  0.00    -0.082 C 
ATOM     10  C   UNL     1       4.596  -0.394  -0.907  0.00  0.00    -0.010 C 
ATOM     11  C   UNL     1       3.451   2.133  -3.980  0.00  0.00    +0.216 C 
ATOM     12  O   UNL     1       4.462   2.804  -3.983  0.00  0.00    -0.276 OA
ATOM     13  H   UNL     1       6.232  -2.312  -0.213  0.00  0.00    -0.086 HD
ATOM     14  H   UNL     1       7.665  -1.671  -0.709  0.00  0.00    -0.086 HD
ENDROOT
BRANCH   1  16
ATOM     15  N   UNL     1       1.683  -1.462  -0.251  0.00  0.00    -0.312 N 
ATOM     16  C   UNL     1       2.031  -0.587  -1.215  0.00  0.00    +0.218 C 
ATOM     17  O   UNL     1       1.776   0.592  -1.085  0.00  0.00    -0.275 OA
ATOM     18  H   UNL     1       1.887  -2.405  -0.355  0.00  0.00    +0.149 HD
BRANCH  15  20
ATOM     19  C   UNL     1      -0.507  -0.911   0.688  0.00  0.00    +0.028 C 
ATOM     20  C   UNL     1       0.998  -0.990   0.955  0.00  0.00    +0.070 C 
BRANCH  20  21
ATOM     21  C   UNL     1       1.261  -1.962   2.106  0.00  0.00    +0.022 C 
BRANCH  21  22
ATOM     22  C   UNL     1       2.751  -1.947   2.455  0.00  0.00    +0.005 C 
BRANCH  22  23
ATOM     23  C   UNL     1       3.014  -2.920   3.606  0.00  0.00    +0.034 C 
BRANCH  23  24
ATOM     24  C   UNL     1       4.503  -2.905   3.956  0.00  0.00    +0.061 C 
ATOM     25  C   UNL     1       4.914  -1.493   4.378  0.00  0.00    +0.041 C 
ATOM     26  C   UNL     1       4.767  -3.878   5.107  0.00  0.00    +0.041 C 
BRANCH  24  27
ATOM     27  O   UNL     1       5.265  -3.302   2.813  0.00  0.00    -0.389 OA
ATOM     28  H   UNL     1       5.056  -4.189   2.490  0.00  0.00    +0.210 HD
ENDBRANCH  24  27
ENDBRANCH  23  24
ENDBRANCH  22  23
ENDBRANCH  21  22
ENDBRANCH  20  21
ENDBRANCH  15  20
ENDBRANCH   1  16
BRANCH  11  29
ATOM     29  C   UNL     1       2.121   2.773  -4.284  0.00  0.00    +0.106 C 
BRANCH  29  30
ATOM     30  C   UNL     1       2.324   4.264  -4.558  0.00  0.00    +0.078 C 
BRANCH  30  31
ATOM     31  S   UNL     1       0.723   5.035  -4.924  0.00  0.00    -0.164 S 
ATOM     32  C   UNL     1       1.131   6.777  -5.221  0.00  0.00    +0.084 C 
ENDBRANCH  30  31
ENDBRANCH  29  30
ENDBRANCH  11  29
TORSDOF 10
