REMARK  Name = ZINC39597554
REMARK  7 active torsions:
REMARK  status: ('A' for Active; 'I' for Inactive)
REMARK    1  A    between atoms: C_1  and  C_2
REMARK    2  A    between atoms: C_2  and  C_3
REMARK    3  A    between atoms: C_2  and  C_4
REMARK    4  A    between atoms: C_8  and  C_17
REMARK    5  A    between atoms: N_19  and  C_20
REMARK    6  A    between atoms: C_20  and  C_21
REMARK    7  A    between atoms: C_21  and  C_22
REMARK                            x       y       z     vdW  Elec       q    Type
REMARK                         _______ _______ _______ _____ _____    ______ ____
ROOT
ATOM      1  C   UNL     1       0.580  -0.263   1.084  0.00  0.00    +0.218 C 
ATOM      2  O   UNL     1       1.582  -0.909   0.862  0.00  0.00    -0.275 OA
ATOM      3  N   UNL     1       0.189  -0.041   2.355  0.00  0.00    -0.300 N 
ATOM      4  C   UNL     1      -0.999   0.712   2.821  0.00  0.00    +0.121 C 
ATOM      5  C   UNL     1      -1.530  -0.102   4.023  0.00  0.00    +0.100 C 
ATOM      6  C   UNL     1      -0.312  -0.890   4.532  0.00  0.00    -0.004 C 
ATOM      7  C   UNL     1       0.847  -0.501   3.601  0.00  0.00    +0.115 C 
ATOM      8  C   UNL     1       0.010  -0.496   5.970  0.00  0.00    -0.010 C 
ATOM      9  C   UNL     1       1.188  -1.335   6.473  0.00  0.00    -0.082 C 
ATOM     10  N   UNL     1       0.843  -2.760   6.400  0.00  0.00    +0.379 N 
ATOM     11  C   UNL     1       0.626  -3.152   5.002  0.00  0.00    -0.082 C 
ATOM     12  C   UNL     1      -0.576  -2.390   4.437  0.00  0.00    -0.010 C 
ATOM     13  H   UNL     1       1.596  -3.307   6.789  0.00  0.00    -0.086 HD
ATOM     14  H   UNL     1       0.001  -2.928   6.930  0.00  0.00    -0.086 HD
ENDROOT
BRANCH   5  15
ATOM     15  C   UNL     1      -2.619  -1.043   3.579  0.00  0.00    +0.218 C 
ATOM     16  O   UNL     1      -2.609  -1.495   2.454  0.00  0.00    -0.275 OA
ATOM     17  N   UNL     1      -3.605  -1.383   4.433  0.00  0.00    -0.315 N 
ATOM     18  H   UNL     1      -3.614  -1.022   5.333  0.00  0.00    +0.149 HD
BRANCH  17  19
ATOM     19  C   UNL     1      -4.665  -2.299   4.001  0.00  0.00    +0.109 C 
BRANCH  19  20
ATOM     20  C   UNL     1      -5.650  -2.518   5.151  0.00  0.00    +0.056 C 
BRANCH  20  21
ATOM     21  C   UNL     1      -6.739  -3.459   4.707  0.00  0.00    -0.021 A 
ATOM     22  C   UNL     1      -6.688  -4.923   4.731  0.00  0.00    +0.003 A 
ATOM     23  C   UNL     1      -5.726  -5.855   5.125  0.00  0.00    +0.010 A 
ATOM     24  C   UNL     1      -5.992  -7.191   5.019  0.00  0.00    +0.001 A 
ATOM     25  C   UNL     1      -7.211  -7.630   4.521  0.00  0.00    +0.002 A 
ATOM     26  C   UNL     1      -8.175  -6.728   4.126  0.00  0.00    +0.026 A 
ATOM     27  C   UNL     1      -7.926  -5.363   4.225  0.00  0.00    +0.047 A 
ATOM     28  N   UNL     1      -8.663  -4.240   3.922  0.00  0.00    -0.360 N 
ATOM     29  C   UNL     1      -7.942  -3.116   4.221  0.00  0.00    +0.087 A 
ATOM     30  H   UNL     1      -9.561  -4.245   3.555  0.00  0.00    +0.165 HD
ENDBRANCH  20  21
ENDBRANCH  19  20
ENDBRANCH  17  19
ENDBRANCH   5  15
BRANCH   1  32
ATOM     31  C   UNL     1      -0.285   1.817   0.048  0.00  0.00    +0.017 C 
ATOM     32  C   UNL     1      -0.228   0.292  -0.061  0.00  0.00    +0.069 C 
ATOM     33  C   UNL     1       0.428  -0.101  -1.386  0.00  0.00    +0.017 C 
ENDBRANCH   1  32
TORSDOF 5
