REMARK  Name = ZINC39677029
REMARK  12 active torsions:
REMARK  status: ('A' for Active; 'I' for Inactive)
REMARK    1  A    between atoms: C_1  and  C_2
REMARK    2  A    between atoms: C_5  and  C_36
REMARK    3  A    between atoms: C_6  and  C_8
REMARK    4  A    between atoms: C_8  and  C_9
REMARK    5  A    between atoms: C_9  and  N_10
REMARK    6  A    between atoms: C_11  and  C_13
REMARK    7  A    between atoms: C_24  and  C_26
REMARK    8  A    between atoms: C_28  and  C_35
REMARK    9  A    between atoms: N_30  and  C_31
REMARK   10  A    between atoms: C_31  and  C_32
REMARK   11  A    between atoms: C_31  and  C_33
REMARK   12  A    between atoms: C_31  and  C_34
REMARK                            x       y       z     vdW  Elec       q    Type
REMARK                         _______ _______ _______ _____ _____    ______ ____
ROOT
ATOM      1  C   UNL     1       3.144  -5.010   5.671  0.00  0.00    +0.100 C 
ATOM      2  C   UNL     1       2.325  -6.316   5.564  0.00  0.00    +0.121 C 
ATOM      3  N   UNL     1       3.339  -7.381   5.385  0.00  0.00    -0.295 N 
ATOM      4  C   UNL     1       4.449  -6.989   6.286  0.00  0.00    +0.115 C 
ATOM      5  C   UNL     1       4.536  -5.456   6.148  0.00  0.00    -0.004 C 
ATOM      6  C   UNL     1       5.594  -5.080   5.115  0.00  0.00    -0.010 C 
ATOM      7  C   UNL     1       6.976  -5.482   5.637  0.00  0.00    -0.082 C 
ATOM      8  N   UNL     1       7.239  -4.797   6.909  0.00  0.00    +0.379 N 
ATOM      9  C   UNL     1       6.273  -5.234   7.923  0.00  0.00    -0.082 C 
ATOM     10  C   UNL     1       4.861  -4.822   7.497  0.00  0.00    -0.010 C 
ATOM     11  C   UNL     1       3.269  -8.462   4.583  0.00  0.00    +0.265 C 
ATOM     12  O   UNL     1       4.196  -9.248   4.538  0.00  0.00    -0.268 OA
ATOM     13  H   UNL     1       8.174  -5.015   7.220  0.00  0.00    -0.086 HD
ATOM     14  H   UNL     1       7.157  -3.800   6.775  0.00  0.00    -0.086 HD
ENDROOT
BRANCH  11  15
ATOM     15  C   UNL     1       2.070  -8.692   3.761  0.00  0.00    +0.124 A 
ATOM     16  C   UNL     1       0.861  -8.024   3.851  0.00  0.00    +0.057 A 
ATOM     17  C   UNL     1       0.048  -8.597   2.869  0.00  0.00    +0.061 A 
ATOM     18  N   UNL     1       0.744  -9.525   2.264  0.00  0.00    -0.175 NA
ATOM     19  N   UNL     1       1.929  -9.604   2.754  0.00  0.00    -0.254 N 
ATOM     20  C   UNL     1      -1.377  -8.214   2.563  0.00  0.00    +0.067 C 
BRANCH  19  21
ATOM     21  C   UNL     1       2.969 -10.532   2.304  0.00  0.00    +0.056 C 
ATOM     22  C   UNL     1       3.311 -11.503   3.436  0.00  0.00    +0.036 C 
ATOM     23  C   UNL     1       2.461 -11.319   1.093  0.00  0.00    +0.036 C 
ATOM     24  C   UNL     1       4.220  -9.745   1.911  0.00  0.00    +0.036 C 
ENDBRANCH  19  21
ENDBRANCH  11  15
BRANCH   1  26
ATOM     25  N   UNL     1       3.531  -3.026   4.245  0.00  0.00    -0.315 N 
ATOM     26  C   UNL     1       3.240  -4.340   4.325  0.00  0.00    +0.218 C 
ATOM     27  O   UNL     1       3.056  -4.982   3.313  0.00  0.00    -0.275 OA
ATOM     28  H   UNL     1       3.607  -2.497   5.055  0.00  0.00    +0.149 HD
BRANCH  25  29
ATOM     29  C   UNL     1       3.733  -2.398   2.937  0.00  0.00    +0.109 C 
BRANCH  29  30
ATOM     30  C   UNL     1       4.048  -0.913   3.128  0.00  0.00    +0.054 C 
BRANCH  30  36
ATOM     31  C   UNL     1       7.115   0.608  -0.523  0.00  0.00    +0.044 C 
ATOM     32  C   UNL     1       5.723   0.461   0.036  0.00  0.00    -0.050 A 
ATOM     33  C   UNL     1       4.637   0.919  -0.686  0.00  0.00    +0.003 A 
ATOM     34  C   UNL     1       3.360   0.785  -0.173  0.00  0.00    +0.004 A 
ATOM     35  C   UNL     1       3.170   0.192   1.061  0.00  0.00    -0.047 A 
ATOM     36  C   UNL     1       4.256  -0.267   1.782  0.00  0.00    -0.043 A 
ATOM     37  C   UNL     1       5.532  -0.136   1.268  0.00  0.00    +0.007 A 
ATOM     38  C   UNL     1       1.778   0.046   1.620  0.00  0.00    +0.044 C 
ENDBRANCH  30  36
ENDBRANCH  29  30
ENDBRANCH  25  29
ENDBRANCH   1  26
TORSDOF 6
