REMARK  Name = ZINC00888873
REMARK  7 active torsions:
REMARK  status: ('A' for Active; 'I' for Inactive)
REMARK    1  A    between atoms: C_1  and  C_2
REMARK    2  A    between atoms: C_9  and  C_14
REMARK    3  A    between atoms: C_14  and  C_16
REMARK    4  A    between atoms: C_14  and  N_63
REMARK    5  A    between atoms: N_20  and  C_21
REMARK    6  A    between atoms: C_26  and  N_63
REMARK    7  A    between atoms: C_27  and  N_63
REMARK                            x       y       z     vdW  Elec       q    Type
REMARK                         _______ _______ _______ _____ _____    ______ ____
ROOT
ATOM      1  C   UNL     1       4.957   1.050   0.001  0.00  0.00    +0.039 C 
ENDROOT
BRANCH   1  10
ATOM      2  C   UNL     1      -2.409   0.130   0.722  0.00  0.00    +0.044 C 
ATOM      3  C   UNL     1      -1.188   1.013   0.731  0.00  0.00    -0.050 A 
ATOM      4  C   UNL     1      -1.323   2.371   0.985  0.00  0.00    +0.005 A 
ATOM      5  C   UNL     1      -0.220   3.198   0.993  0.00  0.00    +0.026 A 
ATOM      6  C   UNL     1       1.043   2.667   0.750  0.00  0.00    +0.049 A 
ATOM      7  C   UNL     1       1.176   1.289   0.498  0.00  0.00    -0.001 A 
ATOM      8  C   UNL     1       0.043   0.469   0.494  0.00  0.00    +0.013 A 
ATOM      9  C   UNL     1       2.509   0.740   0.243  0.00  0.00    +0.017 A 
ATOM     10  C   UNL     1       3.571   1.583   0.259  0.00  0.00    +0.011 A 
ATOM     11  C   UNL     1       3.383   2.958   0.517  0.00  0.00    +0.251 A 
ATOM     12  O   UNL     1       4.351   3.698   0.527  0.00  0.00    -0.268 OA
ATOM     13  N   UNL     1       2.163   3.471   0.752  0.00  0.00    -0.322 N 
ATOM     14  H   UNL     1       2.066   4.450   0.931  0.00  0.00    +0.169 HD
ENDBRANCH   1  10
BRANCH   1  15
ATOM     15  C   UNL     1       5.445   1.548  -1.335  0.00  0.00    +0.143 A 
ATOM     16  N   UNL     1       5.778   2.779  -1.637  0.00  0.00    -0.115 NA
ATOM     17  N   UNL     1       6.145   2.801  -2.872  0.00  0.00    -0.023 NA
ATOM     18  N   UNL     1       6.047   1.617  -3.368  0.00  0.00    -0.044 NA
ATOM     19  N   UNL     1       5.618   0.816  -2.451  0.00  0.00    -0.227 N 
BRANCH  19  20
ATOM     20  C   UNL     1       5.367  -0.620  -2.598  0.00  0.00    +0.111 C 
ATOM     21  C   UNL     1       6.655  -1.338  -3.053  0.00  0.00    +0.027 C 
ATOM     22  C   UNL     1       6.154  -2.431  -4.030  0.00  0.00    +0.002 C 
ATOM     23  C   UNL     1       5.002  -1.718  -4.780  0.00  0.00    +0.002 C 
ATOM     24  C   UNL     1       4.316  -0.862  -3.696  0.00  0.00    +0.027 C 
ENDBRANCH  19  20
ENDBRANCH   1  15
BRANCH   1  26
ATOM     25  C   UNL     1       7.260   1.498   0.599  0.00  0.00    -0.094 C 
ATOM     26  N   UNL     1       5.858   1.541   1.064  0.00  0.00    +0.389 N 
ATOM     27  H   UNL     1       5.611   2.513   1.289  0.00  0.00    -0.080 HD
BRANCH  26  28
ATOM     28  C   UNL     1       5.703   0.714   2.279  0.00  0.00    -0.068 C 
ATOM     29  C   UNL     1       4.263   0.835   2.781  0.00  0.00    -0.015 C 
ATOM     30  C   UNL     1       4.095   0.001   4.053  0.00  0.00    -0.002 C 
ATOM     31  C   UNL     1       5.055   0.513   5.129  0.00  0.00    -0.000 C 
ATOM     32  C   UNL     1       6.495   0.392   4.627  0.00  0.00    -0.002 C 
ATOM     33  C   UNL     1       6.663   1.226   3.355  0.00  0.00    -0.015 C 
ENDBRANCH  26  28
ENDBRANCH   1  26
TORSDOF 5
