REMARK  Name = ZINC66898927
REMARK  3 active torsions:
REMARK  status: ('A' for Active; 'I' for Inactive)
REMARK    1  A    between atoms: C_8  and  C_13
REMARK    2  A    between atoms: C_13  and  N_14
REMARK    3  A    between atoms: C_18  and  C_20
REMARK                            x       y       z     vdW  Elec       q    Type
REMARK                         _______ _______ _______ _____ _____    ______ ____
ROOT
ATOM      1  N   UNL     1       3.361  -4.903   1.011  0.00  0.00    -0.288 NA
ATOM      2  C   UNL     1       4.208  -5.054  -0.187  0.00  0.00    +0.085 C 
ATOM      3  C   UNL     1       4.542  -6.555  -0.324  0.00  0.00    +0.017 C 
ATOM      4  C   UNL     1       4.339  -7.091   1.118  0.00  0.00    +0.025 C 
ATOM      5  C   UNL     1       3.139  -6.239   1.603  0.00  0.00    +0.091 C 
ENDROOT
BRANCH   5   6
ATOM      6  C   UNL     1       3.132  -6.152   3.107  0.00  0.00    +0.015 A 
ATOM      7  C   UNL     1       3.706  -5.065   3.739  0.00  0.00    +0.009 A 
ATOM      8  C   UNL     1       3.700  -4.982   5.118  0.00  0.00    +0.004 A 
ATOM      9  C   UNL     1       3.122  -5.987   5.871  0.00  0.00    +0.049 A 
ATOM     10  C   UNL     1       2.546  -7.081   5.244  0.00  0.00    +0.162 A 
ATOM     11  C   UNL     1       2.544  -7.160   3.856  0.00  0.00    +0.167 A 
ATOM     12  O   UNL     1       1.972  -8.219   3.220  0.00  0.00    -0.485 OA
ATOM     13  C   UNL     1       1.724  -9.387   4.009  0.00  0.00    +0.270 C 
ATOM     14  C   UNL     1       1.073  -8.947   5.327  0.00  0.00    +0.270 C 
ATOM     15  O   UNL     1       1.984  -8.065   5.998  0.00  0.00    -0.485 OA
ENDBRANCH   5   6
BRANCH   1  16
ATOM     16  C   UNL     1       2.086  -4.257   0.675  0.00  0.00    +0.158 C 
BRANCH  16  24
ATOM     17  C   UNL     1      -0.017   1.377   0.010  0.00  0.00    +0.002 A 
ATOM     18  C   UNL     1       1.167   2.091   0.002  0.00  0.00    +0.002 A 
ATOM     19  C   UNL     1       2.380   1.423  -0.012  0.00  0.00    +0.031 A 
ATOM     20  C   UNL     1       2.401   0.047  -0.019  0.00  0.00    +0.134 A 
ATOM     21  C   UNL     1       1.216  -0.680  -0.014  0.00  0.00    +0.059 A 
ATOM     22  C   UNL     1       0.002  -0.004   0.002  0.00  0.00    +0.025 A 
ATOM     23  N   UNL     1       1.252  -2.072  -0.030  0.00  0.00    -0.299 N 
ATOM     24  C   UNL     1       2.333  -2.816   0.308  0.00  0.00    +0.135 C 
ATOM     25  N   UNL     1       3.547  -2.405   0.345  0.00  0.00    -0.117 NA
ATOM     26  S   UNL     1       3.929  -0.836  -0.034  0.00  0.00    +0.102 S 
ATOM     27  O   UNL     1       4.389  -0.838  -1.379  0.00  0.00    -0.146 OA
ATOM     28  O   UNL     1       4.707  -0.331   1.042  0.00  0.00    -0.146 OA
ATOM     29  H   UNL     1       0.447  -2.541  -0.302  0.00  0.00    +0.153 HD
ENDBRANCH  16  24
ENDBRANCH   1  16
TORSDOF 3
