REMARK  Name = ZINC23078816
REMARK  14 active torsions:
REMARK  status: ('A' for Active; 'I' for Inactive)
REMARK    1  A    between atoms: C_1  and  C_2
REMARK    2  A    between atoms: C_2  and  C_3
REMARK    3  A    between atoms: C_3  and  C_4
REMARK    4  A    between atoms: C_4  and  N_5
REMARK    5  A    between atoms: C_6  and  N_37
REMARK    6  A    between atoms: C_7  and  N_14
REMARK    7  A    between atoms: N_14  and  C_15
REMARK    8  A    between atoms: C_15  and  C_16
REMARK    9  A    between atoms: C_21  and  O_22
REMARK   10  A    between atoms: O_22  and  C_23
REMARK   11  A    between atoms: C_24  and  C_26
REMARK   12  A    between atoms: C_26  and  C_28
REMARK   13  A    between atoms: C_26  and  O_29
REMARK   14  A    between atoms: O_29  and  C_30
REMARK                            x       y       z     vdW  Elec       q    Type
REMARK                         _______ _______ _______ _____ _____    ______ ____
ROOT
ATOM      1  N   UNL     1      -2.624   0.565  -0.867  0.00  0.00    -0.257 N 
ATOM      2  C   UNL     1      -1.695   1.427  -1.328  0.00  0.00    +0.261 C 
ATOM      3  O   UNL     1      -0.708   1.667  -0.665  0.00  0.00    -0.271 OA
ENDROOT
BRANCH   1   6
ATOM      4  N   UNL     1      -4.965  -1.360  -2.944  0.00  0.00    -0.280 N 
ATOM      5  C   UNL     1      -3.875  -1.058  -2.162  0.00  0.00    +0.127 A 
ATOM      6  C   UNL     1      -3.732   0.224  -1.671  0.00  0.00    +0.140 A 
ATOM      7  C   UNL     1      -4.713   1.184  -1.982  0.00  0.00    +0.277 A 
ATOM      8  O   UNL     1      -4.615   2.322  -1.558  0.00  0.00    -0.266 OA
ATOM      9  N   UNL     1      -5.760   0.837  -2.756  0.00  0.00    -0.273 N 
ATOM     10  H   UNL     1      -6.527   1.584  -3.011  0.00  0.00    +0.173 HD
ATOM     11  C   UNL     1      -5.883  -0.417  -3.226  0.00  0.00    +0.331 A 
ATOM     12  O   UNL     1      -6.840  -0.705  -3.918  0.00  0.00    -0.246 OA
BRANCH   5  13
ATOM     13  N   UNL     1      -2.938  -2.021  -1.874  0.00  0.00    -0.343 N 
ATOM     14  H   UNL     1      -2.068  -1.772  -1.248  0.00  0.00    +0.144 HD
ATOM     15  H   UNL     1      -3.057  -3.041  -2.269  0.00  0.00    +0.144 HD
ENDBRANCH   5  13
BRANCH   4  16
ATOM     16  C   UNL     1      -5.130  -2.717  -3.472  0.00  0.00    +0.128 C 
BRANCH  16  17
ATOM     17  C   UNL     1      -5.930  -3.558  -2.475  0.00  0.00    +0.021 C 
BRANCH  17  19
ATOM     18  C   UNL     1      -6.901  -5.817  -2.030  0.00  0.00    +0.004 C 
ATOM     19  C   UNL     1      -6.101  -4.975  -3.027  0.00  0.00    -0.002 C 
ENDBRANCH  17  19
ENDBRANCH  16  17
ENDBRANCH   4  16
ENDBRANCH   1   6
BRANCH   2  20
ATOM     20  C   UNL     1      -1.883   2.092  -2.667  0.00  0.00    +0.256 C 
ATOM     21  C   UNL     1      -1.712   1.056  -3.780  0.00  0.00    +0.062 C 
BRANCH  20  22
ATOM     22  O   UNL     1      -0.911   3.127  -2.826  0.00  0.00    -0.480 OA
BRANCH  22  23
ATOM     23  C   UNL     1      -1.220   4.138  -3.680  0.00  0.00    +0.123 A 
ATOM     24  C   UNL     1      -2.380   4.077  -4.439  0.00  0.00    +0.046 A 
ATOM     25  C   UNL     1      -2.696   5.109  -5.301  0.00  0.00    +0.005 A 
ATOM     26  C   UNL     1      -1.851   6.197  -5.418  0.00  0.00    +0.020 A 
ATOM     27  C   UNL     1      -0.691   6.259  -4.667  0.00  0.00    +0.044 A 
ATOM     28  C   UNL     1      -0.374   5.231  -3.797  0.00  0.00    +0.065 A 
ATOM     29 CL   UNL     1       0.367   7.627  -4.815  0.00  0.00    -0.083 Cl
ENDBRANCH  22  23
ENDBRANCH  20  22
ENDBRANCH   2  20
BRANCH   1  30
ATOM     30  C   UNL     1      -2.483  -0.017   0.470  0.00  0.00    +0.152 C 
BRANCH  30  31
ATOM     31  C   UNL     1      -3.070   0.923   1.492  0.00  0.00    +0.012 A 
ATOM     32  C   UNL     1      -2.242   1.744   2.233  0.00  0.00    +0.009 A 
ATOM     33  C   UNL     1      -2.779   2.606   3.170  0.00  0.00    +0.001 A 
ATOM     34  C   UNL     1      -4.147   2.649   3.369  0.00  0.00    +0.004 A 
ATOM     35  C   UNL     1      -4.980   1.835   2.627  0.00  0.00    +0.046 A 
ATOM     36  C   UNL     1      -4.442   0.964   1.690  0.00  0.00    +0.125 A 
BRANCH  36  37
ATOM     37  O   UNL     1      -5.260   0.158   0.962  0.00  0.00    -0.495 OA
ATOM     38  C   UNL     1      -6.649   0.172   1.295  0.00  0.00    +0.277 C 
ENDBRANCH  36  37
ENDBRANCH  30  31
ENDBRANCH   1  30
TORSDOF 11
