REMARK  Name = ZINC39006988
REMARK  7 active torsions:
REMARK  status: ('A' for Active; 'I' for Inactive)
REMARK    1  A    between atoms: C_1  and  C_2
REMARK    2  A    between atoms: C_9  and  C_14
REMARK    3  A    between atoms: C_14  and  N_15
REMARK    4  A    between atoms: N_15  and  C_16
REMARK    5  A    between atoms: N_15  and  S_23
REMARK    6  A    between atoms: C_16  and  C_17
REMARK    7  A    between atoms: S_23  and  C_26
REMARK                            x       y       z     vdW  Elec       q    Type
REMARK                         _______ _______ _______ _____ _____    ______ ____
ROOT
ATOM      1  N   UNL     1       1.171  -6.304   3.215  0.00  0.00    -0.171 NA
ENDROOT
BRANCH   1   2
ATOM      2  S   UNL     1       0.401  -6.800   4.595  0.00  0.00    +0.061 S 
ATOM      3  O   UNL     1       0.818  -8.136   4.836  0.00  0.00    -0.153 OA
ATOM      4  O   UNL     1       0.575  -5.763   5.551  0.00  0.00    -0.153 OA
BRANCH   2   5
ATOM      5  C   UNL     1      -1.323  -6.868   4.234  0.00  0.00    +0.106 A 
ATOM      6  C   UNL     1      -2.114  -5.752   4.431  0.00  0.00    +0.030 A 
ATOM      7  C   UNL     1      -3.466  -5.804   4.148  0.00  0.00    +0.022 A 
ATOM      8  C   UNL     1      -4.027  -6.974   3.668  0.00  0.00    +0.041 A 
ATOM      9  C   UNL     1      -3.234  -8.091   3.471  0.00  0.00    +0.022 A 
ATOM     10  C   UNL     1      -1.881  -8.035   3.749  0.00  0.00    +0.030 A 
ATOM     11 CL   UNL     1      -5.725  -7.042   3.313  0.00  0.00    -0.084 Cl
ENDBRANCH   2   5
ENDBRANCH   1   2
BRANCH   1  12
ATOM     12  C   UNL     1       1.387  -4.877   2.969  0.00  0.00    +0.126 C 
BRANCH  12  21
ATOM     13  C   UNL     1       0.399   1.479  -0.135  0.00  0.00    +0.044 C 
ATOM     14  C   UNL     1       0.268  -0.021  -0.067  0.00  0.00    -0.050 A 
ATOM     15  C   UNL     1       0.078  -0.743  -1.245  0.00  0.00    +0.005 A 
ATOM     16  C   UNL     1      -0.048  -2.096  -1.263  0.00  0.00    +0.024 A 
ATOM     17  C   UNL     1       0.010  -2.835  -0.067  0.00  0.00    +0.040 A 
ATOM     18  N   UNL     1      -0.115  -4.161  -0.097  0.00  0.00    -0.284 N 
ATOM     19  C   UNL     1      -0.071  -4.915   0.989  0.00  0.00    +0.225 C 
ATOM     20  O   UNL     1      -0.190  -6.122   0.900  0.00  0.00    -0.275 OA
ATOM     21  C   UNL     1       0.130  -4.271   2.342  0.00  0.00    +0.114 C 
ATOM     22  C   UNL     1       0.273  -2.762   2.381  0.00  0.00    -0.003 C 
ATOM     23  C   UNL     1       0.209  -2.097   1.193  0.00  0.00    -0.007 A 
ATOM     24  C   UNL     1       0.343  -0.641   1.139  0.00  0.00    +0.012 A 
ATOM     25  H   UNL     1      -0.244  -4.594  -0.955  0.00  0.00    +0.155 HD
ENDBRANCH  12  21
ENDBRANCH   1  12
BRANCH   1  26
ATOM     26  C   UNL     1       1.635  -7.295   2.240  0.00  0.00    +0.146 C 
BRANCH  26  27
ATOM     27  C   UNL     1       3.073  -7.645   2.526  0.00  0.00    -0.014 A 
ATOM     28  C   UNL     1       4.102  -6.923   1.940  0.00  0.00    +0.008 A 
ATOM     29  C   UNL     1       5.409  -7.281   2.232  0.00  0.00    +0.020 A 
ATOM     30  C   UNL     1       5.642  -8.338   3.092  0.00  0.00    +0.111 A 
ATOM     31  N   UNL     1       4.638  -9.002   3.631  0.00  0.00    -0.263 NA
ATOM     32  C   UNL     1       3.383  -8.686   3.381  0.00  0.00    +0.115 A 
ENDBRANCH  26  27
ENDBRANCH   1  26
TORSDOF 6
