REMARK  Name = ZINC63366900
REMARK  9 active torsions:
REMARK  status: ('A' for Active; 'I' for Inactive)
REMARK    1  A    between atoms: C_1  and  C_2
REMARK    2  A    between atoms: C_4  and  S_10
REMARK    3  A    between atoms: C_7  and  O_8
REMARK    4  A    between atoms: O_8  and  C_9
REMARK    5  A    between atoms: S_10  and  C_13
REMARK    6  A    between atoms: C_20  and  N_22
REMARK    7  A    between atoms: N_22  and  C_23
REMARK    8  A    between atoms: C_23  and  C_24
REMARK    9  A    between atoms: C_24  and  C_25
REMARK                            x       y       z     vdW  Elec       q    Type
REMARK                         _______ _______ _______ _____ _____    ______ ____
ROOT
ATOM      1  C   UNL     1       1.781  -3.149  -3.153  0.00  0.00    +0.175 C 
ATOM      2  C   UNL     1       2.482  -3.966  -2.032  0.00  0.00    +0.194 C 
ATOM      3  S   UNL     1       3.965  -4.554  -2.961  0.00  0.00    -0.028 S 
ATOM      4  O   UNL     1       4.329  -5.845  -2.491  0.00  0.00    -0.174 OA
ATOM      5  O   UNL     1       4.937  -3.518  -2.994  0.00  0.00    -0.174 OA
ATOM      6  C   UNL     1       3.189  -4.712  -4.623  0.00  0.00    +0.186 C 
ATOM      7  C   UNL     1       1.902  -3.876  -4.491  0.00  0.00    +0.101 C 
ENDROOT
BRANCH   1   8
ATOM      8  S   UNL     1       0.027  -2.942  -2.738  0.00  0.00    +0.003 S 
ATOM      9  O   UNL     1      -0.557  -4.202  -2.441  0.00  0.00    -0.169 OA
ATOM     10  O   UNL     1      -0.592  -2.055  -3.660  0.00  0.00    -0.169 OA
BRANCH   8  14
ATOM     11  C   UNL     1      -0.018   1.503   0.010  0.00  0.00    +0.047 C 
ATOM     12  C   UNL     1       0.002  -0.004   0.002  0.00  0.00    -0.007 A 
ATOM     13  C   UNL     1       0.006  -0.689  -1.198  0.00  0.00    +0.034 A 
ATOM     14  C   UNL     1       0.024  -2.071  -1.206  0.00  0.00    +0.089 A 
ATOM     15  C   UNL     1       0.039  -2.772  -0.014  0.00  0.00    +0.030 A 
ATOM     16  C   UNL     1       0.036  -2.092   1.188  0.00  0.00    +0.048 A 
ATOM     17  C   UNL     1       0.023  -0.705   1.199  0.00  0.00    +0.123 A 
BRANCH  17  18
ATOM     18  O   UNL     1       0.025  -0.033   2.381  0.00  0.00    -0.495 OA
ATOM     19  C   UNL     1       0.048  -0.820   3.574  0.00  0.00    +0.277 C 
ENDBRANCH  17  18
ENDBRANCH   8  14
ENDBRANCH   1   8
BRANCH   7  20
ATOM     20  N   UNL     1       1.876  -2.881  -5.572  0.00  0.00    -0.310 NA
ATOM     21  H   UNL     1       1.313  -2.084  -5.315  0.00  0.00    +0.122 HD
BRANCH  20  22
ATOM     22  C   UNL     1       1.400  -3.479  -6.826  0.00  0.00    +0.085 C 
BRANCH  22  23
ATOM     23  C   UNL     1       1.387  -2.415  -7.926  0.00  0.00    +0.048 C 
BRANCH  23  24
ATOM     24  C   UNL     1       0.899  -3.028  -9.213  0.00  0.00    -0.040 C 
ATOM     25  C   UNL     1      -0.366  -3.015  -9.692  0.00  0.00    -0.001 A 
ATOM     26  C   UNL     1      -1.618  -2.447  -9.178  0.00  0.00    +0.010 A 
ATOM     27  C   UNL     1      -2.752  -2.599  -9.899  0.00  0.00    +0.001 A 
ATOM     28  C   UNL     1      -2.761  -3.284 -11.122  0.00  0.00    +0.002 A 
ATOM     29  C   UNL     1      -1.651  -3.832 -11.659  0.00  0.00    +0.026 A 
ATOM     30  C   UNL     1      -0.402  -3.732 -10.986  0.00  0.00    +0.043 A 
ATOM     31  N   UNL     1       0.793  -4.173 -11.295  0.00  0.00    -0.380 N 
ATOM     32  C   UNL     1       1.726  -3.778 -10.233  0.00  0.00    +0.144 C 
ATOM     33  H   UNL     1       1.024  -4.672 -12.094  0.00  0.00    +0.160 HD
ENDBRANCH  23  24
ENDBRANCH  22  23
ENDBRANCH  20  22
ENDBRANCH   7  20
TORSDOF 7
