REMARK  Name = ZINC19973116
REMARK  9 active torsions:
REMARK  status: ('A' for Active; 'I' for Inactive)
REMARK    1  A    between atoms: C_1  and  C_2
REMARK    2  A    between atoms: C_12  and  C_14
REMARK    3  A    between atoms: C_14  and  C_16
REMARK    4  A    between atoms: C_14  and  N_26
REMARK    5  A    between atoms: N_20  and  C_21
REMARK    6  A    between atoms: N_26  and  C_27
REMARK    7  A    between atoms: N_26  and  C_34
REMARK    8  A    between atoms: C_27  and  C_28
REMARK    9  A    between atoms: C_34  and  C_35
REMARK                            x       y       z     vdW  Elec       q    Type
REMARK                         _______ _______ _______ _____ _____    ______ ____
ROOT
ATOM      1  C   UNL     1      -0.223  -2.466   4.929  0.00  0.00    +0.163 C 
ENDROOT
BRANCH   1  13
ATOM      2  C   UNL     1      -1.252   0.032  -1.063  0.00  0.00    +0.046 C 
ATOM      3  C   UNL     1      -1.175  -1.393  -0.578  0.00  0.00    -0.026 A 
ATOM      4  C   UNL     1      -1.341  -2.435  -1.465  0.00  0.00    +0.005 A 
ATOM      5  C   UNL     1      -1.268  -3.752  -1.032  0.00  0.00    +0.001 A 
ATOM      6  C   UNL     1      -1.040  -4.040   0.284  0.00  0.00    +0.010 A 
ATOM      7  C   UNL     1      -0.875  -2.998   1.203  0.00  0.00    -0.001 A 
ATOM      8  C   UNL     1      -0.943  -1.661   0.766  0.00  0.00    +0.052 A 
ATOM      9  N   UNL     1      -0.778  -0.638   1.676  0.00  0.00    -0.322 N 
ATOM     10  H   UNL     1      -0.829   0.408   1.342  0.00  0.00    +0.169 HD
ATOM     11  C   UNL     1      -0.554  -0.898   2.976  0.00  0.00    +0.254 A 
ATOM     12  O   UNL     1      -0.413   0.031   3.752  0.00  0.00    -0.268 OA
ATOM     13  C   UNL     1      -0.476  -2.220   3.464  0.00  0.00    +0.042 A 
ATOM     14  C   UNL     1      -0.629  -3.270   2.620  0.00  0.00    +0.021 A 
ENDBRANCH   1  13
BRANCH   1  15
ATOM     15  C   UNL     1       1.150  -1.963   5.293  0.00  0.00    +0.173 A 
ATOM     16  N   UNL     1       1.474  -0.734   5.612  0.00  0.00    -0.111 NA
ATOM     17  N   UNL     1       2.739  -0.706   5.856  0.00  0.00    -0.023 NA
ATOM     18  N   UNL     1       3.230  -1.886   5.700  0.00  0.00    -0.044 NA
ATOM     19  N   UNL     1       2.281  -2.690   5.358  0.00  0.00    -0.224 N 
BRANCH  19  20
ATOM     20  C   UNL     1       2.410  -4.124   5.089  0.00  0.00    +0.111 C 
ATOM     21  C   UNL     1       2.986  -4.845   6.325  0.00  0.00    +0.027 C 
ATOM     22  C   UNL     1       3.918  -5.931   5.731  0.00  0.00    +0.002 C 
ATOM     23  C   UNL     1       4.554  -5.210   4.517  0.00  0.00    +0.002 C 
ATOM     24  C   UNL     1       3.406  -4.356   3.939  0.00  0.00    +0.027 C 
ENDBRANCH  19  20
ENDBRANCH   1  15
BRANCH   1  25
ATOM     25  N   UNL     1      -1.232  -1.755   5.726  0.00  0.00    -0.280 NA
BRANCH  25  26
ATOM     26  C   UNL     1      -2.571  -1.917   5.146  0.00  0.00    +0.121 C 
BRANCH  26  27
ATOM     27  C   UNL     1      -3.499  -0.881   5.727  0.00  0.00    -0.033 A 
ATOM     28  C   UNL     1      -4.216  -1.161   6.875  0.00  0.00    +0.005 A 
ATOM     29  C   UNL     1      -5.063  -0.209   7.411  0.00  0.00    +0.000 A 
ATOM     30  C   UNL     1      -5.202   1.019   6.791  0.00  0.00    +0.000 A 
ATOM     31  C   UNL     1      -4.490   1.296   5.639  0.00  0.00    +0.000 A 
ATOM     32  C   UNL     1      -3.639   0.346   5.107  0.00  0.00    +0.005 A 
ENDBRANCH  26  27
ENDBRANCH  25  26
BRANCH  25  33
ATOM     33  C   UNL     1      -1.206  -2.200   7.126  0.00  0.00    +0.121 C 
BRANCH  33  34
ATOM     34  C   UNL     1      -0.032  -1.573   7.832  0.00  0.00    -0.033 A 
ATOM     35  C   UNL     1       1.145  -2.284   7.980  0.00  0.00    +0.008 A 
ATOM     36  C   UNL     1       2.224  -1.709   8.623  0.00  0.00    +0.038 A 
ATOM     37  C   UNL     1       2.124  -0.423   9.127  0.00  0.00    +0.123 A 
ATOM     38  C   UNL     1       0.944   0.286   8.982  0.00  0.00    +0.038 A 
ATOM     39  C   UNL     1      -0.133  -0.289   8.334  0.00  0.00    +0.008 A 
ATOM     40  F   UNL     1       3.177   0.139   9.759  0.00  0.00    -0.205 F 
ENDBRANCH  33  34
ENDBRANCH  25  33
ENDBRANCH   1  25
TORSDOF 8
