REMARK  Name = ZINC09809585
REMARK  9 active torsions:
REMARK  status: ('A' for Active; 'I' for Inactive)
REMARK    1  A    between atoms: C_1  and  C_2
REMARK    2  A    between atoms: C_2  and  O_3
REMARK    3  A    between atoms: O_3  and  C_4
REMARK    4  A    between atoms: C_4  and  C_6
REMARK    5  A    between atoms: C_6  and  N_7
REMARK    6  A    between atoms: C_11  and  S_26
REMARK    7  A    between atoms: N_16  and  C_17
REMARK    8  A    between atoms: C_17  and  C_19
REMARK    9  A    between atoms: S_26  and  N_29
REMARK                            x       y       z     vdW  Elec       q    Type
REMARK                         _______ _______ _______ _____ _____    ______ ____
ROOT
ATOM      1  N   UNL     1      -1.282   2.490  -0.134  0.00  0.00    -0.310 N 
ATOM      2  C   UNL     1      -0.109   1.944  -0.624  0.00  0.00    +0.058 A 
ATOM      3  C   UNL     1       0.116   0.613  -1.017  0.00  0.00    +0.029 A 
ATOM      4  C   UNL     1       1.343   0.216  -1.492  0.00  0.00    +0.030 A 
ATOM      5  C   UNL     1       2.395   1.110  -1.602  0.00  0.00    +0.106 A 
ATOM      6  C   UNL     1       2.202   2.427  -1.224  0.00  0.00    +0.045 A 
ATOM      7  C   UNL     1       0.975   2.824  -0.747  0.00  0.00    +0.041 A 
ATOM      8  S   UNL     1       0.317   4.370  -0.169  0.00  0.00    -0.052 S 
ATOM      9  C   UNL     1      -1.335   3.809   0.207  0.00  0.00    +0.167 A 
ATOM     10  N   UNL     1      -2.359   4.502   0.691  0.00  0.00    -0.152 NA
ENDROOT
BRANCH   5  11
ATOM     11  S   UNL     1       3.958   0.577  -2.215  0.00  0.00    +0.056 S 
ATOM     12  O   UNL     1       4.926   1.484  -1.704  0.00  0.00    -0.153 OA
ATOM     13  O   UNL     1       4.030  -0.823  -1.984  0.00  0.00    -0.153 OA
BRANCH  11  14
ATOM     14  N   UNL     1       3.937   0.785  -3.858  0.00  0.00    -0.204 NA
ATOM     15  H   UNL     1       3.147   1.144  -4.291  0.00  0.00    +0.144 HD
ATOM     16  H   UNL     1       4.714   0.547  -4.387  0.00  0.00    +0.144 HD
ENDBRANCH  11  14
ENDBRANCH   5  11
BRANCH  10  17
ATOM     17  C   UNL     1      -2.216   5.806   0.963  0.00  0.00    +0.271 C 
ATOM     18  O   UNL     1      -1.146   6.356   0.765  0.00  0.00    -0.268 OA
BRANCH  17  19
ATOM     19  C   UNL     1      -3.353   6.575   1.500  0.00  0.00    +0.066 A 
ATOM     20  C   UNL     1      -4.632   5.957   1.746  0.00  0.00    +0.042 A 
ATOM     21  C   UNL     1      -5.609   6.745   2.239  0.00  0.00    +0.080 A 
ATOM     22  S   UNL     1      -4.816   8.333   2.379  0.00  0.00    -0.064 S 
ATOM     23  C   UNL     1      -3.239   7.918   1.796  0.00  0.00    +0.092 A 
ATOM     24 CL   UNL     1      -1.849   8.944   1.623  0.00  0.00    -0.075 Cl
ATOM     25 CL   UNL     1      -7.243   6.315   2.641  0.00  0.00    -0.076 Cl
ENDBRANCH  17  19
ENDBRANCH  10  17
BRANCH   1  26
ATOM     26  C   UNL     1      -2.470   1.648   0.022  0.00  0.00    +0.244 C 
BRANCH  26  27
ATOM     27  C   UNL     1      -3.163   1.992   1.315  0.00  0.00    +0.327 C 
ATOM     28  O   UNL     1      -2.629   2.730   2.109  0.00  0.00    -0.249 OA
BRANCH  27  29
ATOM     29  O   UNL     1      -4.375   1.480   1.584  0.00  0.00    -0.464 OA
BRANCH  29  31
ATOM     30  C   UNL     1      -6.349   1.179   2.977  0.00  0.00    +0.048 C 
ATOM     31  C   UNL     1      -4.983   1.855   2.848  0.00  0.00    +0.229 C 
ENDBRANCH  29  31
ENDBRANCH  27  29
ENDBRANCH  26  27
ENDBRANCH   1  26
TORSDOF 8
