REMARK  Name = ZINC14467287
REMARK  7 active torsions:
REMARK  status: ('A' for Active; 'I' for Inactive)
REMARK    1  A    between atoms: C_1  and  C_2
REMARK    2  A    between atoms: C_5  and  N_9
REMARK    3  A    between atoms: C_6  and  C_8
REMARK    4  A    between atoms: N_9  and  S_10
REMARK    5  A    between atoms: S_10  and  C_13
REMARK    6  A    between atoms: C_26  and  C_29
REMARK    7  A    between atoms: C_34  and  O_35
REMARK                            x       y       z     vdW  Elec       q    Type
REMARK                         _______ _______ _______ _____ _____    ______ ____
ROOT
ATOM      1  C   UNL     1       1.602  -0.509   4.202  0.00  0.00    +0.109 A 
ATOM      2  C   UNL     1       0.475  -0.745   4.969  0.00  0.00    +0.030 A 
ATOM      3  C   UNL     1       0.087  -2.043   5.233  0.00  0.00    +0.025 A 
ATOM      4  C   UNL     1       0.831  -3.106   4.737  0.00  0.00    +0.031 A 
ATOM      5  C   UNL     1       1.963  -2.874   3.972  0.00  0.00    -0.018 A 
ATOM      6  C   UNL     1       2.342  -1.565   3.710  0.00  0.00    +0.034 A 
ATOM      7  C   UNL     1       2.796  -3.986   3.416  0.00  0.00    +0.049 C 
ATOM      8  C   UNL     1       2.565  -4.159   1.934  0.00  0.00    -0.023 C 
ATOM      9  C   UNL     1       2.612  -5.429   1.613  0.00  0.00    -0.030 C 
ATOM     10  C   UNL     1       2.885  -6.277   2.839  0.00  0.00    +0.033 C 
ATOM     11  C   UNL     1       2.444  -5.360   4.017  0.00  0.00    +0.029 C 
ATOM     12  C   UNL     1       0.924  -5.496   4.155  0.00  0.00    +0.109 C 
ATOM     13  N   UNL     1       0.427  -4.417   5.015  0.00  0.00    -0.336 N 
ATOM     14  H   UNL     1      -0.167  -4.607   5.758  0.00  0.00    +0.147 HD
ENDROOT
BRANCH  12  15
ATOM     15  C   UNL     1       0.283  -5.395   2.796  0.00  0.00    +0.017 A 
ATOM     16  C   UNL     1      -0.089  -4.161   2.297  0.00  0.00    +0.029 A 
ATOM     17  C   UNL     1      -0.677  -4.066   1.048  0.00  0.00    +0.043 A 
ATOM     18  C   UNL     1      -0.895  -5.207   0.296  0.00  0.00    +0.043 A 
ATOM     19  C   UNL     1      -0.525  -6.444   0.791  0.00  0.00    +0.084 A 
ATOM     20  C   UNL     1       0.071  -6.539   2.042  0.00  0.00    +0.140 A 
ATOM     21 CL   UNL     1      -0.797  -7.875  -0.153  0.00  0.00    -0.080 Cl
ATOM     22 CL   UNL     1      -1.143  -2.515   0.425  0.00  0.00    -0.083 Cl
BRANCH  20  23
ATOM     23  O   UNL     1       0.441  -7.753   2.528  0.00  0.00    -0.505 OA
ATOM     24  H   UNL     1      -0.249  -8.200   3.038  0.00  0.00    +0.292 HD
ENDBRANCH  20  23
ENDBRANCH  12  15
BRANCH   1  25
ATOM     25  S   UNL     1       2.098   1.146   3.857  0.00  0.00    +0.072 S 
ATOM     26  O   UNL     1       3.492   1.104   3.583  0.00  0.00    -0.150 OA
ATOM     27  O   UNL     1       1.548   1.958   4.886  0.00  0.00    -0.150 OA
BRANCH  25  28
ATOM     28  N   UNL     1       1.352   1.598   2.450  0.00  0.00    -0.216 N 
ATOM     29  H   UNL     1       1.884   1.856   1.680  0.00  0.00    +0.174 HD
BRANCH  28  34
ATOM     30  C   UNL     1      -4.309   1.638   2.126  0.00  0.00    +0.044 C 
ATOM     31  C   UNL     1      -2.805   1.627   2.212  0.00  0.00    -0.050 A 
ATOM     32  C   UNL     1      -2.179   1.981   3.394  0.00  0.00    +0.005 A 
ATOM     33  C   UNL     1      -0.800   1.972   3.476  0.00  0.00    +0.025 A 
ATOM     34  C   UNL     1      -0.042   1.608   2.370  0.00  0.00    +0.051 A 
ATOM     35  C   UNL     1      -0.674   1.254   1.185  0.00  0.00    -0.028 A 
ATOM     36  C   UNL     1      -2.053   1.269   1.108  0.00  0.00    +0.008 A 
ATOM     37  C   UNL     1       0.144   0.858  -0.017  0.00  0.00    +0.046 C 
ENDBRANCH  28  34
ENDBRANCH  25  28
ENDBRANCH   1  25
TORSDOF 5
