REMARK  Name = ZINC02317502
REMARK  10 active torsions:
REMARK  status: ('A' for Active; 'I' for Inactive)
REMARK    1  A    between atoms: C_1  and  N_2
REMARK    2  A    between atoms: C_3  and  C_23
REMARK    3  A    between atoms: C_6  and  S_7
REMARK    4  A    between atoms: S_7  and  C_8
REMARK    5  A    between atoms: C_8  and  C_9
REMARK    6  A    between atoms: N_11  and  N_12
REMARK    7  A    between atoms: C_13  and  C_14
REMARK    8  A    between atoms: C_18  and  O_21
REMARK    9  A    between atoms: C_19  and  O_20
REMARK   10  A    between atoms: O_21  and  C_22
REMARK                            x       y       z     vdW  Elec       q    Type
REMARK                         _______ _______ _______ _____ _____    ______ ____
ROOT
ATOM      1  C   UNL     1       0.538  -1.629   5.144  0.00  0.00    +0.242 C 
ATOM      2  O   UNL     1       0.575  -0.484   5.543  0.00  0.00    -0.273 OA
ATOM      3  N   UNL     1       0.629  -2.651   6.019  0.00  0.00    -0.206 N 
ATOM      4  H   UNL     1       0.599  -3.566   5.700  0.00  0.00    +0.177 HD
ENDROOT
BRANCH   3   5
ATOM      5  N   UNL     1       0.766  -2.390   7.389  0.00  0.00    -0.188 NA
ATOM      6  C   UNL     1       0.854  -3.373   8.231  0.00  0.00    +0.142 C 
BRANCH   6   7
ATOM      7  C   UNL     1       0.998  -3.099   9.672  0.00  0.00    +0.040 A 
ATOM      8  C   UNL     1       1.099  -4.155  10.582  0.00  0.00    +0.013 A 
ATOM      9  C   UNL     1       1.234  -3.894  11.928  0.00  0.00    +0.004 A 
ATOM     10  C   UNL     1       1.270  -2.589  12.387  0.00  0.00    +0.049 A 
ATOM     11  C   UNL     1       1.172  -1.531  11.497  0.00  0.00    +0.162 A 
ATOM     12  C   UNL     1       1.042  -1.778  10.136  0.00  0.00    +0.167 A 
BRANCH  12  13
ATOM     13  O   UNL     1       0.951  -0.744   9.259  0.00  0.00    -0.503 OA
ATOM     14  H   UNL     1       0.046  -0.447   9.094  0.00  0.00    +0.292 HD
ENDBRANCH  12  13
BRANCH  11  15
ATOM     15  O   UNL     1       1.208  -0.251  11.955  0.00  0.00    -0.491 OA
ATOM     16  C   UNL     1       1.350  -0.071  13.366  0.00  0.00    +0.277 C 
ENDBRANCH  11  15
ENDBRANCH   6   7
ENDBRANCH   3   5
BRANCH   1  17
ATOM     17  C   UNL     1       0.390  -1.910   3.671  0.00  0.00    +0.174 C 
BRANCH  17  18
ATOM     18  S   UNL     1       0.295  -0.342   2.764  0.00  0.00    -0.077 S 
BRANCH  18  24
ATOM     19  C   UNL     1       0.013   1.461   0.007  0.00  0.00    +0.153 C 
ATOM     20  N   UNL     1       0.015  -0.004   0.001  0.00  0.00    -0.305 N 
ATOM     21  C   UNL     1      -0.087  -0.831  -1.094  0.00  0.00    +0.165 A 
ATOM     22  N   UNL     1      -0.041  -2.065  -0.650  0.00  0.00    -0.128 NA
ATOM     23  N   UNL     1       0.081  -2.067   0.629  0.00  0.00    -0.122 NA
ATOM     24  C   UNL     1       0.126  -0.834   1.080  0.00  0.00    +0.192 A 
BRANCH  21  25
ATOM     25  C   UNL     1      -0.223  -0.408  -2.504  0.00  0.00    +0.019 A 
ATOM     26  C   UNL     1       0.143   0.883  -2.888  0.00  0.00    +0.013 A 
ATOM     27  C   UNL     1       0.014   1.271  -4.205  0.00  0.00    +0.021 A 
ATOM     28  C   UNL     1      -0.478   0.383  -5.146  0.00  0.00    +0.041 A 
ATOM     29  C   UNL     1      -0.843  -0.899  -4.772  0.00  0.00    +0.021 A 
ATOM     30  C   UNL     1      -0.713  -1.301  -3.459  0.00  0.00    +0.013 A 
ATOM     31 CL   UNL     1      -0.638   0.879  -6.802  0.00  0.00    -0.084 Cl
ENDBRANCH  21  25
ENDBRANCH  18  24
ENDBRANCH  17  18
ENDBRANCH   1  17
TORSDOF 8
