REMARK  Name = ZINC63514529
REMARK  8 active torsions:
REMARK  status: ('A' for Active; 'I' for Inactive)
REMARK    1  A    between atoms: C_1  and  C_2
REMARK    2  A    between atoms: C_4  and  C_12
REMARK    3  A    between atoms: C_12  and  C_13
REMARK    4  A    between atoms: C_13  and  N_14
REMARK    5  A    between atoms: N_14  and  S_15
REMARK    6  A    between atoms: S_15  and  C_18
REMARK    7  A    between atoms: C_21  and  S_24
REMARK    8  A    between atoms: S_24  and  N_27
REMARK                            x       y       z     vdW  Elec       q    Type
REMARK                         _______ _______ _______ _____ _____    ______ ____
ROOT
ATOM      1  N   UNL     1       0.998  -0.729  -4.977  0.00  0.00    -0.190 NA
ATOM      2  H   UNL     1       0.115  -0.395  -5.198  0.00  0.00    +0.148 HD
ENDROOT
BRANCH   1   3
ATOM      3  S   UNL     1       2.093  -1.034  -6.181  0.00  0.00    +0.058 S 
ATOM      4  O   UNL     1       1.440  -0.739  -7.409  0.00  0.00    -0.153 OA
ATOM      5  O   UNL     1       3.308  -0.407  -5.795  0.00  0.00    -0.153 OA
BRANCH   3   6
ATOM      6  C   UNL     1       2.400  -2.769  -6.179  0.00  0.00    +0.105 A 
ATOM      7  C   UNL     1       3.414  -3.291  -5.398  0.00  0.00    +0.030 A 
ATOM      8  C   UNL     1       3.654  -4.652  -5.396  0.00  0.00    +0.030 A 
ATOM      9  C   UNL     1       2.880  -5.492  -6.175  0.00  0.00    +0.105 A 
ATOM     10  C   UNL     1       1.865  -4.970  -6.956  0.00  0.00    +0.030 A 
ATOM     11  C   UNL     1       1.622  -3.610  -6.954  0.00  0.00    +0.030 A 
BRANCH   9  12
ATOM     12  S   UNL     1       3.187  -7.227  -6.174  0.00  0.00    +0.056 S 
ATOM     13  O   UNL     1       2.680  -7.730  -7.403  0.00  0.00    -0.153 OA
ATOM     14  O   UNL     1       4.542  -7.399  -5.781  0.00  0.00    -0.153 OA
BRANCH  12  15
ATOM     15  N   UNL     1       2.258  -7.888  -4.973  0.00  0.00    -0.204 NA
ATOM     16  H   UNL     1       1.687  -7.319  -4.433  0.00  0.00    +0.144 HD
ATOM     17  H   UNL     1       2.285  -8.843  -4.809  0.00  0.00    +0.144 HD
ENDBRANCH  12  15
ENDBRANCH   9  12
ENDBRANCH   3   6
ENDBRANCH   1   3
BRANCH   1  18
ATOM     18  C   UNL     1       1.364  -0.963  -3.578  0.00  0.00    +0.110 C 
BRANCH  18  19
ATOM     19  C   UNL     1       0.353  -0.268  -2.664  0.00  0.00    +0.050 C 
BRANCH  19  22
ATOM     20  C   UNL     1      -0.019   1.526   0.010  0.00  0.00    +0.035 C 
ATOM     21  C   UNL     1       0.002  -0.004   0.002  0.00  0.00    +0.103 C 
ATOM     22  C   UNL     1       0.729  -0.509  -1.224  0.00  0.00    -0.037 C 
ATOM     23  C   UNL     1       1.785  -1.220  -0.768  0.00  0.00    -0.001 A 
ATOM     24  C   UNL     1       2.858  -1.954  -1.449  0.00  0.00    +0.010 A 
ATOM     25  C   UNL     1       3.797  -2.583  -0.705  0.00  0.00    +0.001 A 
ATOM     26  C   UNL     1       3.770  -2.551   0.696  0.00  0.00    +0.002 A 
ATOM     27  C   UNL     1       2.817  -1.897   1.393  0.00  0.00    +0.026 A 
ATOM     28  C   UNL     1       1.780  -1.201   0.712  0.00  0.00    +0.043 A 
ATOM     29  N   UNL     1       0.758  -0.506   1.155  0.00  0.00    -0.378 N 
ATOM     30  H   UNL     1       0.540  -0.349   2.087  0.00  0.00    +0.160 HD
ENDBRANCH  19  22
ENDBRANCH  18  19
ENDBRANCH   1  18
TORSDOF 7
