REMARK  Name = ZINC08762143
REMARK  12 active torsions:
REMARK  status: ('A' for Active; 'I' for Inactive)
REMARK    1  A    between atoms: C_1  and  C_2
REMARK    2  A    between atoms: C_13  and  O_15
REMARK    3  A    between atoms: N_21  and  O_22
REMARK    4  A    between atoms: O_22  and  C_23
REMARK    5  A    between atoms: C_23  and  C_24
REMARK    6  A    between atoms: N_26  and  C_27
REMARK    7  A    between atoms: C_27  and  C_29
REMARK    8  A    between atoms: C_27  and  C_36
REMARK    9  A    between atoms: C_29  and  C_30
REMARK   10  A    between atoms: C_36  and  O_38
REMARK   11  A    between atoms: O_38  and  C_39
REMARK   12  A    between atoms: C_42  and  C_43
REMARK                            x       y       z     vdW  Elec       q    Type
REMARK                         _______ _______ _______ _____ _____    ______ ____
ROOT
ATOM      1  C   UNL     1      -0.921   5.905  -2.159  0.00  0.00    +0.014 C 
ATOM      2  C   UNL     1      -2.160   5.014  -2.245  0.00  0.00    -0.003 C 
ATOM      3  C   UNL     1      -3.056   5.228  -1.044  0.00  0.00    +0.010 C 
ATOM      4  C   UNL     1      -2.890   4.039  -0.080  0.00  0.00    +0.005 C 
ATOM      5  C   UNL     1      -1.409   3.703   0.064  0.00  0.00    +0.002 C 
ATOM      6  C   UNL     1      -0.856   3.118  -1.218  0.00  0.00    -0.003 C 
ATOM      7  C   UNL     1      -1.786   3.521  -2.357  0.00  0.00    +0.001 C 
ATOM      8  C   UNL     1      -1.150   3.451  -3.754  0.00  0.00    +0.007 C 
ATOM      9  C   UNL     1      -2.033   4.405  -4.601  0.00  0.00    +0.032 C 
ATOM     10  C   UNL     1      -2.844   5.263  -3.600  0.00  0.00    +0.121 C 
ATOM     11  C   UNL     1      -0.768   1.597  -1.211  0.00  0.00    +0.008 C 
ATOM     12  C   UNL     1      -0.013   1.087   0.008  0.00  0.00    +0.031 C 
ATOM     13  C   UNL     1      -0.741   1.578   1.245  0.00  0.00    -0.062 C 
ATOM     14  C   UNL     1      -1.078   0.678   2.164  0.00  0.00    +0.026 C 
ATOM     15  C   UNL     1      -1.708   1.089   3.429  0.00  0.00    +0.080 C 
ATOM     16  N   UNL     1      -2.177   0.206   4.259  0.00  0.00    -0.089 NA
ATOM     17  C   UNL     1      -1.793   2.568   3.733  0.00  0.00    +0.059 C 
ATOM     18  C   UNL     1      -2.094   3.318   2.438  0.00  0.00    +0.017 C 
ATOM     19  C   UNL     1      -1.058   3.031   1.362  0.00  0.00    -0.007 C 
ATOM     20  C   UNL     1       0.235   3.707   1.839  0.00  0.00    +0.016 C 
ENDROOT
BRANCH  10  21
ATOM     21  O   UNL     1      -2.759   6.645  -3.945  0.00  0.00    -0.391 OA
ATOM     22  H   UNL     1      -3.120   6.856  -4.817  0.00  0.00    +0.210 HD
ENDBRANCH  10  21
BRANCH  16  23
ATOM     23  O   UNL     1      -2.086  -1.173   3.952  0.00  0.00    -0.384 OA
BRANCH  23  24
ATOM     24  C   UNL     1      -2.642  -2.029   4.953  0.00  0.00    +0.358 C 
BRANCH  24  25
ATOM     25  C   UNL     1      -2.491  -3.466   4.525  0.00  0.00    +0.254 C 
ATOM     26  O   UNL     1      -1.961  -3.731   3.467  0.00  0.00    -0.272 OA
ATOM     27  N   UNL     1      -2.947  -4.456   5.317  0.00  0.00    -0.299 N 
ATOM     28  H   UNL     1      -3.371  -4.244   6.163  0.00  0.00    +0.150 HD
BRANCH  27  29
ATOM     29  C   UNL     1      -2.801  -5.853   4.901  0.00  0.00    +0.186 C 
BRANCH  29  30
ATOM     30  C   UNL     1      -3.953  -6.234   4.008  0.00  0.00    +0.328 C 
ATOM     31  O   UNL     1      -4.809  -5.422   3.746  0.00  0.00    -0.249 OA
BRANCH  30  32
ATOM     32  O   UNL     1      -4.029  -7.476   3.503  0.00  0.00    -0.467 OA
ATOM     33  C   UNL     1      -5.167  -7.772   2.651  0.00  0.00    +0.280 C 
ENDBRANCH  30  32
ENDBRANCH  29  30
BRANCH  29  34
ATOM     34  C   UNL     1      -2.793  -6.755   6.137  0.00  0.00    +0.069 C 
BRANCH  34  35
ATOM     35  C   UNL     1      -1.572  -6.457   6.968  0.00  0.00    -0.045 A 
ATOM     36  C   UNL     1      -0.398  -7.152   6.746  0.00  0.00    +0.004 A 
ATOM     37  C   UNL     1       0.723  -6.875   7.506  0.00  0.00    +0.000 A 
ATOM     38  C   UNL     1       0.667  -5.912   8.495  0.00  0.00    +0.000 A 
ATOM     39  C   UNL     1      -0.509  -5.221   8.721  0.00  0.00    +0.000 A 
ATOM     40  C   UNL     1      -1.628  -5.494   7.958  0.00  0.00    +0.004 A 
ENDBRANCH  34  35
ENDBRANCH  29  34
ENDBRANCH  27  29
ENDBRANCH  24  25
ENDBRANCH  23  24
ENDBRANCH  16  23
TORSDOF 9
