REMARK  Name = ZINC40475602
REMARK  5 active torsions:
REMARK  status: ('A' for Active; 'I' for Inactive)
REMARK    1  A    between atoms: C_1  and  C_2
REMARK    2  A    between atoms: C_2  and  O_3
REMARK    3  A    between atoms: O_3  and  C_4
REMARK    4  A    between atoms: C_6  and  C_11
REMARK    5  A    between atoms: C_9  and  O_10
REMARK                            x       y       z     vdW  Elec       q    Type
REMARK                         _______ _______ _______ _____ _____    ______ ____
ROOT
ATOM      1  C   UNL     1       0.654  -4.954  -0.018  0.00  0.00    +0.072 C 
ATOM      2  C   UNL     1       0.650  -5.737   1.232  0.00  0.00    +0.032 A 
ATOM      3  C   UNL     1       0.972  -7.044   1.440  0.00  0.00    +0.110 A 
ATOM      4  N   UNL     1       0.934  -7.444   2.710  0.00  0.00    -0.225 NA
ATOM      5  C   UNL     1       0.561  -6.637   3.679  0.00  0.00    +0.147 A 
ATOM      6  S   UNL     1       0.439  -6.980   5.403  0.00  0.00    -0.023 SA
ATOM      7  S   UNL     1       0.229  -5.197   2.873  0.00  0.00    -0.063 S 
ATOM      8  S   UNL     1       1.366  -8.089   0.061  0.00  0.00    -0.091 S 
ATOM      9  C   UNL     1       1.581  -6.960  -1.304  0.00  0.00    +0.153 C 
ATOM     10  C   UNL     1       0.637  -5.753  -1.319  0.00  0.00    +0.112 C 
ATOM     11  C   UNL     1       1.454  -4.864  -2.285  0.00  0.00    +0.245 C 
ATOM     12  O   UNL     1       0.965  -3.891  -3.069  0.00  0.00    -0.273 OA
ATOM     13  N   UNL     1       2.708  -5.230  -2.202  0.00  0.00    -0.145 NA
ATOM     14  C   UNL     1       2.926  -6.312  -1.437  0.00  0.00    +0.253 C 
ATOM     15  O   UNL     1       3.981  -6.685  -0.967  0.00  0.00    -0.272 OA
ENDROOT
BRANCH   1  18
ATOM     16  C   UNL     1      -1.498  -1.849   0.006  0.00  0.00    +0.162 A 
ATOM     17  C   UNL     1      -0.389  -2.680  -0.003  0.00  0.00    +0.053 A 
ATOM     18  C   UNL     1      -0.553  -4.052  -0.008  0.00  0.00    -0.035 A 
ATOM     19  C   UNL     1      -1.823  -4.600  -0.005  0.00  0.00    +0.008 A 
ATOM     20  C   UNL     1      -2.934  -3.777   0.004  0.00  0.00    +0.049 A 
ATOM     21  C   UNL     1      -2.776  -2.400   0.016  0.00  0.00    +0.158 A 
BRANCH  21  22
ATOM     22  O   UNL     1      -3.868  -1.589   0.030  0.00  0.00    -0.503 OA
ATOM     23  H   UNL     1      -4.192  -1.350  -0.849  0.00  0.00    +0.292 HD
ENDBRANCH  21  22
BRANCH  16  24
ATOM     24  O   UNL     1      -1.339  -0.499   0.012  0.00  0.00    -0.489 OA
BRANCH  24  26
ATOM     25  C   UNL     1      -0.019   1.526   0.010  0.00  0.00    +0.048 C 
ATOM     26  C   UNL     1       0.002  -0.004   0.002  0.00  0.00    +0.226 C 
ENDBRANCH  24  26
ENDBRANCH  16  24
ENDBRANCH   1  18
TORSDOF 4
