REMARK  Name = ZINC15973783
REMARK  5 active torsions:
REMARK  status: ('A' for Active; 'I' for Inactive)
REMARK    1  A    between atoms: C_4  and  N_7
REMARK    2  A    between atoms: N_9  and  C_20
REMARK    3  A    between atoms: C_10  and  C_13
REMARK    4  A    between atoms: C_20  and  C_21
REMARK    5  A    between atoms: C_21  and  O_22
REMARK                            x       y       z     vdW  Elec       q    Type
REMARK                         _______ _______ _______ _____ _____    ______ ____
ROOT
ATOM      1  N   UNL     1      -0.068  -0.060  -0.498  0.00  0.00    -0.336 N 
ATOM      2  C   UNL     1      -1.165  -0.709  -0.156  0.00  0.00    +0.152 A 
ATOM      3  N   UNL     1      -1.372  -2.063  -0.038  0.00  0.00    -0.319 N 
ATOM      4  C   UNL     1      -2.611  -2.508   0.335  0.00  0.00    +0.058 A 
ATOM      5  C   UNL     1      -3.594  -1.617   0.577  0.00  0.00    +0.075 A 
ATOM      6  S   UNL     1      -2.770  -0.061   0.282  0.00  0.00    -0.059 S 
ATOM      7  H   UNL     1       0.825  -0.618  -0.817  0.00  0.00    +0.168 HD
ENDROOT
BRANCH   4   8
ATOM      8  C   UNL     1      -2.871  -3.958   0.472  0.00  0.00    -0.001 A 
ATOM      9  C   UNL     1      -2.566  -4.826  -0.578  0.00  0.00    +0.013 A 
ATOM     10  C   UNL     1      -2.805  -6.178  -0.443  0.00  0.00    +0.039 A 
ATOM     11  C   UNL     1      -3.358  -6.672   0.728  0.00  0.00    +0.123 A 
ATOM     12  C   UNL     1      -3.668  -5.814   1.770  0.00  0.00    +0.039 A 
ATOM     13  C   UNL     1      -3.427  -4.461   1.648  0.00  0.00    +0.013 A 
ATOM     14  F   UNL     1      -3.595  -7.997   0.853  0.00  0.00    -0.205 F 
ENDBRANCH   4   8
BRANCH   1  18
ATOM     15  C   UNL     1       0.013   4.074  -0.370  0.00  0.00    +0.000 A 
ATOM     16  C   UNL     1       0.282   3.345   0.775  0.00  0.00    +0.002 A 
ATOM     17  C   UNL     1       0.256   1.966   0.740  0.00  0.00    +0.025 A 
ATOM     18  C   UNL     1      -0.042   1.306  -0.456  0.00  0.00    +0.041 A 
ATOM     19  C   UNL     1      -0.306   2.050  -1.609  0.00  0.00    +0.025 A 
ATOM     20  C   UNL     1      -0.282   3.428  -1.557  0.00  0.00    +0.002 A 
ENDBRANCH   1  18
BRANCH   3  21
ATOM     21  C   UNL     1      -0.287  -3.011  -0.306  0.00  0.00    +0.152 C 
BRANCH  21  22
ATOM     22  C   UNL     1       0.394  -3.391   1.010  0.00  0.00    +0.177 C 
BRANCH  22  23
ATOM     23  O   UNL     1       1.452  -4.316   0.748  0.00  0.00    -0.393 OA
ATOM     24  H   UNL     1       2.060  -4.705   1.578  0.00  0.00    +0.209 HD
ENDBRANCH  22  23
ENDBRANCH  21  22
ENDBRANCH   3  21
TORSDOF 5
