REMARK  Name = ZINC03405567
REMARK  8 active torsions:
REMARK  status: ('A' for Active; 'I' for Inactive)
REMARK    1  A    between atoms: C_1  and  C_2
REMARK    2  A    between atoms: C_4  and  C_14
REMARK    3  A    between atoms: C_5  and  C_13
REMARK    4  A    between atoms: N_6  and  C_7
REMARK    5  A    between atoms: C_14  and  C_16
REMARK    6  A    between atoms: C_16  and  N_17
REMARK    7  A    between atoms: N_22  and  C_25
REMARK    8  A    between atoms: C_25  and  C_26
REMARK                            x       y       z     vdW  Elec       q    Type
REMARK                         _______ _______ _______ _____ _____    ______ ____
ROOT
ATOM      1  C   UNL     1      -1.596  -1.163  -1.410  0.00  0.00    +0.183 C 
ATOM      2  O   UNL     1      -0.969  -0.691  -2.336  0.00  0.00    -0.290 OA
ENDROOT
BRANCH   1   6
ATOM      3  C   UNL     1      -5.663  -4.163  -0.759  0.00  0.00    +0.064 C 
ATOM      4  C   UNL     1      -4.554  -3.340  -1.365  0.00  0.00    +0.022 A 
ATOM      5  C   UNL     1      -3.622  -2.662  -0.675  0.00  0.00    +0.034 A 
ATOM      6  C   UNL     1      -2.758  -2.015  -1.671  0.00  0.00    +0.040 A 
ATOM      7  C   UNL     1      -3.269  -2.370  -2.905  0.00  0.00    +0.031 A 
ATOM      8  N   UNL     1      -4.338  -3.165  -2.703  0.00  0.00    -0.317 N 
ATOM      9  C   UNL     1      -2.725  -1.944  -4.244  0.00  0.00    +0.064 C 
BRANCH   8  10
ATOM     10  C   UNL     1      -5.119  -3.729  -3.721  0.00  0.00    +0.047 A 
ATOM     11  C   UNL     1      -4.565  -4.660  -4.589  0.00  0.00    +0.026 A 
ATOM     12  C   UNL     1      -5.340  -5.218  -5.587  0.00  0.00    +0.002 A 
ATOM     13  C   UNL     1      -6.663  -4.841  -5.729  0.00  0.00    +0.000 A 
ATOM     14  C   UNL     1      -7.216  -3.910  -4.870  0.00  0.00    +0.002 A 
ATOM     15  C   UNL     1      -6.448  -3.353  -3.866  0.00  0.00    +0.026 A 
ENDBRANCH   8  10
ENDBRANCH   1   6
BRANCH   1  16
ATOM     16  C   UNL     1      -1.178  -0.872   0.009  0.00  0.00    +0.198 C 
BRANCH  16  17
ATOM     17  N   UNL     1       0.002  -0.004   0.002  0.00  0.00    -0.210 N 
ATOM     18  C   UNL     1      -0.016   1.346   0.009  0.00  0.00    +0.310 C 
ATOM     19  O   UNL     1      -0.991   2.068   0.018  0.00  0.00    -0.264 OA
ATOM     20  C   UNL     1       1.424   1.765  -0.002  0.00  0.00    +0.310 C 
ATOM     21  O   UNL     1       1.860   2.897  -0.001  0.00  0.00    -0.264 OA
ATOM     22  N   UNL     1       2.132   0.615  -0.015  0.00  0.00    -0.210 N 
ATOM     23  C   UNL     1       1.278  -0.421  -0.012  0.00  0.00    +0.319 C 
ATOM     24  O   UNL     1       1.617  -1.587  -0.022  0.00  0.00    -0.252 OA
BRANCH  22  25
ATOM     25  C   UNL     1       3.594   0.515  -0.030  0.00  0.00    +0.192 C 
BRANCH  25  26
ATOM     26  C   UNL     1       4.081   0.489  -1.456  0.00  0.00    +0.123 A 
ATOM     27  C   UNL     1       4.405   1.564  -2.196  0.00  0.00    +0.046 A 
ATOM     28  C   UNL     1       4.810   1.082  -3.462  0.00  0.00    +0.041 A 
ATOM     29  C   UNL     1       4.702  -0.258  -3.422  0.00  0.00    +0.195 A 
ATOM     30  O   UNL     1       4.260  -0.612  -2.204  0.00  0.00    -0.466 OA
ENDBRANCH  25  26
ENDBRANCH  22  25
ENDBRANCH  16  17
ENDBRANCH   1  16
TORSDOF 6
