REMARK  Name = ZINC14654535
REMARK  6 active torsions:
REMARK  status: ('A' for Active; 'I' for Inactive)
REMARK    1  A    between atoms: C_1  and  C_2
REMARK    2  A    between atoms: C_2  and  O_3
REMARK    3  A    between atoms: O_3  and  C_4
REMARK    4  A    between atoms: C_9  and  C_10
REMARK    5  A    between atoms: N_12  and  C_13
REMARK    6  A    between atoms: C_14  and  C_22
REMARK                            x       y       z     vdW  Elec       q    Type
REMARK                         _______ _______ _______ _____ _____    ______ ____
ROOT
ATOM      1  C   UNL     1      -1.262  -0.763   0.011  0.00  0.00    +0.252 C 
ATOM      2  O   UNL     1      -1.242  -1.979   0.004  0.00  0.00    -0.270 OA
ATOM      3  N   UNL     1      -2.441  -0.109   0.026  0.00  0.00    -0.275 N 
ATOM      4  H   UNL     1      -2.457   0.861   0.031  0.00  0.00    +0.156 HD
ENDROOT
BRANCH   3   5
ATOM      5  C   UNL     1      -3.629  -0.822   0.034  0.00  0.00    +0.085 A 
ATOM      6  C   UNL     1      -4.928  -0.333   0.055  0.00  0.00    +0.068 A 
ATOM      7  C   UNL     1      -6.010  -1.303   0.055  0.00  0.00    -0.023 A 
ATOM      8  C   UNL     1      -5.623  -2.597   0.045  0.00  0.00    -0.004 A 
ATOM      9  S   UNL     1      -3.853  -2.540   0.027  0.00  0.00    -0.077 S 
ATOM     10  C   UNL     1      -6.508  -3.805   0.049  0.00  0.00    +0.043 C 
ATOM     11  C   UNL     1      -7.925  -3.364   0.444  0.00  0.00    +0.005 C 
ATOM     12  C   UNL     1      -8.308  -2.133  -0.383  0.00  0.00    +0.005 C 
ATOM     13  C   UNL     1      -7.486  -0.926   0.071  0.00  0.00    +0.037 C 
BRANCH   6  14
ATOM     14  C   UNL     1      -5.198   1.108   0.072  0.00  0.00    +0.244 C 
ATOM     15  O   UNL     1      -5.324   1.716  -0.975  0.00  0.00    -0.270 OA
ATOM     16  N   UNL     1      -5.307   1.759   1.247  0.00  0.00    -0.325 N 
ATOM     17  H   UNL     1      -5.206   1.274   2.081  0.00  0.00    +0.145 HD
ATOM     18  H   UNL     1      -5.486   2.712   1.258  0.00  0.00    +0.145 HD
ENDBRANCH   6  14
ENDBRANCH   3   5
BRANCH   1  24
ATOM     19  C   UNL     1       1.230  -0.680  -0.013  0.00  0.00    +0.133 A 
ATOM     20  C   UNL     1       2.413   0.043  -0.021  0.00  0.00    +0.047 A 
ATOM     21  C   UNL     1       2.381   1.423  -0.013  0.00  0.00    +0.019 A 
ATOM     22  C   UNL     1       1.169   2.096   0.002  0.00  0.00    +0.019 A 
ATOM     23  C   UNL     1      -0.017   1.393   0.010  0.00  0.00    +0.032 A 
ATOM     24  C   UNL     1       0.002  -0.004   0.002  0.00  0.00    +0.080 A 
ATOM     25 BR   UNL     1       1.142   3.987   0.012  0.00  0.00    -0.050 Br
BRANCH  19  26
ATOM     26  O   UNL     1       1.260  -2.037  -0.021  0.00  0.00    -0.491 OA
BRANCH  26  28
ATOM     27  C   UNL     1       2.382  -4.177  -0.042  0.00  0.00    +0.048 C 
ATOM     28  C   UNL     1       2.548  -2.656  -0.036  0.00  0.00    +0.226 C 
ENDBRANCH  26  28
ENDBRANCH  19  26
ENDBRANCH   1  24
TORSDOF 5
