REMARK  Name = ZINC65248667
REMARK  4 active torsions:
REMARK  status: ('A' for Active; 'I' for Inactive)
REMARK    1  A    between atoms: C_1  and  C_2
REMARK    2  A    between atoms: C_9  and  C_15
REMARK    3  A    between atoms: C_11  and  O_14
REMARK    4  A    between atoms: C_18  and  C_21
REMARK                            x       y       z     vdW  Elec       q    Type
REMARK                         _______ _______ _______ _____ _____    ______ ____
ROOT
ATOM      1  C   UNL     1      -0.018   1.503   0.010  0.00  0.00    +0.044 C 
ATOM      2  C   UNL     1       0.002  -0.004   0.002  0.00  0.00    -0.050 A 
ATOM      3  C   UNL     1       0.005  -0.679  -1.214  0.00  0.00    +0.005 A 
ATOM      4  C   UNL     1       0.024  -2.040  -1.281  0.00  0.00    +0.024 A 
ATOM      5  C   UNL     1       0.041  -2.800  -0.099  0.00  0.00    +0.044 A 
ATOM      6  N   UNL     1       0.059  -4.137  -0.166  0.00  0.00    -0.284 N 
ATOM      7  C   UNL     1       0.075  -4.920   0.894  0.00  0.00    +0.233 C 
ATOM      8  O   UNL     1       0.092  -6.129   0.757  0.00  0.00    -0.274 OA
ATOM      9  C   UNL     1       0.073  -4.316   2.280  0.00  0.00    +0.202 C 
ATOM     10  C   UNL     1       0.052  -2.803   2.381  0.00  0.00    +0.120 C 
ATOM     11  C   UNL     1       0.037  -2.087   1.182  0.00  0.00    +0.035 A 
ATOM     12  C   UNL     1       0.022  -0.677   1.185  0.00  0.00    +0.016 A 
ATOM     13  H   UNL     1       0.061  -4.553  -1.043  0.00  0.00    +0.155 HD
ENDROOT
BRANCH   9  14
ATOM     14  C   UNL     1       1.319  -4.818   3.012  0.00  0.00    +0.311 C 
ATOM     15  N   UNL     1       1.383  -6.287   2.969  0.00  0.00    -0.288 N 
ATOM     16  C   UNL     1       2.548  -6.617   2.300  0.00  0.00    +0.169 C 
ATOM     17  N   UNL     1       3.193  -5.557   1.935  0.00  0.00    -0.067 NA
ATOM     18  O   UNL     1       2.508  -4.383   2.335  0.00  0.00    -0.368 OA
ATOM     19  H   UNL     1       0.734  -6.906   3.338  0.00  0.00    +0.151 HD
BRANCH  16  20
ATOM     20  C   UNL     1       2.998  -8.002   2.036  0.00  0.00    +0.032 A 
ATOM     21  C   UNL     1       2.228  -9.082   2.467  0.00  0.00    +0.012 A 
ATOM     22  C   UNL     1       2.652 -10.371   2.218  0.00  0.00    +0.001 A 
ATOM     23  C   UNL     1       3.840 -10.594   1.544  0.00  0.00    +0.001 A 
ATOM     24  C   UNL     1       4.609  -9.528   1.114  0.00  0.00    +0.016 A 
ATOM     25  C   UNL     1       4.192  -8.233   1.351  0.00  0.00    +0.028 A 
ATOM     26 BR   UNL     1       5.240  -6.776   0.757  0.00  0.00    -0.050 Br
ENDBRANCH  16  20
ENDBRANCH   9  14
BRANCH  10  27
ATOM     27  O   UNL     1       0.049  -2.182   3.565  0.00  0.00    -0.509 OA
ATOM     28  H   UNL     1       0.035  -1.217   3.503  0.00  0.00    +0.292 HD
ENDBRANCH  10  27
TORSDOF 3
