REMARK  Name = ZINC63256622
REMARK  6 active torsions:
REMARK  status: ('A' for Active; 'I' for Inactive)
REMARK    1  A    between atoms: C_1  and  C_2
REMARK    2  A    between atoms: C_3  and  C_19
REMARK    3  A    between atoms: N_6  and  C_8
REMARK    4  A    between atoms: C_12  and  C_14
REMARK    5  A    between atoms: N_20  and  N_21
REMARK    6  A    between atoms: C_22  and  C_24
REMARK                            x       y       z     vdW  Elec       q    Type
REMARK                         _______ _______ _______ _____ _____    ______ ____
ROOT
ATOM      1  C   UNL     1      -0.018   1.503   0.010  0.00  0.00    +0.062 C 
ATOM      2  C   UNL     1       0.002  -0.004   0.002  0.00  0.00    +0.027 C 
ATOM      3  C   UNL     1      -1.099  -0.775   0.003  0.00  0.00    +0.027 C 
ATOM      4  C   UNL     1      -0.633  -2.214  -0.008  0.00  0.00    +0.218 C 
ATOM      5  N   UNL     1       0.837  -2.125  -0.015  0.00  0.00    -0.231 N 
ATOM      6  N   UNL     1       1.144  -0.758  -0.013  0.00  0.00    -0.266 N 
ATOM      7 CL   UNL     1      -1.222  -3.056  -1.490  0.00  0.00    -0.094 Cl
ATOM      8  H   UNL     1       2.043  -0.395  -0.020  0.00  0.00    +0.170 HD
ENDROOT
BRANCH   5   9
ATOM      9  C   UNL     1       1.742  -3.188  -0.026  0.00  0.00    +0.050 A 
ATOM     10  C   UNL     1       1.278  -4.498  -0.037  0.00  0.00    +0.025 A 
ATOM     11  C   UNL     1       2.176  -5.546  -0.048  0.00  0.00    +0.002 A 
ATOM     12  C   UNL     1       3.536  -5.295  -0.047  0.00  0.00    +0.012 A 
ATOM     13  C   UNL     1       4.001  -3.993  -0.036  0.00  0.00    +0.057 A 
ATOM     14  C   UNL     1       3.108  -2.939  -0.031  0.00  0.00    +0.037 A 
BRANCH  13  15
ATOM     15  C   UNL     1       5.484  -3.723  -0.035  0.00  0.00    +0.417 C 
ATOM     16  F   UNL     1       6.179  -4.938  -0.047  0.00  0.00    -0.166 F 
ATOM     17  F   UNL     1       5.824  -2.981  -1.171  0.00  0.00    -0.166 F 
ATOM     18  F   UNL     1       5.826  -3.001   1.113  0.00  0.00    -0.166 F 
ENDBRANCH  13  15
ENDBRANCH   5   9
BRANCH   3  19
ATOM     19  C   UNL     1      -2.442  -0.325   0.013  0.00  0.00    +0.138 C 
ATOM     20  N   UNL     1      -2.701   0.954   0.021  0.00  0.00    -0.188 NA
BRANCH  20  21
ATOM     21  N   UNL     1      -4.030   1.399   0.030  0.00  0.00    -0.203 N 
ATOM     22  C   UNL     1      -4.298   2.720   0.039  0.00  0.00    +0.262 C 
ATOM     23  O   UNL     1      -3.385   3.526   0.039  0.00  0.00    -0.269 OA
ATOM     24  H   UNL     1      -4.756   0.756   0.031  0.00  0.00    +0.178 HD
BRANCH  22  25
ATOM     25  C   UNL     1      -5.686   3.185   0.049  0.00  0.00    +0.044 C 
ATOM     26  C   UNL     1      -6.127   4.493   0.053  0.00  0.00    +0.008 A 
ATOM     27  C   UNL     1      -5.449   5.737   0.050  0.00  0.00    +0.010 A 
ATOM     28  C   UNL     1      -6.149   6.893   0.056  0.00  0.00    +0.001 A 
ATOM     29  C   UNL     1      -7.551   6.924   0.067  0.00  0.00    +0.002 A 
ATOM     30  C   UNL     1      -8.292   5.793   0.070  0.00  0.00    +0.026 A 
ATOM     31  C   UNL     1      -7.609   4.491   0.063  0.00  0.00    +0.043 A 
ATOM     32  N   UNL     1      -8.064   3.268   0.066  0.00  0.00    -0.380 N 
ATOM     33  C   UNL     1      -6.935   2.332   0.050  0.00  0.00    +0.154 C 
ATOM     34  H   UNL     1      -9.002   3.017   0.072  0.00  0.00    +0.160 HD
ENDBRANCH  22  25
ENDBRANCH  20  21
ENDBRANCH   3  19
TORSDOF 5
