REMARK  Name = ZINC35172348
REMARK  14 active torsions:
REMARK  status: ('A' for Active; 'I' for Inactive)
REMARK    1  A    between atoms: C_1  and  C_2
REMARK    2  A    between atoms: C_5  and  C_8
REMARK    3  A    between atoms: C_9  and  N_25
REMARK    4  A    between atoms: C_14  and  O_17
REMARK    5  A    between atoms: O_17  and  C_18
REMARK    6  A    between atoms: C_18  and  C_19
REMARK    7  A    between atoms: N_25  and  C_26
REMARK    8  A    between atoms: C_26  and  C_27
REMARK    9  A    between atoms: C_26  and  C_28
REMARK   10  A    between atoms: C_26  and  C_29
REMARK   11  A    between atoms: C_29  and  C_30
REMARK   12  A    between atoms: C_30  and  C_31
REMARK   13  A    between atoms: C_30  and  C_32
REMARK   14  A    between atoms: C_30  and  C_33
REMARK                            x       y       z     vdW  Elec       q    Type
REMARK                         _______ _______ _______ _____ _____    ______ ____
ROOT
ATOM      1  C   UNL     1       0.168  -6.700   1.487  0.00  0.00    +0.087 A 
ATOM      2  C   UNL     1      -1.130  -6.670   1.953  0.00  0.00    +0.129 A 
ATOM      3  N   UNL     1      -1.592  -7.956   1.919  0.00  0.00    -0.286 N 
ATOM      4  C   UNL     1      -2.798  -8.513   2.260  0.00  0.00    +0.094 A 
ATOM      5  C   UNL     1      -3.005  -9.838   2.129  0.00  0.00    +0.022 A 
ATOM      6  C   UNL     1      -1.986 -10.673   1.638  0.00  0.00    +0.051 A 
ATOM      7  C   UNL     1      -0.780 -10.137   1.292  0.00  0.00    +0.162 A 
ATOM      8  C   UNL     1      -0.574  -8.744   1.435  0.00  0.00    +0.160 A 
ATOM      9  N   UNL     1       0.469  -7.974   1.177  0.00  0.00    -0.335 N 
ATOM     10  H   UNL     1       1.319  -8.280   0.822  0.00  0.00    +0.167 HD
ENDROOT
BRANCH   1  15
ATOM     11  C   UNL     1       3.673  -2.164   0.943  0.00  0.00    +0.044 C 
ATOM     12  C   UNL     1       2.755  -3.352   1.086  0.00  0.00    -0.050 A 
ATOM     13  C   UNL     1       2.689  -4.296   0.077  0.00  0.00    +0.004 A 
ATOM     14  C   UNL     1       1.851  -5.385   0.201  0.00  0.00    +0.010 A 
ATOM     15  C   UNL     1       1.070  -5.533   1.347  0.00  0.00    +0.002 A 
ATOM     16  C   UNL     1       1.142  -4.578   2.361  0.00  0.00    +0.010 A 
ATOM     17  C   UNL     1       1.987  -3.496   2.227  0.00  0.00    +0.004 A 
ENDBRANCH   1  15
BRANCH   2  18
ATOM     18  N   UNL     1      -1.835  -5.545   2.379  0.00  0.00    -0.323 N 
ATOM     19  H   UNL     1      -1.465  -4.659   2.239  0.00  0.00    +0.148 HD
BRANCH  18  20
ATOM     20  C   UNL     1      -3.134  -5.700   3.038  0.00  0.00    +0.028 C 
ATOM     21  C   UNL     1      -4.148  -6.263   2.040  0.00  0.00    +0.031 C 
ATOM     22  C   UNL     1      -2.995  -6.661   4.220  0.00  0.00    +0.031 C 
BRANCH  20  23
ATOM     23  C   UNL     1      -3.617  -4.338   3.542  0.00  0.00    +0.031 C 
BRANCH  23  24
ATOM     24  C   UNL     1      -2.428  -3.547   4.092  0.00  0.00    -0.036 C 
ATOM     25  C   UNL     1      -1.852  -2.658   2.989  0.00  0.00    +0.010 C 
ATOM     26  C   UNL     1      -2.892  -2.675   5.260  0.00  0.00    +0.010 C 
ATOM     27  C   UNL     1      -1.350  -4.519   4.578  0.00  0.00    +0.010 C 
ENDBRANCH  23  24
ENDBRANCH  20  23
ENDBRANCH  18  20
ENDBRANCH   2  18
BRANCH   7  28
ATOM     28  O   UNL     1       0.214 -10.933   0.817  0.00  0.00    -0.484 OA
BRANCH  28  29
ATOM     29  C   UNL     1      -0.071 -12.329   0.703  0.00  0.00    +0.264 C 
BRANCH  29  30
ATOM     30  C   UNL     1       1.139 -13.046   0.163  0.00  0.00    -0.010 A 
ATOM     31  C   UNL     1       1.301 -13.198  -1.202  0.00  0.00    +0.007 A 
ATOM     32  C   UNL     1       2.411 -13.856  -1.697  0.00  0.00    +0.000 A 
ATOM     33  C   UNL     1       3.360 -14.362  -0.829  0.00  0.00    +0.000 A 
ATOM     34  C   UNL     1       3.199 -14.209   0.536  0.00  0.00    +0.000 A 
ATOM     35  C   UNL     1       2.091 -13.547   1.031  0.00  0.00    +0.007 A 
ENDBRANCH  29  30
ENDBRANCH  28  29
ENDBRANCH   7  28
TORSDOF 8
