REMARK  Name = ZINC67516727
REMARK  3 active torsions:
REMARK  status: ('A' for Active; 'I' for Inactive)
REMARK    1  A    between atoms: C_1  and  C_2
REMARK    2  A    between atoms: C_5  and  C_8
REMARK    3  A    between atoms: C_20  and  C_23
REMARK                            x       y       z     vdW  Elec       q    Type
REMARK                         _______ _______ _______ _____ _____    ______ ____
ROOT
ATOM      1  C   UNL     1       0.058  -4.162  -0.080  0.00  0.00    +0.267 C 
ATOM      2  O   UNL     1       0.128  -4.775   0.967  0.00  0.00    -0.268 OA
ATOM      3  N   UNL     1      -0.041  -4.830  -1.246  0.00  0.00    -0.293 N 
ATOM      4  C   UNL     1      -0.053  -4.112  -2.530  0.00  0.00    +0.108 C 
ATOM      5  C   UNL     1      -1.284  -4.541  -3.333  0.00  0.00    +0.019 C 
ATOM      6  C   UNL     1      -1.311  -6.067  -3.460  0.00  0.00    +0.007 C 
ATOM      7  C   UNL     1      -1.389  -6.685  -2.065  0.00  0.00    +0.010 C 
ATOM      8  C   UNL     1      -0.133  -6.294  -1.271  0.00  0.00    +0.079 C 
ATOM      9  C   UNL     1      -0.243  -6.849   0.148  0.00  0.00    +0.023 C 
ATOM     10  C   UNL     1      -0.331  -8.377   0.081  0.00  0.00    +0.005 C 
ATOM     11  C   UNL     1      -1.555  -8.792  -0.735  0.00  0.00    -0.014 C 
ATOM     12  C   UNL     1      -1.461  -8.209  -2.152  0.00  0.00    +0.008 C 
ATOM     13  C   UNL     1      -1.620 -10.318  -0.815  0.00  0.00    +0.007 C 
ENDROOT
BRANCH   1  18
ATOM     14  C   UNL     1       0.128   1.503  -0.008  0.00  0.00    +0.067 C 
ATOM     15  C   UNL     1       0.104  -0.004  -0.012  0.00  0.00    +0.056 A 
ATOM     16  C   UNL     1       0.515  -0.699  -1.141  0.00  0.00    +0.134 A 
ATOM     17  N   UNL     1       0.496  -2.016  -1.149  0.00  0.00    -0.247 NA
ATOM     18  C   UNL     1       0.082  -2.681  -0.074  0.00  0.00    +0.144 A 
ATOM     19  C   UNL     1      -0.330  -1.980   1.058  0.00  0.00    +0.144 A 
ATOM     20  N   UNL     1      -0.303  -0.659   1.060  0.00  0.00    -0.256 NA
ENDBRANCH   1  18
TORSDOF 1
