REMARK  Name = ZINC25344188
REMARK  10 active torsions:
REMARK  status: ('A' for Active; 'I' for Inactive)
REMARK    1  A    between atoms: C_1  and  N_2
REMARK    2  A    between atoms: N_2  and  C_3
REMARK    3  A    between atoms: N_2  and  C_4
REMARK    4  A    between atoms: C_4  and  C_5
REMARK    5  A    between atoms: C_5  and  N_6
REMARK    6  A    between atoms: N_6  and  S_7
REMARK    7  A    between atoms: S_7  and  C_10
REMARK    8  A    between atoms: C_13  and  N_19
REMARK    9  A    between atoms: C_14  and  N_16
REMARK   10  A    between atoms: C_23  and  C_25
REMARK                            x       y       z     vdW  Elec       q    Type
REMARK                         _______ _______ _______ _____ _____    ______ ____
ROOT
ATOM      1  C   UNL     1      -2.860   5.611  -3.123  0.00  0.00    +0.108 A 
ATOM      2  C   UNL     1      -2.815   4.336  -3.658  0.00  0.00    +0.030 A 
ATOM      3  C   UNL     1      -2.527   3.256  -2.847  0.00  0.00    +0.027 A 
ATOM      4  C   UNL     1      -2.293   3.450  -1.491  0.00  0.00    +0.061 A 
ATOM      5  C   UNL     1      -2.338   4.731  -0.958  0.00  0.00    +0.149 A 
ATOM      6  C   UNL     1      -2.621   5.808  -1.776  0.00  0.00    +0.063 A 
ENDROOT
BRANCH   4   7
ATOM      7  N   UNL     1      -2.007   2.359  -0.667  0.00  0.00    -0.321 N 
ATOM      8  C   UNL     1      -0.833   1.603  -1.174  0.00  0.00    +0.106 C 
ATOM      9  C   UNL     1      -0.988   0.212  -0.504  0.00  0.00    +0.021 C 
ATOM     10  C   UNL     1      -2.518  -0.011  -0.526  0.00  0.00    +0.029 C 
ATOM     11  C   UNL     1      -3.130   1.397  -0.653  0.00  0.00    +0.104 C 
BRANCH  11  12
ATOM     12  C   UNL     1      -4.032   1.672   0.523  0.00  0.00    -0.023 A 
ATOM     13  C   UNL     1      -3.486   2.031   1.742  0.00  0.00    +0.009 A 
ATOM     14  C   UNL     1      -4.310   2.283   2.822  0.00  0.00    +0.050 A 
ATOM     15  C   UNL     1      -5.686   2.176   2.688  0.00  0.00    +0.162 A 
ATOM     16  C   UNL     1      -6.234   1.818   1.462  0.00  0.00    +0.162 A 
ATOM     17  C   UNL     1      -5.402   1.570   0.380  0.00  0.00    +0.055 A 
ATOM     18  O   UNL     1      -7.582   1.711   1.306  0.00  0.00    -0.485 OA
ATOM     19  C   UNL     1      -8.361   1.601   2.502  0.00  0.00    +0.270 C 
ATOM     20  C   UNL     1      -7.869   2.664   3.495  0.00  0.00    +0.270 C 
ATOM     21  O   UNL     1      -6.484   2.419   3.763  0.00  0.00    -0.485 OA
ENDBRANCH  11  12
ENDBRANCH   4   7
BRANCH   1  22
ATOM     22  S   UNL     1      -3.220   6.987  -4.163  0.00  0.00    +0.058 S 
ATOM     23  O   UNL     1      -3.941   6.478  -5.276  0.00  0.00    -0.153 OA
ATOM     24  O   UNL     1      -3.739   8.007  -3.321  0.00  0.00    -0.153 OA
BRANCH  22  25
ATOM     25  N   UNL     1      -1.777   7.548  -4.751  0.00  0.00    -0.192 NA
ATOM     26  H   UNL     1      -1.354   8.477  -4.341  0.00  0.00    +0.148 HD
BRANCH  25  27
ATOM     27  C   UNL     1      -0.972   6.707  -5.641  0.00  0.00    +0.087 C 
BRANCH  27  28
ATOM     28  C   UNL     1       0.091   7.565  -6.329  0.00  0.00    -0.063 C 
BRANCH  28  30
ATOM     29  C   UNL     1       0.089   6.210  -8.336  0.00  0.00    -0.097 C 
ATOM     30  N   UNL     1       0.898   6.723  -7.222  0.00  0.00    +0.377 N 
ATOM     31  C   UNL     1       2.072   7.454  -7.717  0.00  0.00    -0.097 C 
ATOM     32  H   UNL     1       1.257   5.861  -6.640  0.00  0.00    -0.083 HD
ENDBRANCH  28  30
ENDBRANCH  27  28
ENDBRANCH  25  27
ENDBRANCH  22  25
ENDBRANCH   1  22
BRANCH   5  33
ATOM     33  N   UNL     1      -2.083   4.944   0.484  0.00  0.00    +0.058 N 
ATOM     34  O   UNL     1      -2.232   6.049   0.973  0.00  0.00    -0.126 OA
ATOM     35  O   UNL     1      -1.723   4.012   1.182  0.00  0.00    -0.126 OA
ENDBRANCH   5  33
TORSDOF 8
