REMARK  Name = ZINC09366964
REMARK  10 active torsions:
REMARK  status: ('A' for Active; 'I' for Inactive)
REMARK    1  A    between atoms: C_1  and  C_2
REMARK    2  A    between atoms: C_2  and  N_3
REMARK    3  A    between atoms: C_7  and  S_26
REMARK    4  A    between atoms: C_11  and  C_12
REMARK    5  A    between atoms: C_12  and  N_63
REMARK    6  A    between atoms: C_13  and  N_63
REMARK    7  A    between atoms: C_14  and  C_16
REMARK    8  A    between atoms: C_14  and  C_17
REMARK    9  A    between atoms: C_14  and  N_63
REMARK   10  A    between atoms: S_26  and  N_29
REMARK                            x       y       z     vdW  Elec       q    Type
REMARK                         _______ _______ _______ _____ _____    ______ ____
ROOT
ATOM      1  N   UNL     1      -2.435   7.362   3.741  0.00  0.00    -0.329 N 
ATOM      2  C   UNL     1      -3.519   7.387   4.596  0.00  0.00    +0.069 A 
ATOM      3  C   UNL     1      -3.670   7.603   5.959  0.00  0.00    +0.030 A 
ATOM      4  C   UNL     1      -4.928   7.558   6.522  0.00  0.00    +0.030 A 
ATOM      5  C   UNL     1      -6.042   7.299   5.735  0.00  0.00    +0.108 A 
ATOM      6  C   UNL     1      -5.912   7.085   4.392  0.00  0.00    +0.058 A 
ATOM      7  C   UNL     1      -4.647   7.125   3.800  0.00  0.00    +0.091 A 
ATOM      8  N   UNL     1      -4.203   6.962   2.527  0.00  0.00    -0.234 NA
ATOM      9  C   UNL     1      -2.909   7.096   2.494  0.00  0.00    +0.094 A 
ENDROOT
BRANCH   5  10
ATOM     10  S   UNL     1      -7.639   7.247   6.476  0.00  0.00    +0.061 S 
ATOM     11  O   UNL     1      -8.454   6.449   5.629  0.00  0.00    -0.153 OA
ATOM     12  O   UNL     1      -7.440   6.942   7.850  0.00  0.00    -0.153 OA
BRANCH  10  13
ATOM     13  N   UNL     1      -8.257   8.783   6.418  0.00  0.00    -0.172 NA
ATOM     14  C   UNL     1      -8.030   9.733   7.519  0.00  0.00    +0.137 C 
ATOM     15  C   UNL     1      -7.503  11.046   6.918  0.00  0.00    +0.177 C 
ATOM     16  O   UNL     1      -8.387  11.476   5.880  0.00  0.00    -0.377 OA
ATOM     17  C   UNL     1      -8.479  10.571   4.777  0.00  0.00    +0.177 C 
ATOM     18  C   UNL     1      -9.052   9.236   5.266  0.00  0.00    +0.137 C 
ENDBRANCH  10  13
ENDBRANCH   5  10
BRANCH   1  20
ATOM     19  C   UNL     1      -0.705   9.072   3.995  0.00  0.00    +0.027 C 
ATOM     20  C   UNL     1      -1.034   7.582   4.108  0.00  0.00    +0.120 C 
ENDBRANCH   1  20
BRANCH   9  21
ATOM     21  C   UNL     1      -2.061   6.980   1.254  0.00  0.00    -0.003 C 
BRANCH  21  23
ATOM     22  C   UNL     1      -2.781   4.713   0.803  0.00  0.00    -0.095 C 
ATOM     23  N   UNL     1      -1.621   5.577   1.107  0.00  0.00    +0.388 N 
ATOM     24  H   UNL     1      -1.196   5.266   1.989  0.00  0.00    -0.081 HD
BRANCH  23  25
ATOM     25  C   UNL     1      -0.617   5.473   0.028  0.00  0.00    -0.015 C 
ATOM     26  C   UNL     1      -0.305   3.996  -0.225  0.00  0.00    -0.006 C 
BRANCH  25  27
ATOM     27  C   UNL     1       0.639   6.184   0.462  0.00  0.00    +0.066 A 
ATOM     28  N   UNL     1       1.347   7.052  -0.203  0.00  0.00    -0.246 NA
ATOM     29  C   UNL     1       2.462   7.620   0.303  0.00  0.00    +0.078 A 
ATOM     30  C   UNL     1       3.327   8.567  -0.288  0.00  0.00    +0.029 A 
ATOM     31  C   UNL     1       4.415   9.028   0.385  0.00  0.00    +0.002 A 
ATOM     32  C   UNL     1       4.718   8.592   1.668  0.00  0.00    +0.001 A 
ATOM     33  C   UNL     1       3.895   7.666   2.281  0.00  0.00    +0.017 A 
ATOM     34  C   UNL     1       2.794   7.193   1.610  0.00  0.00    +0.039 A 
ATOM     35  S   UNL     1       1.495   6.036   1.965  0.00  0.00    -0.074 S 
ENDBRANCH  25  27
ENDBRANCH  23  25
ENDBRANCH  21  23
ENDBRANCH   9  21
TORSDOF 7
