REMARK  Name = ZINC32501694
REMARK  6 active torsions:
REMARK  status: ('A' for Active; 'I' for Inactive)
REMARK    1  A    between atoms: C_1  and  C_2
REMARK    2  A    between atoms: C_2  and  O_3
REMARK    3  A    between atoms: O_3  and  C_4
REMARK    4  A    between atoms: C_6  and  C_12
REMARK    5  A    between atoms: C_9  and  O_10
REMARK    6  A    between atoms: N_13  and  N_14
REMARK                            x       y       z     vdW  Elec       q    Type
REMARK                         _______ _______ _______ _____ _____    ______ ____
ROOT
ATOM      1  C   UNL     1      -1.302   2.115   0.020  0.00  0.00    +0.138 C 
ATOM      2  N   UNL     1      -1.318   3.413   0.027  0.00  0.00    -0.189 NA
ENDROOT
BRANCH   2   3
ATOM      3  N   UNL     1      -2.540   4.098   0.036  0.00  0.00    -0.219 N 
ATOM      4  C   UNL     1      -2.557   5.484   0.044  0.00  0.00    +0.176 A 
ATOM      5  C   UNL     1      -1.343   6.198   0.048  0.00  0.00    +0.171 A 
ATOM      6  N   UNL     1      -1.340   7.510   0.049  0.00  0.00    -0.230 NA
ATOM      7  C   UNL     1      -2.501   8.179   0.058  0.00  0.00    +0.091 A 
ATOM      8  C   UNL     1      -2.525   9.584   0.067  0.00  0.00    +0.030 A 
ATOM      9  C   UNL     1      -3.719  10.239   0.076  0.00  0.00    +0.002 A 
ATOM     10  C   UNL     1      -4.922   9.536   0.078  0.00  0.00    +0.002 A 
ATOM     11  C   UNL     1      -4.937   8.175   0.070  0.00  0.00    +0.030 A 
ATOM     12  C   UNL     1      -3.724   7.464   0.060  0.00  0.00    +0.091 A 
ATOM     13  N   UNL     1      -3.710   6.125   0.053  0.00  0.00    -0.226 NA
ATOM     14 CL   UNL     1       0.163   5.335   0.044  0.00  0.00    -0.058 Cl
ATOM     15  H   UNL     1      -3.486   3.537   0.038  0.00  0.00    +0.176 HD
ENDBRANCH   2   3
BRANCH   1  18
ATOM     16  C   UNL     1       1.210  -0.676  -0.013  0.00  0.00    +0.163 A 
ATOM     17  C   UNL     1       0.002  -0.004   0.002  0.00  0.00    +0.059 A 
ATOM     18  C   UNL     1      -0.017   1.393   0.010  0.00  0.00    -0.001 A 
ATOM     19  C   UNL     1       1.186   2.104   0.002  0.00  0.00    +0.028 A 
ATOM     20  C   UNL     1       2.388   1.427  -0.013  0.00  0.00    +0.063 A 
ATOM     21  C   UNL     1       2.405   0.039  -0.021  0.00  0.00    +0.173 A 
ATOM     22 BR   UNL     1       4.014   2.392  -0.023  0.00  0.00    -0.046 Br
BRANCH  21  23
ATOM     23  O   UNL     1       3.592  -0.624  -0.035  0.00  0.00    -0.503 OA
ATOM     24  H   UNL     1       4.537  -0.060  -0.041  0.00  0.00    +0.292 HD
ENDBRANCH  21  23
BRANCH  16  25
ATOM     25  O   UNL     1       1.232  -2.036  -0.021  0.00  0.00    -0.489 OA
BRANCH  25  27
ATOM     26  C   UNL     1       0.194  -4.218  -0.024  0.00  0.00    +0.048 C 
ATOM     27  C   UNL     1      -0.031  -2.705  -0.013  0.00  0.00    +0.226 C 
ENDBRANCH  25  27
ENDBRANCH  16  25
ENDBRANCH   1  18
TORSDOF 5
