REMARK  Name = ZINC65968343
REMARK  7 active torsions:
REMARK  status: ('A' for Active; 'I' for Inactive)
REMARK    1  A    between atoms: C_1  and  C_2
REMARK    2  A    between atoms: C_6  and  C_27
REMARK    3  A    between atoms: C_7  and  N_8
REMARK    4  A    between atoms: C_9  and  C_11
REMARK    5  A    between atoms: C_11  and  N_12
REMARK    6  A    between atoms: C_13  and  C_15
REMARK    7  A    between atoms: C_15  and  N_16
REMARK                            x       y       z     vdW  Elec       q    Type
REMARK                         _______ _______ _______ _____ _____    ______ ____
ROOT
ATOM      1  N   UNL     1      -0.231  -0.746   5.978  0.00  0.00    -0.308 N 
ATOM      2  C   UNL     1      -0.311  -0.271   7.236  0.00  0.00    +0.197 C 
ATOM      3  O   UNL     1      -0.268   0.924   7.437  0.00  0.00    -0.278 OA
ATOM      4  H   UNL     1      -0.265  -1.702   5.817  0.00  0.00    +0.149 HD
ENDROOT
BRANCH   1   5
ATOM      5  C   UNL     1      -0.090   0.181   4.852  0.00  0.00    +0.200 C 
BRANCH   5   7
ATOM      6  N   UNL     1       0.108   0.050   2.390  0.00  0.00    -0.284 N 
ATOM      7  C   UNL     1      -0.022  -0.598   3.564  0.00  0.00    +0.234 C 
ATOM      8  O   UNL     1      -0.085  -1.810   3.584  0.00  0.00    -0.274 OA
ATOM      9  H   UNL     1       0.224   1.013   2.378  0.00  0.00    +0.155 HD
BRANCH   6  16
ATOM     10  C   UNL     1       2.558  -0.356   1.002  0.00  0.00    +0.045 C 
ATOM     11  C   UNL     1       1.249  -0.887   0.479  0.00  0.00    -0.029 A 
ATOM     12  C   UNL     1       1.214  -1.599  -0.704  0.00  0.00    +0.005 A 
ATOM     13  C   UNL     1       0.013  -2.087  -1.185  0.00  0.00    +0.001 A 
ATOM     14  C   UNL     1      -1.158  -1.863  -0.484  0.00  0.00    +0.005 A 
ATOM     15  C   UNL     1      -1.130  -1.152   0.700  0.00  0.00    -0.029 A 
ATOM     16  C   UNL     1       0.076  -0.666   1.188  0.00  0.00    +0.039 A 
ATOM     17  C   UNL     1      -2.406  -0.908   1.463  0.00  0.00    +0.045 C 
ENDBRANCH   6  16
ENDBRANCH   5   7
ENDBRANCH   1   5
BRANCH   2  18
ATOM     18  C   UNL     1      -0.455  -1.225   8.394  0.00  0.00    +0.019 C 
BRANCH  18  19
ATOM     19  N   UNL     1      -0.521  -0.465   9.649  0.00  0.00    +0.387 N 
ATOM     20  C   UNL     1       0.672   0.320   9.757  0.00  0.00    -0.074 C 
ATOM     21  C   UNL     1       1.039   0.754  11.142  0.00  0.00    -0.027 C 
ATOM     22  C   UNL     1      -0.128   1.221  11.986  0.00  0.00    +0.005 C 
ATOM     23  C   UNL     1      -0.849   0.101  12.715  0.00  0.00    -0.012 C 
ATOM     24  C   UNL     1       0.144  -0.798  13.457  0.00  0.00    +0.007 C 
ATOM     25  C   UNL     1       1.128  -1.362  12.431  0.00  0.00    -0.012 C 
ATOM     26  C   UNL     1       1.956  -0.202  11.871  0.00  0.00    +0.005 C 
ATOM     27  C   UNL     1       0.414  -2.087  11.310  0.00  0.00    -0.012 C 
ATOM     28  C   UNL     1      -0.777  -1.393  10.720  0.00  0.00    -0.067 C 
ATOM     29  C   UNL     1      -1.682  -0.760  11.773  0.00  0.00    -0.012 C 
ATOM     30  H   UNL     1      -1.306   0.167   9.589  0.00  0.00    -0.081 HD
ENDBRANCH  18  19
ENDBRANCH   2  18
TORSDOF 5
