REMARK  Name = ZINC09645945
REMARK  6 active torsions:
REMARK  status: ('A' for Active; 'I' for Inactive)
REMARK    1  A    between atoms: C_3  and  S_13
REMARK    2  A    between atoms: C_6  and  N_7
REMARK    3  A    between atoms: S_13  and  N_16
REMARK    4  A    between atoms: N_16  and  C_17
REMARK    5  A    between atoms: N_16  and  C_24
REMARK    6  A    between atoms: C_17  and  C_18
REMARK                            x       y       z     vdW  Elec       q    Type
REMARK                         _______ _______ _______ _____ _____    ______ ____
ROOT
ATOM      1  S   UNL     1      -2.991   1.206  -0.125  0.00  0.00    +0.061 S 
ATOM      2  O   UNL     1      -4.236   1.806  -0.459  0.00  0.00    -0.153 OA
ATOM      3  O   UNL     1      -2.458   0.105  -0.848  0.00  0.00    -0.153 OA
ENDROOT
BRANCH   1   6
ATOM      4  C   UNL     1       0.496   3.170  -0.467  0.00  0.00    +0.025 A 
ATOM      5  C   UNL     1      -0.453   2.168  -0.407  0.00  0.00    +0.030 A 
ATOM      6  C   UNL     1      -1.782   2.486  -0.193  0.00  0.00    +0.106 A 
ATOM      7  C   UNL     1      -2.163   3.805  -0.028  0.00  0.00    +0.030 A 
ATOM      8  C   UNL     1      -1.218   4.810  -0.086  0.00  0.00    +0.025 A 
ATOM      9  C   UNL     1       0.116   4.495  -0.306  0.00  0.00    +0.036 A 
BRANCH   9  10
ATOM     10  N   UNL     1       1.076   5.512  -0.366  0.00  0.00    -0.271 N 
ATOM     11  C   UNL     1       2.520   5.282  -0.483  0.00  0.00    +0.114 C 
ATOM     12  C   UNL     1       3.185   6.616  -0.078  0.00  0.00    +0.029 C 
ATOM     13  C   UNL     1       2.068   7.635  -0.402  0.00  0.00    +0.098 C 
ATOM     14  C   UNL     1       0.792   6.826  -0.330  0.00  0.00    +0.220 C 
ATOM     15  O   UNL     1      -0.324   7.293  -0.249  0.00  0.00    -0.275 OA
ENDBRANCH   9  10
ENDBRANCH   1   6
BRANCH   1  16
ATOM     16  N   UNL     1      -3.106   0.724   1.455  0.00  0.00    -0.169 NA
BRANCH  16  17
ATOM     17  C   UNL     1      -2.252  -0.355   1.956  0.00  0.00    +0.102 C 
ATOM     18  C   UNL     1      -3.132  -1.492   2.501  0.00  0.00    +0.045 C 
ATOM     19  C   UNL     1      -2.222  -2.468   3.301  0.00  0.00    +0.167 C 
ATOM     20  S   UNL     1      -1.131  -1.269   4.177  0.00  0.00    -0.029 S 
ATOM     21  O   UNL     1      -1.694  -0.976   5.449  0.00  0.00    -0.174 OA
ATOM     22  O   UNL     1       0.213  -1.722   4.095  0.00  0.00    -0.174 OA
ATOM     23  C   UNL     1      -1.340   0.191   3.081  0.00  0.00    +0.186 C 
ENDBRANCH  16  17
BRANCH  16  24
ATOM     24  C   UNL     1      -4.063   1.378   2.352  0.00  0.00    +0.141 C 
BRANCH  24  25
ATOM     25  C   UNL     1      -5.391   0.619   2.321  0.00  0.00    +0.134 C 
ATOM     26  C   UNL     1      -6.458   1.369   3.158  0.00  0.00    +0.035 C 
ATOM     27  C   UNL     1      -7.766   0.858   2.494  0.00  0.00    +0.031 C 
ATOM     28  C   UNL     1      -7.344   0.700   1.018  0.00  0.00    +0.160 C 
ATOM     29  O   UNL     1      -5.916   0.587   0.985  0.00  0.00    -0.375 OA
ENDBRANCH  24  25
ENDBRANCH  16  24
ENDBRANCH   1  16
TORSDOF 6
