REMARK  Name = ZINC09882489
REMARK  11 active torsions:
REMARK  status: ('A' for Active; 'I' for Inactive)
REMARK    1  A    between atoms: C_1  and  C_2
REMARK    2  A    between atoms: C_2  and  N_3
REMARK    3  A    between atoms: N_3  and  C_4
REMARK    4  A    between atoms: C_12  and  C_14
REMARK    5  A    between atoms: C_14  and  O_15
REMARK    6  A    between atoms: O_15  and  C_16
REMARK    7  A    between atoms: C_16  and  C_18
REMARK    8  A    between atoms: C_20  and  N_31
REMARK    9  A    between atoms: C_23  and  S_24
REMARK   10  A    between atoms: S_24  and  C_25
REMARK   11  A    between atoms: C_27  and  C_30
REMARK                            x       y       z     vdW  Elec       q    Type
REMARK                         _______ _______ _______ _____ _____    ______ ____
ROOT
ATOM      1  C   UNL     1      -7.065   3.224   3.769  0.00  0.00    +0.341 C 
ATOM      2  O   UNL     1      -6.902   2.826   2.632  0.00  0.00    -0.245 OA
ENDROOT
BRANCH   1   3
ATOM      3  C   UNL     1      -5.905   3.408   4.658  0.00  0.00    +0.075 A 
ATOM      4  C   UNL     1      -6.088   3.861   5.968  0.00  0.00    +0.048 A 
ATOM      5  C   UNL     1      -4.999   4.036   6.793  0.00  0.00    +0.127 A 
ATOM      6  C   UNL     1      -3.720   3.760   6.333  0.00  0.00    +0.034 A 
ATOM      7  C   UNL     1      -3.523   3.308   5.045  0.00  0.00    +0.018 A 
ATOM      8  C   UNL     1      -4.609   3.124   4.197  0.00  0.00    +0.029 A 
BRANCH   5   9
ATOM      9  N   UNL     1      -5.195   4.522   8.178  0.00  0.00    +0.056 N 
ATOM     10  O   UNL     1      -4.234   4.678   8.909  0.00  0.00    -0.126 OA
ATOM     11  O   UNL     1      -6.317   4.765   8.585  0.00  0.00    -0.126 OA
ENDBRANCH   5   9
BRANCH   8  12
ATOM     12  S   UNL     1      -4.360   2.547   2.552  0.00  0.00    -0.062 S 
BRANCH  12  13
ATOM     13  C   UNL     1      -4.828   0.849   2.621  0.00  0.00    +0.139 A 
ATOM     14  N   UNL     1      -4.921  -0.026   1.637  0.00  0.00    -0.238 NA
ATOM     15  C   UNL     1      -5.293  -1.271   1.864  0.00  0.00    +0.047 A 
ATOM     16  C   UNL     1      -5.570  -1.640   3.138  0.00  0.00    +0.070 A 
ATOM     17  S   UNL     1      -5.277  -0.104   4.001  0.00  0.00    -0.069 S 
ATOM     18  C   UNL     1      -5.402  -2.261   0.733  0.00  0.00    +0.066 C 
ENDBRANCH  12  13
ENDBRANCH   8  12
ENDBRANCH   1   3
BRANCH   1  19
ATOM     19  O   UNL     1      -8.307   3.497   4.216  0.00  0.00    -0.452 OA
BRANCH  19  20
ATOM     20  C   UNL     1      -9.402   3.293   3.284  0.00  0.00    +0.328 C 
BRANCH  20  22
ATOM     21  N   UNL     1     -11.864   3.535   3.277  0.00  0.00    -0.294 N 
ATOM     22  C   UNL     1     -10.704   3.648   3.955  0.00  0.00    +0.254 C 
ATOM     23  O   UNL     1     -10.709   4.034   5.104  0.00  0.00    -0.272 OA
BRANCH  21  24
ATOM     24  C   UNL     1     -13.130   3.880   3.929  0.00  0.00    +0.099 C 
ATOM     25  C   UNL     1     -13.091   5.344   4.398  0.00  0.00    +0.046 C 
ATOM     26  C   UNL     1     -14.273   5.622   5.357  0.00  0.00    +0.168 C 
ATOM     27  S   UNL     1     -14.581   3.972   6.108  0.00  0.00    -0.029 S 
ATOM     28  O   UNL     1     -15.885   3.537   5.749  0.00  0.00    -0.174 OA
ATOM     29  O   UNL     1     -14.210   4.010   7.479  0.00  0.00    -0.174 OA
ATOM     30  C   UNL     1     -13.340   2.977   5.178  0.00  0.00    +0.188 C 
ENDBRANCH  21  24
BRANCH  21  32
ATOM     31  C   UNL     1     -11.991   1.544   1.863  0.00  0.00    +0.024 C 
ATOM     32  C   UNL     1     -11.858   3.068   1.889  0.00  0.00    +0.105 C 
ENDBRANCH  21  32
ENDBRANCH  20  22
ENDBRANCH  19  20
ENDBRANCH   1  19
TORSDOF 9
