REMARK  Name = ZINC39678230
REMARK  8 active torsions:
REMARK  status: ('A' for Active; 'I' for Inactive)
REMARK    1  A    between atoms: C_1  and  C_2
REMARK    2  A    between atoms: C_2  and  O_4
REMARK    3  A    between atoms: O_4  and  C_5
REMARK    4  A    between atoms: C_10  and  C_11
REMARK    5  A    between atoms: C_15  and  C_24
REMARK    6  A    between atoms: N_26  and  C_27
REMARK    7  A    between atoms: C_27  and  C_28
REMARK    8  A    between atoms: C_33  and  N_34
REMARK                            x       y       z     vdW  Elec       q    Type
REMARK                         _______ _______ _______ _____ _____    ______ ____
ROOT
ATOM      1  C   UNL     1       0.209  -1.897  -3.876  0.00  0.00    +0.250 C 
ATOM      2  O   UNL     1       0.130  -0.698  -4.064  0.00  0.00    -0.270 OA
ATOM      3  N   UNL     1       0.080  -2.751  -4.910  0.00  0.00    -0.296 N 
ATOM      4  C   UNL     1       0.237  -4.225  -4.895  0.00  0.00    +0.121 C 
ATOM      5  C   UNL     1      -0.879  -4.745  -5.829  0.00  0.00    +0.100 C 
ATOM      6  C   UNL     1      -1.192  -3.563  -6.762  0.00  0.00    -0.004 C 
ATOM      7  C   UNL     1      -0.256  -2.430  -6.317  0.00  0.00    +0.115 C 
ATOM      8  C   UNL     1      -2.647  -3.133  -6.598  0.00  0.00    -0.010 C 
ATOM      9  C   UNL     1      -2.950  -1.994  -7.577  0.00  0.00    -0.082 C 
ATOM     10  N   UNL     1      -2.705  -2.449  -8.950  0.00  0.00    +0.379 N 
ATOM     11  C   UNL     1      -1.284  -2.773  -9.125  0.00  0.00    -0.082 C 
ATOM     12  C   UNL     1      -0.910  -3.945  -8.212  0.00  0.00    -0.010 C 
ATOM     13  H   UNL     1      -3.261  -3.270  -9.136  0.00  0.00    -0.086 HD
ATOM     14  H   UNL     1      -2.964  -1.718  -9.596  0.00  0.00    -0.086 HD
ENDROOT
BRANCH   1  20
ATOM     15  C   UNL     1      -0.186  -1.823  -1.414  0.00  0.00    +0.144 A 
ATOM     16  C   UNL     1       0.039  -2.322  -0.140  0.00  0.00    +0.047 A 
ATOM     17  C   UNL     1       0.887  -3.396   0.042  0.00  0.00    +0.004 A 
ATOM     18  C   UNL     1       1.519  -3.982  -1.043  0.00  0.00    +0.001 A 
ATOM     19  C   UNL     1       1.307  -3.498  -2.316  0.00  0.00    +0.017 A 
ATOM     20  C   UNL     1       0.446  -2.416  -2.515  0.00  0.00    +0.079 A 
BRANCH  15  21
ATOM     21  O   UNL     1      -1.020  -0.767  -1.595  0.00  0.00    -0.425 OA
BRANCH  21  23
ATOM     22  C   UNL     1      -3.290   0.110  -2.013  0.00  0.00    +0.136 C 
ATOM     23  C   UNL     1      -2.301  -1.022  -1.907  0.00  0.00    +0.309 C 
ATOM     24  O   UNL     1      -2.660  -2.159  -2.104  0.00  0.00    -0.251 OA
ENDBRANCH  21  23
ENDBRANCH  15  21
ENDBRANCH   1  20
BRANCH   5  25
ATOM     25  C   UNL     1      -0.389  -5.928  -6.624  0.00  0.00    +0.218 C 
ATOM     26  O   UNL     1       0.730  -5.922  -7.092  0.00  0.00    -0.275 OA
ATOM     27  N   UNL     1      -1.193  -6.992  -6.815  0.00  0.00    -0.311 N 
ATOM     28  H   UNL     1      -2.088  -6.997  -6.441  0.00  0.00    +0.149 HD
BRANCH  27  29
ATOM     29  C   UNL     1      -0.717  -8.142  -7.587  0.00  0.00    +0.141 C 
BRANCH  29  30
ATOM     30  C   UNL     1      -1.800  -9.188  -7.652  0.00  0.00    -0.009 A 
ATOM     31  C   UNL     1      -1.760 -10.277  -6.804  0.00  0.00    +0.007 A 
ATOM     32  C   UNL     1      -2.753 -11.238  -6.863  0.00  0.00    +0.000 A 
ATOM     33  C   UNL     1      -3.790 -11.110  -7.770  0.00  0.00    +0.002 A 
ATOM     34  C   UNL     1      -3.836 -10.023  -8.620  0.00  0.00    +0.023 A 
ATOM     35  C   UNL     1      -2.842  -9.054  -8.560  0.00  0.00    +0.034 A 
BRANCH  35  36
ATOM     36  N   UNL     1      -2.889  -7.950  -9.415  0.00  0.00    -0.330 N 
ATOM     37  C   UNL     1      -2.250  -8.001 -10.737  0.00  0.00    +0.105 C 
ATOM     38  C   UNL     1      -3.283  -7.612 -11.799  0.00  0.00    +0.019 C 
ATOM     39  C   UNL     1      -3.886  -6.250 -11.443  0.00  0.00    +0.003 C 
ATOM     40  C   UNL     1      -4.595  -6.343 -10.090  0.00  0.00    +0.019 C 
ATOM     41  C   UNL     1      -3.582  -6.720  -9.012  0.00  0.00    +0.105 C 
ENDBRANCH  35  36
ENDBRANCH  29  30
ENDBRANCH  27  29
ENDBRANCH   5  25
TORSDOF 7
