REMARK  Name = ZINC01608021
REMARK  16 active torsions:
REMARK  status: ('A' for Active; 'I' for Inactive)
REMARK    1  A    between atoms: C_1  and  C_2
REMARK    2  A    between atoms: C_2  and  O_3
REMARK    3  A    between atoms: C_4  and  C_5
REMARK    4  A    between atoms: C_4  and  C_32
REMARK    5  A    between atoms: C_5  and  C_7
REMARK    6  A    between atoms: C_5  and  C_19
REMARK    7  A    between atoms: C_9  and  O_17
REMARK    8  A    between atoms: C_10  and  O_15
REMARK    9  A    between atoms: C_11  and  O_13
REMARK   10  A    between atoms: O_13  and  C_14
REMARK   11  A    between atoms: O_15  and  C_16
REMARK   12  A    between atoms: O_17  and  C_18
REMARK   13  A    between atoms: C_24  and  O_25
REMARK   14  A    between atoms: O_25  and  C_26
REMARK   15  A    between atoms: C_26  and  C_28
REMARK   16  A    between atoms: C_32  and  C_34
REMARK                            x       y       z     vdW  Elec       q    Type
REMARK                         _______ _______ _______ _____ _____    ______ ____
ROOT
ATOM      1  C   UNL     1      -3.668  -1.964  -0.063  0.00  0.00    +0.089 C 
ENDROOT
BRANCH   1   2
ATOM      2  C   UNL     1      -2.265  -2.502  -0.173  0.00  0.00    +0.011 A 
ATOM      3  C   UNL     1      -2.041  -3.865  -0.111  0.00  0.00    +0.057 A 
ATOM      4  C   UNL     1      -0.752  -4.362  -0.206  0.00  0.00    +0.167 A 
ATOM      5  C   UNL     1       0.320  -3.487  -0.371  0.00  0.00    +0.170 A 
ATOM      6  C   UNL     1       0.093  -2.123  -0.438  0.00  0.00    +0.096 A 
ATOM      7  C   UNL     1      -1.200  -1.630  -0.342  0.00  0.00    +0.139 A 
ATOM      8  O   UNL     1       1.472  -4.216  -0.436  0.00  0.00    -0.452 OA
ATOM      9  C   UNL     1       1.058  -5.566  -0.721  0.00  0.00    +0.466 C 
ATOM     10  O   UNL     1      -0.270  -5.639  -0.169  0.00  0.00    -0.453 OA
BRANCH   7  11
ATOM     11  O   UNL     1      -1.423  -0.290  -0.408  0.00  0.00    -0.426 OA
BRANCH  11  12
ATOM     12  C   UNL     1      -1.719   0.220  -1.615  0.00  0.00    +0.309 C 
ATOM     13  O   UNL     1      -1.700  -0.491  -2.592  0.00  0.00    -0.251 OA
ATOM     14  C   UNL     1      -2.074   1.678  -1.750  0.00  0.00    +0.136 C 
ENDBRANCH  11  12
ENDBRANCH   7  11
ENDBRANCH   1   2
BRANCH   1  15
ATOM     15  C   UNL     1      -4.476  -2.421  -1.250  0.00  0.00    -0.028 A 
ATOM     16  C   UNL     1      -4.918  -1.499  -2.179  0.00  0.00    +0.054 A 
ATOM     17  C   UNL     1      -5.657  -1.916  -3.276  0.00  0.00    +0.165 A 
ATOM     18  C   UNL     1      -5.963  -3.263  -3.434  0.00  0.00    +0.204 A 
ATOM     19  C   UNL     1      -5.521  -4.186  -2.495  0.00  0.00    +0.165 A 
ATOM     20  C   UNL     1      -4.778  -3.762  -1.404  0.00  0.00    +0.054 A 
BRANCH  19  21
ATOM     21  O   UNL     1      -5.818  -5.505  -2.644  0.00  0.00    -0.491 OA
ATOM     22  C   UNL     1      -5.332  -6.398  -1.640  0.00  0.00    +0.277 C 
ENDBRANCH  19  21
BRANCH  18  23
ATOM     23  O   UNL     1      -6.693  -3.675  -4.506  0.00  0.00    -0.488 OA
ATOM     24  C   UNL     1      -8.113  -3.707  -4.350  0.00  0.00    +0.277 C 
ENDBRANCH  18  23
BRANCH  17  25
ATOM     25  O   UNL     1      -6.087  -1.008  -4.193  0.00  0.00    -0.491 OA
ATOM     26  C   UNL     1      -5.736   0.358  -3.967  0.00  0.00    +0.277 C 
ENDBRANCH  17  25
ENDBRANCH   1  15
BRANCH   1  29
ATOM     27  C   UNL     1      -2.271  -1.188   2.204  0.00  0.00    +0.085 C 
ATOM     28  C   UNL     1      -3.506  -2.026   2.411  0.00  0.00    +0.098 C 
ATOM     29  C   UNL     1      -4.314  -2.483   1.224  0.00  0.00    +0.043 C 
BRANCH  29  30
ATOM     30  C   UNL     1      -5.488  -3.299   1.699  0.00  0.00    +0.160 C 
ATOM     31  O   UNL     1      -5.983  -3.074   2.777  0.00  0.00    -0.293 OA
ATOM     32  C   UNL     1      -6.045  -4.396   0.829  0.00  0.00    +0.091 C 
ENDBRANCH  29  30
BRANCH  28  33
ATOM     33  O   UNL     1      -3.849  -2.331   3.528  0.00  0.00    -0.511 OA
ATOM     34  H   UNL     1      -4.681  -2.883   3.482  0.00  0.00    +0.292 HD
ENDBRANCH  28  33
ENDBRANCH   1  29
TORSDOF 10
