REMARK  Name = ZINC02188471
REMARK  8 active torsions:
REMARK  status: ('A' for Active; 'I' for Inactive)
REMARK    1  A    between atoms: C_1  and  C_2
REMARK    2  A    between atoms: C_2  and  C_25
REMARK    3  A    between atoms: N_12  and  N_13
REMARK    4  A    between atoms: C_14  and  C_15
REMARK    5  A    between atoms: C_17  and  O_23
REMARK    6  A    between atoms: C_18  and  O_22
REMARK    7  A    between atoms: O_23  and  C_24
REMARK    8  A    between atoms: C_29  and  N_31
REMARK                            x       y       z     vdW  Elec       q    Type
REMARK                         _______ _______ _______ _____ _____    ______ ____
ROOT
ATOM      1  C   UNL     1       0.234   1.571  -0.032  0.00  0.00    +0.060 C 
ATOM      2  C   UNL     1       0.120   0.046  -0.038  0.00  0.00    +0.146 C 
ATOM      3  N   UNL     1       0.818  -0.489  -1.213  0.00  0.00    -0.318 N 
ATOM      4  C   UNL     1       1.141  -1.841  -1.241  0.00  0.00    +0.041 A 
ATOM      5  C   UNL     1       1.236  -2.543  -2.430  0.00  0.00    +0.024 A 
ATOM      6  C   UNL     1       1.576  -3.882  -2.409  0.00  0.00    +0.002 A 
ATOM      7  C   UNL     1       1.823  -4.527  -1.208  0.00  0.00    +0.001 A 
ATOM      8  C   UNL     1       1.727  -3.844  -0.013  0.00  0.00    +0.015 A 
ATOM      9  C   UNL     1       1.377  -2.496  -0.019  0.00  0.00    +0.059 A 
ATOM     10  C   UNL     1       1.234  -1.730   1.231  0.00  0.00    +0.270 C 
ATOM     11  O   UNL     1       1.584  -2.213   2.291  0.00  0.00    -0.268 OA
ATOM     12  N   UNL     1       0.710  -0.488   1.190  0.00  0.00    -0.161 N 
ATOM     13  H   UNL     1       1.049   0.090  -1.956  0.00  0.00    +0.148 HD
ENDROOT
BRANCH   2  14
ATOM     14  C   UNL     1      -1.333  -0.346  -0.103  0.00  0.00    -0.003 A 
ATOM     15  C   UNL     1      -2.056  -0.520   1.062  0.00  0.00    +0.007 A 
ATOM     16  C   UNL     1      -3.389  -0.880   1.002  0.00  0.00    +0.003 A 
ATOM     17  C   UNL     1      -4.000  -1.065  -0.224  0.00  0.00    +0.033 A 
ATOM     18  C   UNL     1      -3.279  -0.889  -1.390  0.00  0.00    +0.127 A 
ATOM     19  C   UNL     1      -1.946  -0.526  -1.329  0.00  0.00    +0.040 A 
BRANCH  18  20
ATOM     20  N   UNL     1      -3.933  -1.088  -2.703  0.00  0.00    +0.056 N 
ATOM     21  O   UNL     1      -5.099  -1.403  -2.755  0.00  0.00    -0.126 OA
ATOM     22  O   UNL     1      -3.301  -0.935  -3.722  0.00  0.00    -0.126 OA
ENDBRANCH  18  20
ENDBRANCH   2  14
BRANCH  12  23
ATOM     23  N   UNL     1       0.733   0.306   2.344  0.00  0.00    -0.182 NA
ATOM     24  C   UNL     1       1.865   0.713   2.830  0.00  0.00    +0.138 C 
BRANCH  24  25
ATOM     25  C   UNL     1       1.898   1.452   4.106  0.00  0.00    -0.001 A 
ATOM     26  C   UNL     1       3.116   1.896   4.627  0.00  0.00    +0.059 A 
ATOM     27  C   UNL     1       3.140   2.588   5.823  0.00  0.00    +0.163 A 
ATOM     28  C   UNL     1       1.953   2.843   6.506  0.00  0.00    +0.173 A 
ATOM     29  C   UNL     1       0.743   2.402   5.989  0.00  0.00    +0.063 A 
ATOM     30  C   UNL     1       0.710   1.714   4.793  0.00  0.00    +0.028 A 
ATOM     31 BR   UNL     1      -0.865   2.751   6.921  0.00  0.00    -0.046 Br
BRANCH  28  32
ATOM     32  O   UNL     1       1.980   3.524   7.683  0.00  0.00    -0.503 OA
ATOM     33  H   UNL     1       1.898   4.482   7.584  0.00  0.00    +0.292 HD
ENDBRANCH  28  32
BRANCH  27  34
ATOM     34  O   UNL     1       4.324   3.022   6.333  0.00  0.00    -0.491 OA
ATOM     35  C   UNL     1       5.502   2.726   5.581  0.00  0.00    +0.277 C 
ENDBRANCH  27  34
ENDBRANCH  24  25
ENDBRANCH  12  23
TORSDOF 6
