REMARK  Name = ZINC12408729
REMARK  6 active torsions:
REMARK  status: ('A' for Active; 'I' for Inactive)
REMARK    1  A    between atoms: C_1  and  C_2
REMARK    2  A    between atoms: C_6  and  C_12
REMARK    3  A    between atoms: C_7  and  C_11
REMARK    4  A    between atoms: C_13  and  O_28
REMARK    5  A    between atoms: C_14  and  C_15
REMARK    6  A    between atoms: C_18  and  C_21
REMARK                            x       y       z     vdW  Elec       q    Type
REMARK                         _______ _______ _______ _____ _____    ______ ____
ROOT
ATOM      1  C   UNL     1       3.708  -0.717  -0.191  0.00  0.00    +0.044 C 
ATOM      2  C   UNL     1       2.399   0.027  -0.134  0.00  0.00    -0.035 A 
ATOM      3  C   UNL     1       1.216  -0.676  -0.088  0.00  0.00    +0.051 A 
ATOM      4  C   UNL     1       0.001  -0.004  -0.036  0.00  0.00    +0.143 A 
ATOM      5  C   UNL     1      -0.018   1.403  -0.029  0.00  0.00    +0.063 A 
ATOM      6  C   UNL     1      -1.306   2.096   0.032  0.00  0.00    -0.027 A 
ATOM      7  C   UNL     1      -2.438   1.346   0.071  0.00  0.00    +0.038 A 
ATOM      8  C   UNL     1      -2.346  -0.061   0.061  0.00  0.00    +0.340 A 
ATOM      9  O   UNL     1      -3.368  -0.723   0.101  0.00  0.00    -0.245 OA
ATOM     10  O   UNL     1      -1.162  -0.690   0.010  0.00  0.00    -0.422 OA
ATOM     11  C   UNL     1      -3.787   2.015   0.130  0.00  0.00    +0.051 C 
ATOM     12  C   UNL     1      -1.376   3.602   0.041  0.00  0.00    +0.045 C 
ATOM     13  C   UNL     1       1.184   2.122  -0.076  0.00  0.00    +0.137 A 
ATOM     14  C   UNL     1       2.396   1.426  -0.128  0.00  0.00    +0.043 A 
ENDROOT
BRANCH  14  15
ATOM     15  C   UNL     1       3.670   2.167  -0.178  0.00  0.00    +0.072 C 
ATOM     16  N   UNL     1       4.272   2.539  -1.254  0.00  0.00    -0.190 NA
ATOM     17  N   UNL     1       5.462   3.229  -1.032  0.00  0.00    -0.261 N 
ATOM     18  C   UNL     1       5.693   3.323   0.418  0.00  0.00    +0.126 C 
ATOM     19  C   UNL     1       4.475   2.600   1.026  0.00  0.00    +0.086 C 
ATOM     20  H   UNL     1       6.044   3.586  -1.721  0.00  0.00    +0.169 HD
BRANCH  18  21
ATOM     21  C   UNL     1       5.728   4.764   0.857  0.00  0.00    -0.007 A 
ATOM     22  C   UNL     1       5.181   5.746   0.052  0.00  0.00    +0.007 A 
ATOM     23  C   UNL     1       5.209   7.067   0.457  0.00  0.00    +0.000 A 
ATOM     24  C   UNL     1       5.793   7.409   1.663  0.00  0.00    +0.001 A 
ATOM     25  C   UNL     1       6.344   6.429   2.466  0.00  0.00    +0.020 A 
ATOM     26  C   UNL     1       6.312   5.106   2.064  0.00  0.00    +0.046 A 
ATOM     27 CL   UNL     1       7.005   3.874   3.072  0.00  0.00    -0.083 Cl
ENDBRANCH  18  21
ENDBRANCH  14  15
BRANCH  13  28
ATOM     28  O   UNL     1       1.173   3.478  -0.070  0.00  0.00    -0.505 OA
ATOM     29  H   UNL     1       1.205   3.868   0.814  0.00  0.00    +0.292 HD
ENDBRANCH  13  28
TORSDOF 3
