REMARK  Name = ZINC38705107
REMARK  14 active torsions:
REMARK  status: ('A' for Active; 'I' for Inactive)
REMARK    1  A    between atoms: C_1  and  C_2
REMARK    2  A    between atoms: C_5  and  C_8
REMARK    3  A    between atoms: C_8  and  N_9
REMARK    4  A    between atoms: C_10  and  C_29
REMARK    5  A    between atoms: C_13  and  C_20
REMARK    6  A    between atoms: C_21  and  C_28
REMARK    7  A    between atoms: C_23  and  C_27
REMARK    8  A    between atoms: C_25  and  O_26
REMARK    9  A    between atoms: C_31  and  O_39
REMARK   10  A    between atoms: C_32  and  O_37
REMARK   11  A    between atoms: C_33  and  O_35
REMARK   12  A    between atoms: O_35  and  C_36
REMARK   13  A    between atoms: O_37  and  C_38
REMARK   14  A    between atoms: O_39  and  C_40
REMARK                            x       y       z     vdW  Elec       q    Type
REMARK                         _______ _______ _______ _____ _____    ______ ____
ROOT
ATOM      1  N   UNL     1       1.206  -4.458  -0.254  0.00  0.00    -0.281 N 
ATOM      2  C   UNL     1       2.342  -4.623  -1.171  0.00  0.00    +0.142 C 
ATOM      3  C   UNL     1       3.505  -5.051  -0.320  0.00  0.00    +0.035 A 
ATOM      4  C   UNL     1       4.855  -5.414  -0.264  0.00  0.00    +0.102 A 
ATOM      5  N   UNL     1       5.143  -5.673   0.997  0.00  0.00    -0.173 NA
ATOM      6  N   UNL     1       4.108  -5.510   1.742  0.00  0.00    -0.272 N 
ATOM      7  H   UNL     1       4.087  -5.643   2.702  0.00  0.00    +0.189 HD
ATOM      8  C   UNL     1       3.043  -5.119   0.981  0.00  0.00    +0.126 A 
ATOM      9  C   UNL     1       1.625  -4.744   0.992  0.00  0.00    +0.266 C 
ATOM     10  O   UNL     1       0.926  -4.699   1.986  0.00  0.00    -0.268 OA
ENDROOT
BRANCH   4  11
ATOM     11  C   UNL     1       5.792  -5.494  -1.413  0.00  0.00    +0.047 A 
ATOM     12  C   UNL     1       7.044  -4.890  -1.337  0.00  0.00    -0.037 A 
ATOM     13  C   UNL     1       7.912  -4.967  -2.407  0.00  0.00    +0.007 A 
ATOM     14  C   UNL     1       7.542  -5.642  -3.557  0.00  0.00    -0.047 A 
ATOM     15  C   UNL     1       6.301  -6.245  -3.643  0.00  0.00    +0.049 A 
ATOM     16  C   UNL     1       5.423  -6.180  -2.573  0.00  0.00    +0.127 A 
ATOM     17  C   UNL     1       8.496  -5.720  -4.721  0.00  0.00    +0.044 C 
ATOM     18  C   UNL     1       7.452  -4.153  -0.087  0.00  0.00    +0.044 C 
BRANCH  16  19
ATOM     19  O   UNL     1       4.205  -6.776  -2.654  0.00  0.00    -0.506 OA
ATOM     20  H   UNL     1       3.529  -6.234  -3.084  0.00  0.00    +0.292 HD
ENDBRANCH  16  19
ENDBRANCH   4  11
BRANCH   2  21
ATOM     21  C   UNL     1       2.651  -3.315  -1.854  0.00  0.00    -0.015 A 
ATOM     22  C   UNL     1       2.864  -2.177  -1.099  0.00  0.00    +0.055 A 
ATOM     23  C   UNL     1       3.148  -0.972  -1.724  0.00  0.00    +0.165 A 
ATOM     24  C   UNL     1       3.219  -0.910  -3.110  0.00  0.00    +0.204 A 
ATOM     25  C   UNL     1       3.004  -2.057  -3.865  0.00  0.00    +0.165 A 
ATOM     26  C   UNL     1       2.726  -3.259  -3.233  0.00  0.00    +0.055 A 
BRANCH  25  27
ATOM     27  O   UNL     1       3.072  -2.001  -5.223  0.00  0.00    -0.491 OA
ATOM     28  C   UNL     1       2.841  -3.218  -5.934  0.00  0.00    +0.277 C 
ENDBRANCH  25  27
BRANCH  24  29
ATOM     29  O   UNL     1       3.497   0.271  -3.727  0.00  0.00    -0.488 OA
ATOM     30  C   UNL     1       4.874   0.568  -3.969  0.00  0.00    +0.277 C 
ENDBRANCH  24  29
BRANCH  23  31
ATOM     31  O   UNL     1       3.357   0.148  -0.980  0.00  0.00    -0.491 OA
ATOM     32  C   UNL     1       3.268   0.010   0.439  0.00  0.00    +0.277 C 
ENDBRANCH  23  31
ENDBRANCH   2  21
BRANCH   1  33
ATOM     33  C   UNL     1      -0.149  -4.047  -0.631  0.00  0.00    +0.144 C 
BRANCH  33  38
ATOM     34  C   UNL     1      -0.555   1.712  -0.393  0.00  0.00    +0.044 C 
ATOM     35  C   UNL     1      -0.449   0.210  -0.455  0.00  0.00    -0.050 A 
ATOM     36  C   UNL     1      -0.059  -0.407  -1.629  0.00  0.00    +0.003 A 
ATOM     37  C   UNL     1       0.038  -1.785  -1.685  0.00  0.00    +0.005 A 
ATOM     38  C   UNL     1      -0.254  -2.545  -0.569  0.00  0.00    -0.030 A 
ATOM     39  C   UNL     1      -0.643  -1.928   0.605  0.00  0.00    +0.005 A 
ATOM     40  C   UNL     1      -0.736  -0.550   0.664  0.00  0.00    +0.003 A 
ENDBRANCH  33  38
ENDBRANCH   1  33
TORSDOF 8
