REMARK  Name = ZINC41077748
REMARK  10 active torsions:
REMARK  status: ('A' for Active; 'I' for Inactive)
REMARK    1  A    between atoms: C_1  and  C_2
REMARK    2  A    between atoms: C_5  and  C_34
REMARK    3  A    between atoms: C_6  and  O_8
REMARK    4  A    between atoms: O_8  and  C_9
REMARK    5  A    between atoms: C_9  and  C_10
REMARK    6  A    between atoms: C_10  and  O_11
REMARK    7  A    between atoms: O_11  and  C_12
REMARK    8  A    between atoms: C_15  and  C_18
REMARK    9  A    between atoms: C_28  and  S_30
REMARK   10  A    between atoms: S_30  and  C_33
REMARK                            x       y       z     vdW  Elec       q    Type
REMARK                         _______ _______ _______ _____ _____    ______ ____
ROOT
ATOM      1  C   UNL     1       2.193  -4.189   6.115  0.00  0.00    +0.121 A 
ATOM      2  C   UNL     1       1.009  -4.437   6.802  0.00  0.00    +0.046 A 
ATOM      3  C   UNL     1       0.948  -5.444   7.723  0.00  0.00    +0.011 A 
ATOM      4  C   UNL     1       2.083  -6.228   7.976  0.00  0.00    -0.024 A 
ATOM      5  C   UNL     1       3.274  -5.973   7.281  0.00  0.00    +0.011 A 
ATOM      6  C   UNL     1       3.320  -4.967   6.358  0.00  0.00    +0.046 A 
ENDROOT
BRANCH   4   7
ATOM      7  C   UNL     1       2.025  -7.308   8.964  0.00  0.00    +0.024 C 
ATOM      8  C   UNL     1       2.715  -8.479   8.744  0.00  0.00    +0.081 C 
ATOM      9  C   UNL     1       2.835  -9.529   9.795  0.00  0.00    +0.153 C 
ATOM     10  N   UNL     1       1.900  -9.773  10.675  0.00  0.00    -0.283 NA
ATOM     11  N   UNL     1       4.057 -10.233   9.747  0.00  0.00    -0.150 N 
ATOM     12  C   UNL     1       4.732 -10.255   8.545  0.00  0.00    +0.182 C 
ATOM     13  N   UNL     1       4.424  -9.615   7.445  0.00  0.00    -0.152 NA
ATOM     14  C   UNL     1       3.374  -8.767   7.446  0.00  0.00    +0.273 C 
ATOM     15  O   UNL     1       2.980  -8.249   6.413  0.00  0.00    -0.268 OA
ATOM     16  S   UNL     1       6.093 -11.333   8.903  0.00  0.00    -0.015 S 
ATOM     17  C   UNL     1       5.734 -11.597  10.634  0.00  0.00    +0.235 C 
ATOM     18  N   UNL     1       4.636 -10.915  10.796  0.00  0.00    -0.145 NA
ATOM     19  H   UNL     1       2.029 -10.469  11.339  0.00  0.00    +0.188 HD
BRANCH  17  20
ATOM     20  S   UNL     1       6.635 -12.540  11.819  0.00  0.00    +0.019 S 
ATOM     21  O   UNL     1       7.990 -12.444  11.404  0.00  0.00    -0.168 OA
ATOM     22  O   UNL     1       6.225 -12.025  13.079  0.00  0.00    -0.168 OA
ATOM     23  C   UNL     1       6.037 -14.240  11.615  0.00  0.00    +0.202 C 
ENDBRANCH  17  20
ENDBRANCH   4   7
BRANCH   1  24
ATOM     24  O   UNL     1       2.247  -3.188   5.201  0.00  0.00    -0.489 OA
BRANCH  24  25
ATOM     25  C   UNL     1       1.054  -2.427   5.000  0.00  0.00    +0.270 C 
BRANCH  25  26
ATOM     26  C   UNL     1       1.306  -1.352   3.942  0.00  0.00    +0.270 C 
BRANCH  26  27
ATOM     27  O   UNL     1       1.573  -1.976   2.684  0.00  0.00    -0.488 OA
BRANCH  27  33
ATOM     28  C   UNL     1       2.041   2.548   0.912  0.00  0.00    +0.044 C 
ATOM     29  C   UNL     1       2.057   1.052   0.726  0.00  0.00    -0.047 A 
ATOM     30  C   UNL     1       2.322   0.513  -0.519  0.00  0.00    +0.004 A 
ATOM     31  C   UNL     1       2.337  -0.858  -0.693  0.00  0.00    +0.007 A 
ATOM     32  C   UNL     1       2.087  -1.694   0.378  0.00  0.00    -0.009 A 
ATOM     33  C   UNL     1       1.820  -1.156   1.629  0.00  0.00    +0.124 A 
ATOM     34  C   UNL     1       1.811   0.221   1.802  0.00  0.00    +0.049 A 
ATOM     35  C   UNL     1       2.102  -3.189   0.188  0.00  0.00    +0.047 C 
ENDBRANCH  27  33
ENDBRANCH  26  27
ENDBRANCH  25  26
ENDBRANCH  24  25
ENDBRANCH   1  24
TORSDOF 7
