REMARK  Name = ZINC39361525
REMARK  9 active torsions:
REMARK  status: ('A' for Active; 'I' for Inactive)
REMARK    1  A    between atoms: C_1  and  C_2
REMARK    2  A    between atoms: C_6  and  N_9
REMARK    3  A    between atoms: C_7  and  C_8
REMARK    4  A    between atoms: C_10  and  C_12
REMARK    5  A    between atoms: C_12  and  S_13
REMARK    6  A    between atoms: S_13  and  C_14
REMARK    7  A    between atoms: C_17  and  C_26
REMARK    8  A    between atoms: N_19  and  C_20
REMARK    9  A    between atoms: C_26  and  C_27
REMARK                            x       y       z     vdW  Elec       q    Type
REMARK                         _______ _______ _______ _____ _____    ______ ____
ROOT
ATOM      1  C   UNL     1      -0.335  -7.412   4.943  0.00  0.00    +0.180 C 
ATOM      2  N   UNL     1      -0.341  -6.744   6.046  0.00  0.00    -0.162 NA
ATOM      3  N   UNL     1      -0.434  -7.591   7.158  0.00  0.00    -0.246 N 
ATOM      4  C   UNL     1      -0.491  -8.963   6.625  0.00  0.00    +0.187 C 
ATOM      5  N   UNL     1      -0.427  -8.779   5.165  0.00  0.00    -0.258 N 
ATOM      6  H   UNL     1      -0.457  -7.327   8.091  0.00  0.00    +0.170 HD
ENDROOT
BRANCH   5   7
ATOM      7  C   UNL     1      -0.452  -9.783   4.194  0.00  0.00    +0.037 A 
ATOM      8  C   UNL     1      -1.590 -10.564   4.030  0.00  0.00    +0.023 A 
ATOM      9  C   UNL     1      -1.611 -11.556   3.069  0.00  0.00    +0.002 A 
ATOM     10  C   UNL     1      -0.502 -11.773   2.272  0.00  0.00    +0.000 A 
ATOM     11  C   UNL     1       0.631 -10.997   2.433  0.00  0.00    +0.002 A 
ATOM     12  C   UNL     1       0.658 -10.000   3.388  0.00  0.00    +0.023 A 
ENDBRANCH   5   7
BRANCH   1  13
ATOM     13  S   UNL     1      -0.229  -6.677   3.345  0.00  0.00    -0.079 S 
BRANCH  13  14
ATOM     14  C   UNL     1      -0.133  -4.898   3.685  0.00  0.00    +0.173 C 
BRANCH  14  16
ATOM     15  N   UNL     1       0.046  -2.797   2.392  0.00  0.00    -0.285 N 
ATOM     16  C   UNL     1      -0.037  -4.142   2.385  0.00  0.00    +0.227 C 
ATOM     17  O   UNL     1      -0.034  -4.744   1.332  0.00  0.00    -0.275 OA
ATOM     18  H   UNL     1       0.124  -2.320   3.233  0.00  0.00    +0.155 HD
BRANCH  15  24
ATOM     19  C   UNL     1       1.195   1.237  -0.173  0.00  0.00    +0.044 C 
ATOM     20  C   UNL     1       0.567  -0.130  -0.085  0.00  0.00    -0.046 A 
ATOM     21  C   UNL     1      -0.038  -0.685  -1.198  0.00  0.00    +0.004 A 
ATOM     22  C   UNL     1      -0.614  -1.940  -1.122  0.00  0.00    +0.002 A 
ATOM     23  C   UNL     1      -0.588  -2.642   0.067  0.00  0.00    +0.023 A 
ATOM     24  C   UNL     1       0.018  -2.088   1.186  0.00  0.00    +0.037 A 
ATOM     25  C   UNL     1       0.601  -0.830   1.105  0.00  0.00    -0.026 A 
ATOM     26  C   UNL     1       1.265  -0.227   2.316  0.00  0.00    +0.046 C 
ENDBRANCH  15  24
ENDBRANCH  14  16
ENDBRANCH  13  14
ENDBRANCH   1  13
BRANCH   4  27
ATOM     27  C   UNL     1       0.701  -9.782   7.123  0.00  0.00    +0.097 C 
BRANCH  27  28
ATOM     28  C   UNL     1       0.591  -9.975   8.614  0.00  0.00    +0.029 A 
ATOM     29  N   UNL     1       1.057  -9.013   9.468  0.00  0.00    -0.311 N 
ATOM     30  C   UNL     1       0.963  -9.175  10.800  0.00  0.00    +0.327 A 
ATOM     31  O   UNL     1       1.384  -8.308  11.541  0.00  0.00    -0.247 OA
ATOM     32  N   UNL     1       0.409 -10.284  11.324  0.00  0.00    -0.275 N 
ATOM     33  C   UNL     1      -0.063 -11.255  10.516  0.00  0.00    +0.254 A 
ATOM     34  O   UNL     1      -0.564 -12.259  10.990  0.00  0.00    -0.268 OA
ATOM     35  C   UNL     1       0.026 -11.095   9.113  0.00  0.00    +0.091 A 
ATOM     36  H   UNL     1       0.349 -10.385  12.287  0.00  0.00    +0.173 HD
ATOM     37  H   UNL     1       1.460  -8.207   9.109  0.00  0.00    +0.170 HD
ENDBRANCH  27  28
ENDBRANCH   4  27
TORSDOF 7
