REMARK  Name = ZINC54552275
REMARK  5 active torsions:
REMARK  status: ('A' for Active; 'I' for Inactive)
REMARK    1  A    between atoms: C_1  and  N_2
REMARK    2  A    between atoms: C_4  and  C_7
REMARK    3  A    between atoms: C_7  and  N_8
REMARK    4  A    between atoms: N_8  and  C_9
REMARK    5  A    between atoms: C_11  and  C_19
REMARK                            x       y       z     vdW  Elec       q    Type
REMARK                         _______ _______ _______ _____ _____    ______ ____
ROOT
ATOM      1  N   UNL     1       1.500  -3.568  -1.885  0.00  0.00    -0.315 N 
ATOM      2  C   UNL     1       0.716  -4.783  -2.120  0.00  0.00    +0.131 C 
ATOM      3  C   UNL     1       2.224  -3.004  -2.917  0.00  0.00    +0.113 A 
ATOM      4  C   UNL     1       1.663  -1.961  -3.677  0.00  0.00    +0.101 A 
ATOM      5  C   UNL     1       2.421  -1.408  -4.717  0.00  0.00    +0.023 A 
ATOM      6  C   UNL     1       3.688  -1.911  -4.952  0.00  0.00    -0.027 A 
ATOM      7  C   UNL     1       4.176  -2.939  -4.163  0.00  0.00    +0.021 A 
ATOM      8  N   UNL     1       3.443  -3.442  -3.182  0.00  0.00    -0.346 N 
ATOM      9  C   UNL     1       5.574  -3.307  -4.617  0.00  0.00    +0.054 C 
ATOM     10  C   UNL     1       5.713  -2.704  -6.031  0.00  0.00    +0.011 C 
ATOM     11  C   UNL     1       4.722  -1.522  -5.987  0.00  0.00    +0.037 C 
ATOM     12  H   UNL     1       3.812  -4.159  -2.642  0.00  0.00    +0.167 HD
ENDROOT
BRANCH   4  13
ATOM     13  C   UNL     1       0.310  -1.464  -3.386  0.00  0.00    +0.390 C 
ATOM     14  O   UNL     1      -0.126  -0.490  -3.986  0.00  0.00    -0.240 OA
ATOM     15  O   UNL     1      -0.379  -2.023  -2.545  0.00  0.00    -0.240 OA
ENDBRANCH   4  13
BRANCH   1  16
ATOM     16  C   UNL     1       1.517  -2.953  -0.556  0.00  0.00    +0.144 C 
BRANCH  16  20
ATOM     17  C   UNL     1       6.170  -3.448   1.239  0.00  0.00    +0.172 C 
ATOM     18  N   UNL     1       4.742  -3.660   0.992  0.00  0.00    -0.274 N 
ATOM     19  C   UNL     1       3.965  -2.938   0.159  0.00  0.00    +0.113 A 
ATOM     20  C   UNL     1       2.714  -3.450   0.213  0.00  0.00    +0.007 A 
ATOM     21  C   UNL     1       2.727  -4.523   1.111  0.00  0.00    +0.139 A 
ATOM     22  N   UNL     1       3.944  -4.653   1.574  0.00  0.00    -0.180 NA
ENDBRANCH  16  20
ENDBRANCH   1  16
TORSDOF 3
