REMARK  Name = ZINC14479948
REMARK  4 active torsions:
REMARK  status: ('A' for Active; 'I' for Inactive)
REMARK    1  A    between atoms: C_1  and  C_2
REMARK    2  A    between atoms: C_6  and  C_8
REMARK    3  A    between atoms: C_19  and  S_24
REMARK    4  A    between atoms: S_24  and  N_27
REMARK                            x       y       z     vdW  Elec       q    Type
REMARK                         _______ _______ _______ _____ _____    ______ ____
ROOT
ATOM      1  C   UNL     1       2.361   1.294  -0.845  0.00  0.00    +0.105 C 
ATOM      2  C   UNL     1       1.397   2.106   0.000  0.00  0.00    +0.029 C 
ATOM      3  C   UNL     1       1.755   2.008   1.502  0.00  0.00    +0.033 C 
ATOM      4  C   UNL     1       0.415   2.219   2.183  0.00  0.00    -0.030 C 
ATOM      5  C   UNL     1      -0.566   1.942   1.361  0.00  0.00    -0.023 C 
ATOM      6  C   UNL     1      -0.018   1.501   0.010  0.00  0.00    +0.049 C 
ATOM      7  C   UNL     1       0.002  -0.004   0.002  0.00  0.00    -0.018 A 
ATOM      8  C   UNL     1      -1.201  -0.674   0.180  0.00  0.00    +0.034 A 
ATOM      9  C   UNL     1      -1.241  -2.053   0.184  0.00  0.00    +0.109 A 
ATOM     10  C   UNL     1      -0.079  -2.785   0.012  0.00  0.00    +0.030 A 
ATOM     11  C   UNL     1       1.122  -2.129  -0.166  0.00  0.00    +0.025 A 
ATOM     12  C   UNL     1       1.161  -0.739  -0.173  0.00  0.00    +0.031 A 
ATOM     13  N   UNL     1       2.387  -0.092  -0.364  0.00  0.00    -0.336 N 
ATOM     14  H   UNL     1       3.226  -0.545  -0.185  0.00  0.00    +0.147 HD
ENDROOT
BRANCH   1  20
ATOM     15  C   UNL     1       2.763   3.135  -5.481  0.00  0.00    +0.044 C 
ATOM     16  C   UNL     1       2.104   2.199  -4.501  0.00  0.00    -0.050 A 
ATOM     17  C   UNL     1       1.087   1.362  -4.921  0.00  0.00    +0.003 A 
ATOM     18  C   UNL     1       0.483   0.503  -4.023  0.00  0.00    +0.001 A 
ATOM     19  C   UNL     1       0.899   0.477  -2.705  0.00  0.00    +0.005 A 
ATOM     20  C   UNL     1       1.912   1.318  -2.283  0.00  0.00    -0.027 A 
ATOM     21  C   UNL     1       2.517   2.177  -3.182  0.00  0.00    +0.008 A 
ENDBRANCH   1  20
BRANCH   9  22
ATOM     22  S   UNL     1      -2.777  -2.886   0.411  0.00  0.00    +0.075 S 
ATOM     23  O   UNL     1      -2.468  -4.176   0.920  0.00  0.00    -0.150 OA
ATOM     24  O   UNL     1      -3.632  -1.982   1.095  0.00  0.00    -0.150 OA
BRANCH  22  25
ATOM     25  N   UNL     1      -3.435  -3.116  -1.091  0.00  0.00    -0.202 N 
ATOM     26  C   UNL     1      -4.335  -2.177  -1.766  0.00  0.00    +0.136 C 
ATOM     27  C   UNL     1      -4.663  -2.834  -3.117  0.00  0.00    +0.058 C 
ATOM     28  C   UNL     1      -3.904  -4.142  -3.098  0.00  0.00    -0.023 A 
ATOM     29  C   UNL     1      -3.219  -4.236  -1.897  0.00  0.00    +0.054 A 
ATOM     30  C   UNL     1      -2.440  -5.368  -1.647  0.00  0.00    +0.025 A 
ATOM     31  C   UNL     1      -2.358  -6.375  -2.585  0.00  0.00    +0.002 A 
ATOM     32  C   UNL     1      -3.046  -6.272  -3.780  0.00  0.00    +0.000 A 
ATOM     33  C   UNL     1      -3.819  -5.154  -4.034  0.00  0.00    +0.005 A 
ENDBRANCH  22  25
ENDBRANCH   9  22
TORSDOF 3
