REMARK  Name = ZINC15859587
REMARK  7 active torsions:
REMARK  status: ('A' for Active; 'I' for Inactive)
REMARK    1  A    between atoms: C_1  and  C_2
REMARK    2  A    between atoms: C_5  and  C_8
REMARK    3  A    between atoms: N_10  and  C_11
REMARK    4  A    between atoms: C_19  and  C_20
REMARK    5  A    between atoms: C_20  and  C_22
REMARK    6  A    between atoms: C_20  and  N_63
REMARK    7  A    between atoms: C_31  and  C_34
REMARK                            x       y       z     vdW  Elec       q    Type
REMARK                         _______ _______ _______ _____ _____    ______ ____
ROOT
ATOM      1  C   UNL     1      -2.291   4.147   0.045  0.00  0.00    +0.082 A 
ATOM      2  C   UNL     1      -1.376   3.982  -1.095  0.00  0.00    +0.042 A 
ATOM      3  C   UNL     1      -1.537   3.588  -2.422  0.00  0.00    +0.013 A 
ATOM      4  C   UNL     1      -0.449   3.535  -3.250  0.00  0.00    +0.001 A 
ATOM      5  C   UNL     1       0.809   3.880  -2.779  0.00  0.00    +0.004 A 
ATOM      6  C   UNL     1       0.986   4.276  -1.471  0.00  0.00    +0.047 A 
ATOM      7  C   UNL     1      -0.105   4.332  -0.612  0.00  0.00    +0.137 A 
ATOM      8  O   UNL     1      -0.246   4.672   0.685  0.00  0.00    -0.459 OA
ATOM      9  C   UNL     1      -1.531   4.564   1.074  0.00  0.00    +0.118 A 
ENDROOT
BRANCH   1  12
ATOM     10  C   UNL     1      -4.150   2.671   0.256  0.00  0.00    +0.248 C 
ATOM     11  O   UNL     1      -3.385   1.763   0.517  0.00  0.00    -0.270 OA
ATOM     12  N   UNL     1      -3.676   3.916   0.057  0.00  0.00    -0.278 N 
ATOM     13  H   UNL     1      -4.291   4.654  -0.079  0.00  0.00    +0.155 HD
BRANCH  10  18
ATOM     14  C   UNL     1      -9.800   1.648  -0.125  0.00  0.00    +0.044 C 
ATOM     15  C   UNL     1      -8.321   1.916  -0.025  0.00  0.00    -0.050 A 
ATOM     16  C   UNL     1      -7.452   0.881   0.271  0.00  0.00    +0.004 A 
ATOM     17  C   UNL     1      -6.096   1.119   0.364  0.00  0.00    +0.013 A 
ATOM     18  C   UNL     1      -5.602   2.408   0.158  0.00  0.00    +0.037 A 
ATOM     19  C   UNL     1      -6.484   3.449  -0.136  0.00  0.00    +0.013 A 
ATOM     20  C   UNL     1      -7.837   3.196  -0.231  0.00  0.00    +0.004 A 
ENDBRANCH  10  18
ENDBRANCH   1  12
BRANCH   9  21
ATOM     21  C   UNL     1      -2.043   4.865   2.459  0.00  0.00    +0.032 C 
BRANCH  21  28
ATOM     22  C   UNL     1      -0.992   2.823   3.225  0.00  0.00    -0.077 C 
ATOM     23  C   UNL     1       0.058   2.261   4.185  0.00  0.00    -0.015 C 
ATOM     24  C   UNL     1      -0.383   2.524   5.628  0.00  0.00    -0.018 C 
ATOM     25  C   UNL     1      -0.581   4.029   5.827  0.00  0.00    -0.015 C 
ATOM     26  C   UNL     1      -1.613   4.540   4.819  0.00  0.00    -0.077 C 
ATOM     27  C   UNL     1       0.693   2.018   6.591  0.00  0.00    +0.007 C 
ATOM     28  N   UNL     1      -1.118   4.279   3.451  0.00  0.00    +0.389 N 
ATOM     29  H   UNL     1      -0.194   4.714   3.342  0.00  0.00    -0.080 HD
ENDBRANCH  21  28
BRANCH  21  30
ATOM     30  C   UNL     1      -2.094   6.358   2.662  0.00  0.00    -0.054 A 
ATOM     31  C   UNL     1      -0.941   7.051   2.980  0.00  0.00    +0.004 A 
ATOM     32  C   UNL     1      -0.986   8.421   3.160  0.00  0.00    +0.020 A 
ATOM     33  C   UNL     1      -2.186   9.096   3.034  0.00  0.00    +0.041 A 
ATOM     34  C   UNL     1      -3.341   8.401   2.721  0.00  0.00    +0.020 A 
ATOM     35  C   UNL     1      -3.294   7.032   2.535  0.00  0.00    +0.004 A 
ATOM     36 CL   UNL     1      -2.244  10.815   3.267  0.00  0.00    -0.084 Cl
ENDBRANCH  21  30
ENDBRANCH   9  21
TORSDOF 5
