REMARK  Name = ZINC01393676
REMARK  8 active torsions:
REMARK  status: ('A' for Active; 'I' for Inactive)
REMARK    1  A    between atoms: C_1  and  C_2
REMARK    2  A    between atoms: C_3  and  C_26
REMARK    3  A    between atoms: N_6  and  C_20
REMARK    4  A    between atoms: N_7  and  S_8
REMARK    5  A    between atoms: S_8  and  C_11
REMARK    6  A    between atoms: C_14  and  N_17
REMARK    7  A    between atoms: C_26  and  C_27
REMARK    8  A    between atoms: C_27  and  O_28
REMARK                            x       y       z     vdW  Elec       q    Type
REMARK                         _______ _______ _______ _____ _____    ______ ____
ROOT
ATOM      1  C   UNL     1      -0.153   1.475   0.324  0.00  0.00    +0.068 C 
ATOM      2  C   UNL     1      -0.056  -0.018   0.139  0.00  0.00    +0.067 A 
ATOM      3  C   UNL     1      -0.103  -0.671  -1.040  0.00  0.00    +0.043 A 
ATOM      4  C   UNL     1       0.022  -2.055  -0.780  0.00  0.00    +0.277 A 
ATOM      5  O   UNL     1       0.022  -2.946  -1.611  0.00  0.00    -0.265 OA
ATOM      6  N   UNL     1       0.143  -2.211   0.554  0.00  0.00    -0.197 N 
ATOM      7  N   UNL     1       0.101  -0.937   1.137  0.00  0.00    -0.146 N 
ENDROOT
BRANCH   6   8
ATOM      8  C   UNL     1       0.289  -3.425   1.234  0.00  0.00    +0.069 A 
ATOM      9  C   UNL     1      -0.701  -4.395   1.147  0.00  0.00    +0.028 A 
ATOM     10  C   UNL     1      -0.553  -5.593   1.818  0.00  0.00    +0.002 A 
ATOM     11  C   UNL     1       0.580  -5.826   2.577  0.00  0.00    +0.000 A 
ATOM     12  C   UNL     1       1.567  -4.862   2.666  0.00  0.00    +0.002 A 
ATOM     13  C   UNL     1       1.428  -3.665   1.992  0.00  0.00    +0.028 A 
ENDBRANCH   6   8
BRANCH   7  14
ATOM     14  S   UNL     1       0.216  -0.605   2.755  0.00  0.00    +0.098 S 
ATOM     15  O   UNL     1       1.002  -1.641   3.328  0.00  0.00    -0.146 OA
ATOM     16  O   UNL     1       0.567   0.767   2.864  0.00  0.00    -0.146 OA
BRANCH  14  17
ATOM     17  C   UNL     1      -1.401  -0.766   3.436  0.00  0.00    +0.113 A 
ATOM     18  C   UNL     1      -2.247   0.327   3.476  0.00  0.00    +0.031 A 
ATOM     19  C   UNL     1      -3.515   0.201   4.010  0.00  0.00    +0.034 A 
ATOM     20  C   UNL     1      -3.939  -1.019   4.505  0.00  0.00    +0.126 A 
ATOM     21  C   UNL     1      -3.094  -2.112   4.465  0.00  0.00    +0.034 A 
ATOM     22  C   UNL     1      -1.826  -1.987   3.926  0.00  0.00    +0.031 A 
BRANCH  20  23
ATOM     23  N   UNL     1      -5.297  -1.154   5.078  0.00  0.00    +0.056 N 
ATOM     24  O   UNL     1      -6.036  -0.198   5.114  0.00  0.00    -0.126 OA
ATOM     25  O   UNL     1      -5.667  -2.220   5.511  0.00  0.00    -0.126 OA
ENDBRANCH  20  23
ENDBRANCH  14  17
ENDBRANCH   7  14
BRANCH   3  26
ATOM     26  C   UNL     1      -0.262  -0.036  -2.397  0.00  0.00    +0.070 C 
BRANCH  26  27
ATOM     27  C   UNL     1       1.117   0.173  -3.027  0.00  0.00    +0.160 C 
BRANCH  27  28
ATOM     28  O   UNL     1       0.966   0.775  -4.314  0.00  0.00    -0.395 OA
ATOM     29  H   UNL     1       1.802   0.937  -4.773  0.00  0.00    +0.209 HD
ENDBRANCH  27  28
ENDBRANCH  26  27
ENDBRANCH   3  26
TORSDOF 7
