REMARK  Name = ZINC65182770
REMARK  8 active torsions:
REMARK  status: ('A' for Active; 'I' for Inactive)
REMARK    1  A    between atoms: C_1  and  C_2
REMARK    2  A    between atoms: C_7  and  C_13
REMARK    3  A    between atoms: C_9  and  C_12
REMARK    4  A    between atoms: C_16  and  C_19
REMARK    5  A    between atoms: C_19  and  C_20
REMARK    6  A    between atoms: C_20  and  N_21
REMARK    7  A    between atoms: N_21  and  C_22
REMARK    8  A    between atoms: C_23  and  C_25
REMARK                            x       y       z     vdW  Elec       q    Type
REMARK                         _______ _______ _______ _____ _____    ______ ____
ROOT
ATOM      1  C   UNL     1       0.969  -5.338   1.423  0.00  0.00    +0.318 C 
ATOM      2  N   UNL     1       1.144  -6.470   0.499  0.00  0.00    -0.291 N 
ATOM      3  C   UNL     1       2.438  -6.412   0.039  0.00  0.00    +0.139 C 
ATOM      4  N   UNL     1       3.074  -5.417   0.543  0.00  0.00    -0.072 NA
ATOM      5  O   UNL     1       2.245  -4.679   1.426  0.00  0.00    -0.367 OA
ATOM      6  H   UNL     1       0.474  -7.130   0.260  0.00  0.00    +0.151 HD
ENDROOT
BRANCH   1  13
ATOM      7  C   UNL     1       0.482   1.659   0.601  0.00  0.00    +0.044 C 
ATOM      8  C   UNL     1       0.421   0.180   0.317  0.00  0.00    -0.050 A 
ATOM      9  C   UNL     1       0.692  -0.277  -0.981  0.00  0.00    +0.005 A 
ATOM     10  C   UNL     1       0.658  -1.585  -1.315  0.00  0.00    +0.026 A 
ATOM     11  C   UNL     1       0.339  -2.568  -0.338  0.00  0.00    +0.043 A 
ATOM     12  N   UNL     1       0.242  -3.873  -0.413  0.00  0.00    -0.373 N 
ATOM     13  C   UNL     1      -0.120  -4.392   0.911  0.00  0.00    +0.168 C 
ATOM     14  C   UNL     1      -0.230  -3.184   1.814  0.00  0.00    -0.036 C 
ATOM     15  C   UNL     1       0.049  -2.111   1.040  0.00  0.00    -0.001 A 
ATOM     16  C   UNL     1       0.113  -0.672   1.321  0.00  0.00    +0.013 A 
ATOM     17  C   UNL     1      -0.581  -3.177   3.280  0.00  0.00    +0.042 C 
ATOM     18  H   UNL     1       0.386  -4.407  -1.210  0.00  0.00    +0.160 HD
ENDBRANCH   1  13
BRANCH   3  19
ATOM     19  C   UNL     1       3.036  -7.394  -0.936  0.00  0.00    +0.094 C 
BRANCH  19  20
ATOM     20  C   UNL     1       4.492  -7.013  -1.215  0.00  0.00    +0.115 C 
BRANCH  20  21
ATOM     21  N   UNL     1       5.073  -7.967  -2.162  0.00  0.00    -0.300 N 
ATOM     22  C   UNL     1       4.987  -7.714  -3.603  0.00  0.00    +0.132 C 
ATOM     23  C   UNL     1       5.687  -9.078  -1.708  0.00  0.00    +0.248 C 
ATOM     24  O   UNL     1       5.675  -9.337  -0.521  0.00  0.00    -0.270 OA
BRANCH  23  25
ATOM     25  C   UNL     1       6.374  -9.982  -2.655  0.00  0.00    +0.058 A 
ATOM     26  C   UNL     1       7.193  -9.457  -3.656  0.00  0.00    +0.052 A 
ATOM     27  C   UNL     1       7.832 -10.307  -4.537  0.00  0.00    +0.124 A 
ATOM     28  C   UNL     1       7.662 -11.678  -4.428  0.00  0.00    +0.040 A 
ATOM     29  C   UNL     1       6.851 -12.204  -3.439  0.00  0.00    +0.023 A 
ATOM     30  C   UNL     1       6.211 -11.365  -2.548  0.00  0.00    +0.053 A 
ATOM     31 CL   UNL     1       5.200 -12.028  -1.302  0.00  0.00    -0.083 Cl
ATOM     32  F   UNL     1       8.625  -9.801  -5.507  0.00  0.00    -0.205 F 
ENDBRANCH  23  25
ENDBRANCH  20  21
ENDBRANCH  19  20
ENDBRANCH   3  19
TORSDOF 5
