REMARK  Name = ZINC37041400
REMARK  7 active torsions:
REMARK  status: ('A' for Active; 'I' for Inactive)
REMARK    1  A    between atoms: C_1  and  C_2
REMARK    2  A    between atoms: C_2  and  C_3
REMARK    3  A    between atoms: C_9  and  N_11
REMARK    4  A    between atoms: N_11  and  S_12
REMARK    5  A    between atoms: S_12  and  C_15
REMARK    6  A    between atoms: C_17  and  C_23
REMARK    7  A    between atoms: C_18  and  C_20
REMARK                            x       y       z     vdW  Elec       q    Type
REMARK                         _______ _______ _______ _____ _____    ______ ____
ROOT
ATOM      1  S   UNL     1       0.247  -3.996   0.770  0.00  0.00    +0.065 S 
ATOM      2  O   UNL     1       0.855  -4.292   2.020  0.00  0.00    -0.153 OA
ATOM      3  O   UNL     1      -0.574  -4.930   0.082  0.00  0.00    -0.153 OA
ENDROOT
BRANCH   1   4
ATOM      4  C   UNL     1       1.550  -3.562  -0.334  0.00  0.00    +0.143 A 
ATOM      5  C   UNL     1       2.783  -3.088  -0.022  0.00  0.00    +0.040 A 
ATOM      6  C   UNL     1       3.666  -2.807  -1.035  0.00  0.00    -0.027 A 
ATOM      7  C   UNL     1       3.200  -3.042  -2.323  0.00  0.00    +0.105 A 
ATOM      8  S   UNL     1       1.553  -3.649  -2.012  0.00  0.00    -0.062 S 
ATOM      9  C   UNL     1       5.051  -2.277  -0.767  0.00  0.00    +0.045 C 
BRANCH   7  10
ATOM     10  C   UNL     1       3.864  -2.854  -3.562  0.00  0.00    +0.393 C 
ATOM     11  O   UNL     1       5.012  -2.428  -3.582  0.00  0.00    -0.240 OA
ATOM     12  O   UNL     1       3.289  -3.119  -4.611  0.00  0.00    -0.240 OA
ENDBRANCH   7  10
ENDBRANCH   1   4
BRANCH   1  13
ATOM     13  N   UNL     1      -0.673  -2.638   1.000  0.00  0.00    -0.186 NA
ATOM     14  H   UNL     1      -0.719  -2.227   1.877  0.00  0.00    +0.148 HD
BRANCH  13  20
ATOM     15  C   UNL     1      -1.433  -0.534   0.013  0.00  0.00    +0.007 C 
ATOM     16  C   UNL     1      -2.110  -0.145   1.329  0.00  0.00    +0.005 C 
ATOM     17  C   UNL     1      -3.546  -0.675   1.340  0.00  0.00    +0.000 C 
ATOM     18  C   UNL     1      -3.528  -2.199   1.206  0.00  0.00    +0.002 C 
ATOM     19  C   UNL     1      -2.851  -2.587  -0.110  0.00  0.00    +0.020 C 
ATOM     20  C   UNL     1      -1.416  -2.058  -0.121  0.00  0.00    +0.080 C 
BRANCH  15  22
ATOM     21  C   UNL     1      -0.019   1.526   0.010  0.00  0.00    +0.004 C 
ATOM     22  C   UNL     1       0.002  -0.004   0.002  0.00  0.00    +0.002 C 
ENDBRANCH  15  22
ENDBRANCH  13  20
ENDBRANCH   1  13
TORSDOF 5
