REMARK  Name = ZINC04023228
REMARK  3 active torsions:
REMARK  status: ('A' for Active; 'I' for Inactive)
REMARK    1  A    between atoms: C_6  and  C_7
REMARK    2  A    between atoms: C_21  and  O_32
REMARK    3  A    between atoms: C_23  and  C_25
REMARK                            x       y       z     vdW  Elec       q    Type
REMARK                         _______ _______ _______ _____ _____    ______ ____
ROOT
ATOM      1  C   UNL     1      -0.263   1.652   2.479  0.00  0.00    +0.015 C 
ATOM      2  C   UNL     1      -0.724   1.672   1.206  0.00  0.00    -0.004 C 
ATOM      3  C   UNL     1       0.074   1.287  -0.019  0.00  0.00    +0.040 C 
ATOM      4  C   UNL     1      -0.700   1.882  -1.216  0.00  0.00    +0.022 C 
ATOM      5  C   UNL     1      -2.145   1.949  -0.688  0.00  0.00    +0.064 C 
ATOM      6  C   UNL     1      -2.025   2.056   0.812  0.00  0.00    +0.168 C 
ATOM      7  O   UNL     1      -2.909   2.415   1.564  0.00  0.00    -0.292 OA
ATOM      8  C   UNL     1      -2.899   0.677  -1.070  0.00  0.00    +0.026 C 
ATOM      9  C   UNL     1      -3.055   0.629  -2.594  0.00  0.00    +0.049 C 
ATOM     10  C   UNL     1      -3.889  -0.589  -2.994  0.00  0.00    +0.009 C 
ATOM     11  C   UNL     1      -4.041  -0.622  -4.516  0.00  0.00    +0.001 C 
ATOM     12  C   UNL     1      -4.737   0.655  -4.991  0.00  0.00    +0.005 C 
ATOM     13  C   UNL     1      -3.909   1.869  -4.583  0.00  0.00    +0.065 C 
ATOM     14  C   UNL     1      -3.764   1.903  -3.061  0.00  0.00    +0.171 C 
ATOM     15  O   UNL     1      -2.998   3.042  -2.668  0.00  0.00    -0.340 OA
ATOM     16  C   UNL     1      -2.851   3.179  -1.252  0.00  0.00    +0.165 C 
ENDROOT
BRANCH   1  22
ATOM     17  C   UNL     1       1.598   0.084   1.965  0.00  0.00    +0.011 A 
ATOM     18  C   UNL     1       2.848  -0.425   2.240  0.00  0.00    +0.039 A 
ATOM     19  C   UNL     1       3.576   0.058   3.318  0.00  0.00    +0.123 A 
ATOM     20  C   UNL     1       3.054   1.060   4.122  0.00  0.00    +0.039 A 
ATOM     21  C   UNL     1       1.807   1.583   3.856  0.00  0.00    +0.011 A 
ATOM     22  C   UNL     1       1.067   1.100   2.769  0.00  0.00    -0.024 A 
ATOM     23  F   UNL     1       4.799  -0.450   3.584  0.00  0.00    -0.205 F 
ENDBRANCH   1  22
BRANCH  16  24
ATOM     24  C   UNL     1      -2.034   4.409  -0.951  0.00  0.00    -0.018 A 
ATOM     25  C   UNL     1      -0.998   4.774  -1.791  0.00  0.00    +0.009 A 
ATOM     26  C   UNL     1      -0.252   5.904  -1.518  0.00  0.00    +0.039 A 
ATOM     27  C   UNL     1      -0.534   6.665  -0.396  0.00  0.00    +0.123 A 
ATOM     28  C   UNL     1      -1.569   6.296   0.447  0.00  0.00    +0.039 A 
ATOM     29  C   UNL     1      -2.317   5.168   0.169  0.00  0.00    +0.009 A 
ATOM     30  F   UNL     1       0.198   7.768  -0.126  0.00  0.00    -0.205 F 
ENDBRANCH  16  24
BRANCH  14  31
ATOM     31  O   UNL     1      -5.060   1.973  -2.463  0.00  0.00    -0.364 OA
ATOM     32  H   UNL     1      -5.567   2.758  -2.712  0.00  0.00    +0.213 HD
ENDBRANCH  14  31
TORSDOF 3
