REMARK  Name = ZINC02235731
REMARK  4 active torsions:
REMARK  status: ('A' for Active; 'I' for Inactive)
REMARK    1  A    between atoms: C_9  and  O_26
REMARK    2  A    between atoms: C_10  and  C_11
REMARK    3  A    between atoms: N_12  and  N_13
REMARK    4  A    between atoms: C_14  and  C_19
REMARK                            x       y       z     vdW  Elec       q    Type
REMARK                         _______ _______ _______ _____ _____    ______ ____
ROOT
ATOM      1  C   UNL     1       5.005   0.088   0.175  0.00  0.00    +0.145 C 
ATOM      2  N   UNL     1       6.109  -0.556  -0.060  0.00  0.00    -0.170 NA
ENDROOT
BRANCH   1  12
ATOM      3  C   UNL     1       0.067   1.365   0.936  0.00  0.00    +0.001 A 
ATOM      4  C   UNL     1       1.263   2.079   0.938  0.00  0.00    +0.001 A 
ATOM      5  C   UNL     1       2.451   1.456   0.697  0.00  0.00    +0.009 A 
ATOM      6  C   UNL     1       2.472   0.079   0.445  0.00  0.00    -0.006 A 
ATOM      7  C   UNL     1       1.258  -0.651   0.443  0.00  0.00    -0.017 A 
ATOM      8  C   UNL     1       0.051   0.025   0.695  0.00  0.00    +0.008 A 
ATOM      9  C   UNL     1       1.281  -2.033   0.190  0.00  0.00    +0.012 A 
ATOM     10  C   UNL     1       2.453  -2.677  -0.053  0.00  0.00    +0.046 A 
ATOM     11  C   UNL     1       3.673  -2.002  -0.061  0.00  0.00    +0.126 A 
ATOM     12  C   UNL     1       3.723  -0.629   0.182  0.00  0.00    +0.044 A 
BRANCH  11  13
ATOM     13  O   UNL     1       4.820  -2.686  -0.307  0.00  0.00    -0.506 OA
ATOM     14  H   UNL     1       5.060  -2.727  -1.243  0.00  0.00    +0.292 HD
ENDBRANCH  11  13
ENDBRANCH   1  12
BRANCH   2  15
ATOM     15  N   UNL     1       7.318   0.144  -0.174  0.00  0.00    -0.188 N 
ATOM     16  C   UNL     1       8.571  -0.422  -0.305  0.00  0.00    +0.184 A 
ATOM     17  N   UNL     1       9.452   0.537  -0.384  0.00  0.00    -0.152 NA
ATOM     18  N   UNL     1       8.771   1.759  -0.304  0.00  0.00    -0.253 N 
ATOM     19  C   UNL     1       7.457   1.484  -0.181  0.00  0.00    +0.197 A 
ATOM     20  S   UNL     1       6.192   2.632  -0.052  0.00  0.00    -0.010 S 
ATOM     21  H   UNL     1       9.172   2.642  -0.336  0.00  0.00    +0.191 HD
BRANCH  16  22
ATOM     22  C   UNL     1       8.865  -1.871  -0.347  0.00  0.00    +0.022 A 
ATOM     23  C   UNL     1       7.827  -2.800  -0.257  0.00  0.00    +0.012 A 
ATOM     24  C   UNL     1       8.107  -4.150  -0.297  0.00  0.00    +0.002 A 
ATOM     25  C   UNL     1       9.414  -4.585  -0.427  0.00  0.00    +0.020 A 
ATOM     26  C   UNL     1      10.449  -3.670  -0.517  0.00  0.00    +0.042 A 
ATOM     27  C   UNL     1      10.181  -2.316  -0.483  0.00  0.00    +0.031 A 
ATOM     28 CL   UNL     1      12.086  -4.226  -0.678  0.00  0.00    -0.084 Cl
ENDBRANCH  16  22
ENDBRANCH   2  15
TORSDOF 4
