REMARK  Name = ZINC09915750
REMARK  13 active torsions:
REMARK  status: ('A' for Active; 'I' for Inactive)
REMARK    1  A    between atoms: C_1  and  C_2
REMARK    2  A    between atoms: C_2  and  C_25
REMARK    3  A    between atoms: C_3  and  C_23
REMARK    4  A    between atoms: C_3  and  O_24
REMARK    5  A    between atoms: C_4  and  C_21
REMARK    6  A    between atoms: C_4  and  O_22
REMARK    7  A    between atoms: C_5  and  C_19
REMARK    8  A    between atoms: C_5  and  O_20
REMARK    9  A    between atoms: C_6  and  C_8
REMARK   10  A    between atoms: C_6  and  O_9
REMARK   11  A    between atoms: O_9  and  C_10
REMARK   12  A    between atoms: C_13  and  N_16
REMARK   13  A    between atoms: C_25  and  O_26
REMARK                            x       y       z     vdW  Elec       q    Type
REMARK                         _______ _______ _______ _____ _____    ______ ____
ROOT
ATOM      1  C   UNL     1       3.359   1.725  -1.147  0.00  0.00    +0.047 C 
ATOM      2  C   UNL     1       1.925   1.194  -1.091  0.00  0.00    +0.125 C 
ATOM      3  C   UNL     1       1.273   1.621   0.226  0.00  0.00    +0.125 C 
ATOM      4  C   UNL     1       1.205   3.150   0.281  0.00  0.00    +0.129 C 
ATOM      5  C   UNL     1       0.434   3.660  -0.941  0.00  0.00    +0.159 C 
ATOM      6  C   UNL     1       1.119   3.154  -2.213  0.00  0.00    +0.242 C 
ATOM      7  O   UNL     1       1.177   1.726  -2.186  0.00  0.00    -0.326 OA
ATOM      8  C   UNL     1       0.322   3.609  -3.437  0.00  0.00    +0.092 C 
ATOM      9  C   UNL     1      -1.004   3.141  -0.892  0.00  0.00    +0.051 C 
ATOM     10  C   UNL     1       0.484   3.585   1.558  0.00  0.00    +0.047 C 
ATOM     11  C   UNL     1       2.106   1.104   1.401  0.00  0.00    +0.047 C 
ENDROOT
BRANCH   5  12
ATOM     12  O   UNL     1       0.427   5.089  -0.939  0.00  0.00    -0.379 OA
ATOM     13  H   UNL     1      -0.045   5.481  -1.686  0.00  0.00    +0.211 HD
ENDBRANCH   5  12
BRANCH   4  14
ATOM     14  O   UNL     1       2.528   3.688   0.271  0.00  0.00    -0.383 OA
ATOM     15  H   UNL     1       2.560   4.654   0.303  0.00  0.00    +0.210 HD
ENDBRANCH   4  14
BRANCH   3  16
ATOM     16  O   UNL     1      -0.048   1.081   0.302  0.00  0.00    -0.383 OA
ATOM     17  H   UNL     1      -0.080   0.115   0.273  0.00  0.00    +0.210 HD
ENDBRANCH   3  16
BRANCH   6  18
ATOM     18  O   UNL     1       2.445   3.684  -2.284  0.00  0.00    -0.458 OA
BRANCH  18  19
ATOM     19  C   UNL     1       3.197   3.321  -3.356  0.00  0.00    +0.124 A 
ATOM     20  C   UNL     1       2.720   2.378  -4.254  0.00  0.00    +0.048 A 
ATOM     21  C   UNL     1       3.485   2.015  -5.345  0.00  0.00    +0.036 A 
ATOM     22  C   UNL     1       4.730   2.583  -5.537  0.00  0.00    +0.126 A 
ATOM     23  C   UNL     1       5.211   3.520  -4.641  0.00  0.00    +0.036 A 
ATOM     24  C   UNL     1       4.447   3.891  -3.551  0.00  0.00    +0.048 A 
BRANCH  22  25
ATOM     25  N   UNL     1       5.550   2.189  -6.705  0.00  0.00    +0.056 N 
ATOM     26  O   UNL     1       6.647   2.689  -6.875  0.00  0.00    -0.126 OA
ATOM     27  O   UNL     1       5.128   1.363  -7.495  0.00  0.00    -0.126 OA
ENDBRANCH  22  25
ENDBRANCH  18  19
ENDBRANCH   6  18
BRANCH   2  28
ATOM     28  C   UNL     1       1.943  -0.334  -1.181  0.00  0.00    +0.193 C 
BRANCH  28  29
ATOM     29  O   UNL     1       2.655  -0.734  -2.353  0.00  0.00    -0.392 OA
ATOM     30  H   UNL     1       2.706  -1.692  -2.475  0.00  0.00    +0.210 HD
ENDBRANCH  28  29
ENDBRANCH   2  28
TORSDOF 8
