REMARK  Name = ZINC06409851
REMARK  5 active torsions:
REMARK  status: ('A' for Active; 'I' for Inactive)
REMARK    1  A    between atoms: C_1  and  C_2
REMARK    2  A    between atoms: C_7  and  C_14
REMARK    3  A    between atoms: C_14  and  C_16
REMARK    4  A    between atoms: C_14  and  N_73
REMARK    5  A    between atoms: N_20  and  C_21
REMARK                            x       y       z     vdW  Elec       q    Type
REMARK                         _______ _______ _______ _____ _____    ______ ____
ROOT
ATOM      1  C   UNL     1      -2.840   1.454  -2.452  0.00  0.00    +0.039 C 
ENDROOT
BRANCH   1   8
ATOM      2  C   UNL     1       1.227  -0.455  -9.043  0.00  0.00    +0.044 C 
ATOM      3  C   UNL     1       0.460   0.124  -7.881  0.00  0.00    -0.048 A 
ATOM      4  C   UNL     1       0.166   1.480  -7.860  0.00  0.00    +0.004 A 
ATOM      5  C   UNL     1      -0.528   2.025  -6.817  0.00  0.00    +0.010 A 
ATOM      6  C   UNL     1      -0.947   1.208  -5.761  0.00  0.00    -0.001 A 
ATOM      7  C   UNL     1      -1.692   1.759  -4.628  0.00  0.00    +0.017 A 
ATOM      8  C   UNL     1      -2.071   0.919  -3.633  0.00  0.00    +0.011 A 
ATOM      9  C   UNL     1      -1.744  -0.452  -3.696  0.00  0.00    +0.251 A 
ATOM     10  O   UNL     1      -2.090  -1.188  -2.789  0.00  0.00    -0.268 OA
ATOM     11  N   UNL     1      -1.065  -0.968  -4.736  0.00  0.00    -0.322 N 
ATOM     12  H   UNL     1      -0.860  -1.915  -4.750  0.00  0.00    +0.169 HD
ATOM     13  C   UNL     1      -0.651  -0.168  -5.779  0.00  0.00    +0.049 A 
ATOM     14  C   UNL     1       0.058  -0.700  -6.852  0.00  0.00    +0.029 A 
ENDBRANCH   1   8
BRANCH   1  25
ATOM     15  C   UNL     1      -0.755   1.594  -1.230  0.00  0.00    -0.077 C 
ATOM     16  C   UNL     1      -0.013   1.086   0.008  0.00  0.00    -0.018 C 
ATOM     17  C   UNL     1      -0.731   1.581   1.267  0.00  0.00    +0.003 C 
ATOM     18  C   UNL     1      -2.184   1.095   1.238  0.00  0.00    -0.044 C 
ATOM     19  C   UNL     1      -2.863   1.602  -0.036  0.00  0.00    -0.071 C 
ATOM     20  C   UNL     1      -2.209  -0.435   1.257  0.00  0.00    +0.005 C 
ATOM     21  C   UNL     1      -3.659  -0.922   1.231  0.00  0.00    +0.000 C 
ATOM     22  C   UNL     1      -4.399  -0.384   2.458  0.00  0.00    +0.000 C 
ATOM     23  C   UNL     1      -4.375   1.145   2.438  0.00  0.00    +0.000 C 
ATOM     24  C   UNL     1      -2.925   1.633   2.463  0.00  0.00    +0.005 C 
ATOM     25  N   UNL     1      -2.137   1.071  -1.210  0.00  0.00    +0.390 N 
ATOM     26  H   UNL     1      -2.106   0.047  -1.147  0.00  0.00    -0.080 HD
ENDBRANCH   1  25
BRANCH   1  27
ATOM     27  C   UNL     1      -4.221   0.851  -2.437  0.00  0.00    +0.143 A 
ATOM     28  N   UNL     1      -4.537  -0.373  -2.089  0.00  0.00    -0.115 NA
ATOM     29  N   UNL     1      -5.813  -0.504  -2.208  0.00  0.00    -0.023 NA
ATOM     30  N   UNL     1      -6.319   0.603  -2.629  0.00  0.00    -0.044 NA
ATOM     31  N   UNL     1      -5.369   1.462  -2.782  0.00  0.00    -0.227 N 
BRANCH  31  32
ATOM     32  C   UNL     1      -5.513   2.845  -3.245  0.00  0.00    +0.111 C 
ATOM     33  C   UNL     1      -6.429   3.610  -2.288  0.00  0.00    +0.027 C 
ATOM     34  C   UNL     1      -6.580   5.054  -2.771  0.00  0.00    +0.002 C 
ATOM     35  C   UNL     1      -7.189   5.061  -4.175  0.00  0.00    +0.000 C 
ATOM     36  C   UNL     1      -6.273   4.296  -5.132  0.00  0.00    +0.002 C 
ATOM     37  C   UNL     1      -6.122   2.852  -4.649  0.00  0.00    +0.027 C 
ENDBRANCH  31  32
ENDBRANCH   1  27
TORSDOF 4
