REMARK  Name = ZINC09411465
REMARK  7 active torsions:
REMARK  status: ('A' for Active; 'I' for Inactive)
REMARK    1  A    between atoms: C_1  and  C_2
REMARK    2  A    between atoms: C_2  and  C_33
REMARK    3  A    between atoms: C_6  and  C_23
REMARK    4  A    between atoms: C_8  and  C_21
REMARK    5  A    between atoms: C_9  and  N_20
REMARK    6  A    between atoms: N_10  and  C_11
REMARK    7  A    between atoms: C_14  and  N_17
REMARK                            x       y       z     vdW  Elec       q    Type
REMARK                         _______ _______ _______ _____ _____    ______ ____
ROOT
ATOM      1  C   UNL     1       0.629  -0.343   3.486  0.00  0.00    +0.011 C 
ATOM      2  C   UNL     1       1.296   0.634   2.515  0.00  0.00    -0.023 C 
ATOM      3  C   UNL     1       1.920  -0.141   1.352  0.00  0.00    +0.058 C 
ATOM      4  C   UNL     1       0.842  -0.884   0.602  0.00  0.00    +0.025 C 
ATOM      5  C   UNL     1      -0.417  -0.402   0.533  0.00  0.00    +0.025 C 
ATOM      6  C   UNL     1      -1.492  -1.144  -0.219  0.00  0.00    +0.099 C 
ATOM      7  C   UNL     1      -0.898  -2.146  -1.165  0.00  0.00    +0.077 C 
ATOM      8  C   UNL     1       0.387  -2.564  -1.028  0.00  0.00    +0.107 C 
ATOM      9  N   UNL     1       1.172  -2.062  -0.015  0.00  0.00    -0.260 N 
ATOM     10  C   UNL     1      -0.765   0.807   1.163  0.00  0.00    +0.162 C 
ATOM     11  O   UNL     1      -1.902   1.224   1.065  0.00  0.00    -0.292 OA
ATOM     12  C   UNL     1       0.245   1.595   1.950  0.00  0.00    +0.086 C 
ATOM     13  C   UNL     1       2.382   1.425   3.247  0.00  0.00    +0.011 C 
ENDROOT
BRANCH   6  14
ATOM     14  C   UNL     1      -2.380  -1.860   0.766  0.00  0.00    -0.016 A 
ATOM     15  C   UNL     1      -1.844  -2.809   1.616  0.00  0.00    +0.006 A 
ATOM     16  C   UNL     1      -2.659  -3.467   2.519  0.00  0.00    +0.000 A 
ATOM     17  C   UNL     1      -4.009  -3.175   2.573  0.00  0.00    +0.001 A 
ATOM     18  C   UNL     1      -4.545  -2.226   1.724  0.00  0.00    +0.020 A 
ATOM     19  C   UNL     1      -3.730  -1.564   0.823  0.00  0.00    +0.045 A 
ATOM     20 CL   UNL     1      -4.402  -0.367  -0.240  0.00  0.00    -0.083 Cl
ENDBRANCH   6  14
BRANCH   9  21
ATOM     21  C   UNL     1       2.317  -2.760   0.387  0.00  0.00    +0.040 A 
ATOM     22  C   UNL     1       3.537  -2.507  -0.225  0.00  0.00    +0.026 A 
ATOM     23  C   UNL     1       4.665  -3.194   0.178  0.00  0.00    +0.034 A 
ATOM     24  C   UNL     1       4.579  -4.141   1.182  0.00  0.00    +0.126 A 
ATOM     25  C   UNL     1       3.364  -4.399   1.790  0.00  0.00    +0.034 A 
ATOM     26  C   UNL     1       2.233  -3.712   1.396  0.00  0.00    +0.026 A 
BRANCH  24  27
ATOM     27  N   UNL     1       5.789  -4.880   1.607  0.00  0.00    +0.056 N 
ATOM     28  O   UNL     1       5.714  -5.715   2.491  0.00  0.00    -0.126 OA
ATOM     29  O   UNL     1       6.859  -4.654   1.072  0.00  0.00    -0.126 OA
ENDBRANCH  24  27
ENDBRANCH   9  21
BRANCH   8  30
ATOM     30  N   UNL     1       0.904  -3.489  -1.903  0.00  0.00    -0.345 N 
ATOM     31  H   UNL     1       0.329  -3.908  -2.562  0.00  0.00    +0.144 HD
ATOM     32  H   UNL     1       1.845  -3.723  -1.862  0.00  0.00    +0.144 HD
ENDBRANCH   8  30
BRANCH   7  33
ATOM     33  C   UNL     1      -1.700  -2.670  -2.230  0.00  0.00    +0.099 C 
ATOM     34  N   UNL     1      -2.336  -3.086  -3.074  0.00  0.00    -0.191 NA
ENDBRANCH   7  33
TORSDOF 5
