REMARK  Name = ZINC67397667
REMARK  8 active torsions:
REMARK  status: ('A' for Active; 'I' for Inactive)
REMARK    1  A    between atoms: C_1  and  C_2
REMARK    2  A    between atoms: N_7  and  C_9
REMARK    3  A    between atoms: C_9  and  C_10
REMARK    4  A    between atoms: C_10  and  C_12
REMARK    5  A    between atoms: C_10  and  N_13
REMARK    6  A    between atoms: C_14  and  C_16
REMARK    7  A    between atoms: C_22  and  N_29
REMARK    8  A    between atoms: C_26  and  C_28
REMARK                            x       y       z     vdW  Elec       q    Type
REMARK                         _______ _______ _______ _____ _____    ______ ____
ROOT
ATOM      1  N   UNL     1       0.434  -4.580   2.273  0.00  0.00    -0.307 N 
ATOM      2  C   UNL     1       0.153  -5.759   1.683  0.00  0.00    +0.300 C 
ATOM      3  O   UNL     1       1.052  -6.448   1.246  0.00  0.00    -0.265 OA
ATOM      4  H   UNL     1      -0.284  -4.030   2.623  0.00  0.00    +0.149 HD
ENDROOT
BRANCH   2   5
ATOM      5  C   UNL     1      -1.263  -6.218   1.569  0.00  0.00    +0.306 C 
ATOM      6  O   UNL     1      -2.168  -5.485   1.911  0.00  0.00    -0.265 OA
ATOM      7  N   UNL     1      -1.537  -7.446   1.085  0.00  0.00    -0.260 N 
ATOM      8  C   UNL     1      -2.819  -7.938   0.829  0.00  0.00    +0.040 A 
ATOM      9  C   UNL     1      -4.057  -7.314   1.000  0.00  0.00    +0.026 A 
ATOM     10  C   UNL     1      -5.221  -7.981   0.683  0.00  0.00    +0.034 A 
ATOM     11  C   UNL     1      -5.171  -9.273   0.193  0.00  0.00    +0.127 A 
ATOM     12  C   UNL     1      -3.950  -9.897   0.020  0.00  0.00    +0.038 A 
ATOM     13  C   UNL     1      -2.780  -9.233   0.336  0.00  0.00    -0.022 A 
ATOM     14  C   UNL     1      -1.335  -9.670   0.246  0.00  0.00    +0.059 C 
ATOM     15  C   UNL     1      -0.533  -8.458   0.746  0.00  0.00    +0.083 C 
ATOM     16  C   UNL     1       0.279  -8.836   1.986  0.00  0.00    +0.029 C 
BRANCH  11  17
ATOM     17  N   UNL     1      -6.423  -9.986  -0.146  0.00  0.00    +0.056 N 
ATOM     18  O   UNL     1      -7.490  -9.440   0.006  0.00  0.00    -0.126 OA
ATOM     19  O   UNL     1      -6.378 -11.116  -0.575  0.00  0.00    -0.126 OA
ENDBRANCH  11  17
ENDBRANCH   2   5
BRANCH   1  20
ATOM     20  C   UNL     1       1.824  -4.130   2.385  0.00  0.00    +0.054 C 
ATOM     21  C   UNL     1       2.450  -4.721   3.650  0.00  0.00    +0.026 C 
BRANCH  20  22
ATOM     22  C   UNL     1       1.861  -2.603   2.464  0.00  0.00    -0.057 C 
BRANCH  22  28
ATOM     23  C   UNL     1       2.119  -2.209  -2.409  0.00  0.00    +0.005 C 
ATOM     24  C   UNL     1       1.293  -1.856  -1.170  0.00  0.00    -0.031 C 
ATOM     25  C   UNL     1       1.143  -0.336  -1.072  0.00  0.00    -0.001 C 
ATOM     26  C   UNL     1       0.383   0.010   0.211  0.00  0.00    -0.018 C 
ATOM     27  C   UNL     1       1.127  -0.577   1.413  0.00  0.00    -0.079 C 
ATOM     28  N   UNL     1       1.215  -2.036   1.272  0.00  0.00    +0.381 N 
ATOM     29  C   UNL     1       2.003  -2.376   0.082  0.00  0.00    -0.076 C 
ATOM     30  H   UNL     1       0.287  -2.421   1.180  0.00  0.00    -0.082 HD
ENDBRANCH  22  28
ENDBRANCH  20  22
ENDBRANCH   1  20
TORSDOF 5
