REMARK  Name = ZINC09144540
REMARK  8 active torsions:
REMARK  status: ('A' for Active; 'I' for Inactive)
REMARK    1  A    between atoms: C_1  and  C_2
REMARK    2  A    between atoms: C_2  and  C_3
REMARK    3  A    between atoms: N_5  and  C_6
REMARK    4  A    between atoms: C_9  and  N_13
REMARK    5  A    between atoms: C_14  and  C_15
REMARK    6  A    between atoms: C_17  and  C_23
REMARK    7  A    between atoms: C_20  and  O_21
REMARK    8  A    between atoms: C_23  and  C_24
REMARK                            x       y       z     vdW  Elec       q    Type
REMARK                         _______ _______ _______ _____ _____    ______ ____
ROOT
ATOM      1  C   UNL     1       0.016  -0.021   0.061  0.00  0.00    +0.036 A 
ATOM      2  C   UNL     1       0.001   1.378   0.077  0.00  0.00    +0.017 A 
ATOM      3  C   UNL     1       1.188   2.078   0.079  0.00  0.00    -0.041 A 
ATOM      4  C   UNL     1       2.397   1.403   0.067  0.00  0.00    +0.023 A 
ATOM      5  C   UNL     1       2.427   0.021   0.051  0.00  0.00    +0.060 A 
ATOM      6  C   UNL     1       1.243  -0.700   0.048  0.00  0.00    +0.139 A 
ATOM      7 BR   UNL     1       4.086  -0.887   0.035  0.00  0.00    -0.046 Br
ENDROOT
BRANCH   1   9
ATOM      8  N   UNL     1      -1.228  -2.078   0.043  0.00  0.00    -0.255 NA
ATOM      9  C   UNL     1      -1.247  -0.774   0.058  0.00  0.00    +0.123 C 
BRANCH   8  13
ATOM     10  C   UNL     1      -4.785  -4.198   0.034  0.00  0.00    +0.052 A 
ATOM     11  C   UNL     1      -4.622  -3.120   0.897  0.00  0.00    +0.027 A 
ATOM     12  C   UNL     1      -3.437  -2.416   0.907  0.00  0.00    +0.029 A 
ATOM     13  C   UNL     1      -2.403  -2.779   0.040  0.00  0.00    +0.065 A 
ATOM     14  C   UNL     1      -2.570  -3.862  -0.826  0.00  0.00    +0.049 A 
ATOM     15  C   UNL     1      -3.756  -4.566  -0.826  0.00  0.00    +0.064 A 
ATOM     16 CL   UNL     1      -3.965  -5.912  -1.902  0.00  0.00    -0.082 Cl
BRANCH  10  19
ATOM     17  C   UNL     1      -7.125  -4.322   0.444  0.00  0.00    +0.217 C 
ATOM     18  O   UNL     1      -7.128  -3.141   0.722  0.00  0.00    -0.275 OA
ATOM     19  N   UNL     1      -5.987  -4.914   0.031  0.00  0.00    -0.284 N 
ATOM     20  H   UNL     1      -6.001  -5.837  -0.267  0.00  0.00    +0.155 HD
BRANCH  17  22
ATOM     21  C   UNL     1      -9.529  -4.222   1.044  0.00  0.00    +0.013 C 
ATOM     22  C   UNL     1      -8.394  -5.126   0.559  0.00  0.00    +0.093 C 
ENDBRANCH  17  22
ENDBRANCH  10  19
ENDBRANCH   8  13
ENDBRANCH   1   9
BRANCH   6  23
ATOM     23  O   UNL     1       1.271  -2.057   0.033  0.00  0.00    -0.505 OA
ATOM     24  H   UNL     1       1.275  -2.440  -0.855  0.00  0.00    +0.292 HD
ENDBRANCH   6  23
BRANCH   3  25
ATOM     25  C   UNL     1       1.170   3.584   0.096  0.00  0.00    +0.071 C 
BRANCH  25  26
ATOM     26  C   UNL     1       1.170   4.071   1.522  0.00  0.00    -0.025 A 
ATOM     27  C   UNL     1      -0.024   4.385   2.145  0.00  0.00    +0.005 A 
ATOM     28  C   UNL     1      -0.024   4.827   3.455  0.00  0.00    +0.000 A 
ATOM     29  C   UNL     1       1.169   4.966   4.139  0.00  0.00    +0.001 A 
ATOM     30  C   UNL     1       2.363   4.658   3.515  0.00  0.00    +0.020 A 
ATOM     31  C   UNL     1       2.364   4.210   2.205  0.00  0.00    +0.044 A 
ATOM     32 CL   UNL     1       3.864   3.823   1.421  0.00  0.00    -0.083 Cl
ENDBRANCH  25  26
ENDBRANCH   3  25
TORSDOF 7
