REMARK  Name = ZINC22778692
REMARK  9 active torsions:
REMARK  status: ('A' for Active; 'I' for Inactive)
REMARK    1  A    between atoms: C_1  and  C_2
REMARK    2  A    between atoms: C_2  and  C_3
REMARK    3  A    between atoms: C_2  and  C_4
REMARK    4  A    between atoms: C_4  and  C_5
REMARK    5  A    between atoms: N_16  and  N_17
REMARK    6  A    between atoms: C_27  and  C_29
REMARK    7  A    between atoms: C_29  and  C_30
REMARK    8  A    between atoms: C_30  and  C_31
REMARK    9  A    between atoms: C_30  and  C_32
REMARK                            x       y       z     vdW  Elec       q    Type
REMARK                         _______ _______ _______ _____ _____    ______ ____
ROOT
ATOM      1  C   UNL     1      -3.327   0.302   0.546  0.00  0.00    +0.037 C 
ATOM      2  C   UNL     1      -3.116  -1.066  -0.128  0.00  0.00    +0.098 C 
ATOM      3  N   UNL     1      -3.802  -1.078  -1.396  0.00  0.00    -0.300 NA
ATOM      4  C   UNL     1      -5.201  -1.418  -1.389  0.00  0.00    +0.100 C 
ATOM      5  C   UNL     1      -6.080  -0.207  -1.323  0.00  0.00    +0.100 C 
ATOM      6  N   UNL     1      -5.543   0.878  -0.538  0.00  0.00    -0.300 NA
ATOM      7  C   UNL     1      -4.816   0.568   0.677  0.00  0.00    +0.098 C 
ATOM      8  C   UNL     1      -4.879   1.845  -1.428  0.00  0.00    +0.095 C 
ATOM      9  C   UNL     1      -3.457   1.377  -1.740  0.00  0.00    +0.064 C 
ATOM     10  C   UNL     1      -3.439  -0.026  -2.336  0.00  0.00    +0.095 C 
ATOM     11  C   UNL     1      -2.734   1.342  -0.399  0.00  0.00    +0.055 C 
ATOM     12  N   UNL     1      -1.724   2.094  -0.104  0.00  0.00    -0.158 NA
ENDROOT
BRANCH  12  13
ATOM     13  N   UNL     1      -1.329   3.112  -0.981  0.00  0.00    -0.158 NA
ATOM     14  C   UNL     1      -0.258   3.795  -0.739  0.00  0.00    +0.055 C 
ATOM     15  C   UNL     1       0.204   4.983  -1.577  0.00  0.00    +0.064 C 
ATOM     16  C   UNL     1       1.545   4.555  -2.200  0.00  0.00    +0.095 C 
ATOM     17  N   UNL     1       2.488   4.279  -1.144  0.00  0.00    -0.300 NA
ATOM     18  C   UNL     1       3.219   5.393  -0.601  0.00  0.00    +0.100 C 
ATOM     19  C   UNL     1       2.560   5.966   0.616  0.00  0.00    +0.100 C 
ATOM     20  N   UNL     1       1.118   5.925   0.590  0.00  0.00    -0.300 NA
ATOM     21  C   UNL     1       0.439   6.162  -0.649  0.00  0.00    +0.095 C 
ATOM     22  C   UNL     1       0.647   4.739   1.326  0.00  0.00    +0.098 C 
ATOM     23  C   UNL     1       0.689   3.512   0.423  0.00  0.00    +0.037 C 
ATOM     24  C   UNL     1       2.084   3.282  -0.162  0.00  0.00    +0.098 C 
BRANCH  23  25
ATOM     25  C   UNL     1       0.217   2.279   1.197  0.00  0.00    +0.018 C 
BRANCH  25  26
ATOM     26  C   UNL     1       1.260   1.911   2.255  0.00  0.00    -0.016 C 
ATOM     27  C   UNL     1       0.608   1.924   3.639  0.00  0.00    +0.007 C 
ATOM     28  C   UNL     1       1.811   0.514   1.963  0.00  0.00    +0.007 C 
ENDBRANCH  25  26
ENDBRANCH  23  25
ENDBRANCH  12  13
BRANCH   1  29
ATOM     29  C   UNL     1      -2.642   0.351   1.913  0.00  0.00    +0.018 C 
BRANCH  29  31
ATOM     30  C   UNL     1      -2.938  -2.027   2.622  0.00  0.00    +0.007 C 
ATOM     31  C   UNL     1      -3.371  -0.583   2.882  0.00  0.00    -0.016 C 
ATOM     32  C   UNL     1      -3.022  -0.197   4.321  0.00  0.00    +0.007 C 
ENDBRANCH  29  31
ENDBRANCH   1  29
TORSDOF 5
