REMARK  Name = ZINC11078569
REMARK  7 active torsions:
REMARK  status: ('A' for Active; 'I' for Inactive)
REMARK    1  A    between atoms: C_1  and  C_2
REMARK    2  A    between atoms: N_10  and  N_14
REMARK    3  A    between atoms: C_15  and  C_17
REMARK    4  A    between atoms: C_17  and  O_18
REMARK    5  A    between atoms: O_18  and  C_19
REMARK    6  A    between atoms: C_19  and  C_21
REMARK    7  A    between atoms: C_23  and  C_31
REMARK                            x       y       z     vdW  Elec       q    Type
REMARK                         _______ _______ _______ _____ _____    ______ ____
ROOT
ATOM      1  C   UNL     1       2.371   1.125  -0.027  0.00  0.00    +0.329 C 
ENDROOT
BRANCH   1   3
ATOM      2  N   UNL     1       4.806   1.561  -0.067  0.00  0.00    -0.221 N 
ATOM      3  C   UNL     1       3.554   2.060  -0.050  0.00  0.00    +0.267 C 
ATOM      4  O   UNL     1       3.378   3.260  -0.053  0.00  0.00    -0.271 OA
ATOM      5  H   UNL     1       4.946   0.602  -0.064  0.00  0.00    +0.174 HD
BRANCH   2  15
ATOM      6  C   UNL     1      11.119   6.351   0.372  0.00  0.00    +0.007 C 
ATOM      7  C   UNL     1      10.077   5.356   0.889  0.00  0.00    -0.014 C 
ATOM      8  C   UNL     1       8.679   5.959   0.741  0.00  0.00    +0.006 C 
ATOM      9  C   UNL     1       7.639   4.968   1.269  0.00  0.00    +0.035 C 
ATOM     10  C   UNL     1       7.734   3.662   0.488  0.00  0.00    +0.114 C 
ATOM     11  C   UNL     1       9.131   3.062   0.607  0.00  0.00    +0.035 C 
ATOM     12  C   UNL     1      10.165   4.061   0.081  0.00  0.00    +0.006 C 
ATOM     13  C   UNL     1       6.695   2.679   0.977  0.00  0.00    +0.263 C 
ATOM     14  O   UNL     1       6.593   2.212   2.091  0.00  0.00    -0.271 OA
ATOM     15  N   UNL     1       5.905   2.430  -0.088  0.00  0.00    -0.137 N 
ATOM     16  C   UNL     1       6.305   3.111  -1.168  0.00  0.00    +0.326 C 
ATOM     17  O   UNL     1       5.753   3.048  -2.250  0.00  0.00    -0.251 OA
ATOM     18  N   UNL     1       7.384   3.878  -0.922  0.00  0.00    -0.284 N 
ATOM     19  H   UNL     1       7.843   4.455  -1.552  0.00  0.00    +0.151 HD
ENDBRANCH   2  15
ENDBRANCH   1   3
BRANCH   1  20
ATOM     20  O   UNL     1       1.143   1.900  -0.012  0.00  0.00    -0.452 OA
BRANCH  20  21
ATOM     21  C   UNL     1      -0.014   1.210   0.009  0.00  0.00    +0.340 C 
ATOM     22  O   UNL     1       0.002  -0.004   0.014  0.00  0.00    -0.245 OA
BRANCH  21  23
ATOM     23  C   UNL     1      -1.304   1.932   0.019  0.00  0.00    +0.070 A 
ATOM     24  C   UNL     1      -1.357   3.315   0.130  0.00  0.00    +0.044 A 
ATOM     25  C   UNL     1      -2.604   3.958   0.135  0.00  0.00    +0.072 A 
ATOM     26  N   UNL     1      -3.737   3.295   0.037  0.00  0.00    -0.247 NA
ATOM     27  C   UNL     1      -3.780   1.967  -0.073  0.00  0.00    +0.072 A 
ATOM     28  C   UNL     1      -2.576   1.218  -0.094  0.00  0.00    +0.014 A 
ATOM     29  C   UNL     1      -2.625  -0.175  -0.216  0.00  0.00    +0.011 A 
ATOM     30  C   UNL     1      -3.833  -0.800  -0.320  0.00  0.00    +0.001 A 
ATOM     31  C   UNL     1      -5.019  -0.069  -0.305  0.00  0.00    +0.002 A 
ATOM     32  C   UNL     1      -5.008   1.286  -0.177  0.00  0.00    +0.028 A 
BRANCH  25  33
ATOM     33  C   UNL     1      -2.647   5.435   0.253  0.00  0.00    +0.000 A 
ATOM     34  C   UNL     1      -1.463   6.163   0.364  0.00  0.00    +0.010 A 
ATOM     35  C   UNL     1      -1.509   7.538   0.469  0.00  0.00    +0.001 A 
ATOM     36  C   UNL     1      -2.727   8.194   0.476  0.00  0.00    +0.000 A 
ATOM     37  C   UNL     1      -3.905   7.476   0.372  0.00  0.00    +0.001 A 
ATOM     38  C   UNL     1      -3.871   6.101   0.261  0.00  0.00    +0.010 A 
ENDBRANCH  25  33
ENDBRANCH  21  23
ENDBRANCH  20  21
ENDBRANCH   1  20
TORSDOF 6
