REMARK  Name = ZINC45842293
REMARK  9 active torsions:
REMARK  status: ('A' for Active; 'I' for Inactive)
REMARK    1  A    between atoms: C_1  and  C_2
REMARK    2  A    between atoms: C_2  and  C_4
REMARK    3  A    between atoms: C_2  and  S_20
REMARK    4  A    between atoms: N_9  and  C_10
REMARK    5  A    between atoms: S_20  and  C_21
REMARK    6  A    between atoms: C_24  and  C_31
REMARK    7  A    between atoms: N_25  and  C_26
REMARK    8  A    between atoms: C_26  and  C_27
REMARK    9  A    between atoms: C_27  and  C_28
REMARK                            x       y       z     vdW  Elec       q    Type
REMARK                         _______ _______ _______ _____ _____    ______ ____
ROOT
ATOM      1  C   UNL     1      -0.019   1.526   0.010  0.00  0.00    +0.029 C 
ATOM      2  C   UNL     1       0.002  -0.004   0.002  0.00  0.00    +0.137 C 
ENDROOT
BRANCH   2   3
ATOM      3  C   UNL     1      -1.412  -0.526   0.013  0.00  0.00    +0.233 C 
ATOM      4  O   UNL     1      -1.939  -0.827   1.062  0.00  0.00    -0.274 OA
ATOM      5  N   UNL     1      -2.090  -0.657  -1.144  0.00  0.00    -0.239 N 
ATOM      6  C   UNL     1      -3.355  -1.124  -1.135  0.00  0.00    +0.306 C 
ATOM      7  O   UNL     1      -3.883  -1.426  -0.083  0.00  0.00    -0.252 OA
ATOM      8  N   UNL     1      -4.033  -1.255  -2.292  0.00  0.00    -0.294 N 
ATOM      9  H   UNL     1      -1.669  -0.416  -1.984  0.00  0.00    +0.159 HD
ATOM     10  H   UNL     1      -3.611  -1.014  -3.131  0.00  0.00    +0.151 HD
BRANCH   8  11
ATOM     11  C   UNL     1      -5.408  -1.762  -2.281  0.00  0.00    +0.037 C 
ATOM     12  C   UNL     1      -5.428  -3.169  -1.679  0.00  0.00    +0.029 C 
ATOM     13  C   UNL     1      -6.863  -3.698  -1.668  0.00  0.00    -0.008 C 
ATOM     14  C   UNL     1      -7.399  -3.749  -3.100  0.00  0.00    +0.007 C 
ATOM     15  C   UNL     1      -7.379  -2.343  -3.703  0.00  0.00    -0.008 C 
ATOM     16  C   UNL     1      -5.943  -1.813  -3.714  0.00  0.00    +0.029 C 
ATOM     17  C   UNL     1      -8.258  -1.415  -2.862  0.00  0.00    +0.007 C 
ATOM     18  C   UNL     1      -7.723  -1.364  -1.430  0.00  0.00    -0.008 C 
ATOM     19  C   UNL     1      -7.743  -2.771  -0.827  0.00  0.00    +0.007 C 
ATOM     20  C   UNL     1      -6.287  -0.835  -1.441  0.00  0.00    +0.029 C 
ENDBRANCH   8  11
ENDBRANCH   2   3
BRANCH   2  21
ATOM     21  S   UNL     1       0.879  -0.605   1.472  0.00  0.00    -0.074 S 
BRANCH  21  22
ATOM     22  C   UNL     1       2.533  -0.042   1.241  0.00  0.00    +0.192 A 
ATOM     23  N   UNL     1       2.985   0.657   0.225  0.00  0.00    -0.122 NA
ATOM     24  N   UNL     1       4.239   0.893   0.382  0.00  0.00    -0.133 NA
ATOM     25  C   UNL     1       4.658   0.365   1.497  0.00  0.00    +0.137 A 
ATOM     26  N   UNL     1       3.585  -0.245   2.087  0.00  0.00    -0.305 N 
BRANCH  25  27
ATOM     27  C   UNL     1       6.063   0.421   2.039  0.00  0.00    +0.057 C 
ATOM     28  C   UNL     1       7.151   0.988   1.125  0.00  0.00    +0.012 C 
ATOM     29  C   UNL     1       6.657   1.802   2.322  0.00  0.00    +0.012 C 
ENDBRANCH  25  27
BRANCH  26  30
ATOM     30  C   UNL     1       3.570  -0.969   3.360  0.00  0.00    +0.135 C 
BRANCH  30  31
ATOM     31  C   UNL     1       3.885  -2.445   3.112  0.00  0.00    +0.117 C 
BRANCH  31  32
ATOM     32  C   UNL     1       3.869  -3.190   4.422  0.00  0.00    +0.212 C 
ATOM     33  O   UNL     1       3.628  -2.598   5.453  0.00  0.00    -0.276 OA
ATOM     34  N   UNL     1       4.121  -4.513   4.448  0.00  0.00    -0.329 N 
ATOM     35  H   UNL     1       4.313  -4.987   3.624  0.00  0.00    +0.145 HD
ATOM     36  H   UNL     1       4.110  -4.993   5.292  0.00  0.00    +0.145 HD
ENDBRANCH  31  32
ENDBRANCH  30  31
ENDBRANCH  26  30
ENDBRANCH  21  22
ENDBRANCH   2  21
TORSDOF 8
