REMARK  Name = ZINC40035231
REMARK  7 active torsions:
REMARK  status: ('A' for Active; 'I' for Inactive)
REMARK    1  A    between atoms: C_1  and  C_2
REMARK    2  A    between atoms: C_2  and  C_3
REMARK    3  A    between atoms: C_3  and  C_30
REMARK    4  A    between atoms: N_15  and  C_28
REMARK    5  A    between atoms: N_18  and  N_19
REMARK    6  A    between atoms: C_20  and  C_21
REMARK    7  A    between atoms: C_28  and  C_29
REMARK                            x       y       z     vdW  Elec       q    Type
REMARK                         _______ _______ _______ _____ _____    ______ ____
ROOT
ATOM      1  C   UNL     1       0.718  -0.497  -1.257  0.00  0.00    +0.004 C 
ATOM      2  C   UNL     1       0.746  -1.976  -0.878  0.00  0.00    +0.047 C 
ATOM      3  C   UNL     1      -0.613  -2.595  -1.063  0.00  0.00    -0.037 A 
ATOM      4  C   UNL     1      -1.060  -3.572  -0.197  0.00  0.00    +0.004 A 
ATOM      5  C   UNL     1      -2.309  -4.139  -0.377  0.00  0.00    +0.000 A 
ATOM      6  C   UNL     1      -3.118  -3.733  -1.423  0.00  0.00    +0.001 A 
ATOM      7  C   UNL     1      -2.683  -2.756  -2.296  0.00  0.00    +0.010 A 
ATOM      8  C   UNL     1      -1.428  -2.182  -2.118  0.00  0.00    +0.004 A 
ATOM      9  C   UNL     1      -0.938  -1.125  -3.031  0.00  0.00    +0.084 A 
ATOM     10  C   UNL     1       0.106  -0.311  -2.616  0.00  0.00    +0.049 A 
ATOM     11  C   UNL     1       0.573   0.683  -3.485  0.00  0.00    +0.260 A 
ATOM     12  O   UNL     1       1.491   1.417  -3.157  0.00  0.00    -0.267 OA
ATOM     13  N   UNL     1      -0.013   0.812  -4.695  0.00  0.00    -0.280 N 
ATOM     14  C   UNL     1      -1.039  -0.010  -5.051  0.00  0.00    +0.219 A 
ATOM     15  N   UNL     1      -1.483  -0.948  -4.239  0.00  0.00    -0.214 NA
ATOM     16  N   UNL     1      -1.623   0.142  -6.282  0.00  0.00    -0.206 N 
ATOM     17  C   UNL     1       2.148   0.046  -1.269  0.00  0.00    +0.016 C 
ATOM     18  H   UNL     1      -1.305   0.829  -6.888  0.00  0.00    +0.177 HD
ENDROOT
BRANCH   1  20
ATOM     19  C   UNL     1      -0.113   1.760  -0.582  0.00  0.00    +0.005 C 
ATOM     20  C   UNL     1      -0.105   0.273  -0.223  0.00  0.00    +0.008 C 
ENDBRANCH   1  20
BRANCH  16  21
ATOM     21  N   UNL     1      -2.680  -0.695  -6.664  0.00  0.00    -0.188 NA
ATOM     22  C   UNL     1      -3.233  -0.550  -7.829  0.00  0.00    +0.138 C 
BRANCH  22  23
ATOM     23  C   UNL     1      -4.345  -1.431  -8.231  0.00  0.00    -0.005 A 
ATOM     24  C   UNL     1      -4.810  -2.418  -7.358  0.00  0.00    +0.011 A 
ATOM     25  C   UNL     1      -5.850  -3.239  -7.740  0.00  0.00    +0.020 A 
ATOM     26  C   UNL     1      -6.434  -3.086  -8.987  0.00  0.00    +0.041 A 
ATOM     27  C   UNL     1      -5.978  -2.110  -9.857  0.00  0.00    +0.020 A 
ATOM     28  C   UNL     1      -4.943  -1.279  -9.485  0.00  0.00    +0.011 A 
ATOM     29 CL   UNL     1      -7.743  -4.124  -9.461  0.00  0.00    -0.084 Cl
ENDBRANCH  22  23
ENDBRANCH  16  21
BRANCH  13  30
ATOM     30  C   UNL     1       0.456   1.840  -5.628  0.00  0.00    +0.125 C 
ATOM     31  C   UNL     1       1.563   1.261  -6.510  0.00  0.00    +0.027 C 
ENDBRANCH  13  30
TORSDOF 4
