REMARK  Name = ZINC11910541
REMARK  5 active torsions:
REMARK  status: ('A' for Active; 'I' for Inactive)
REMARK    1  A    between atoms: C_1  and  C_2
REMARK    2  A    between atoms: C_6  and  S_30
REMARK    3  A    between atoms: C_16  and  N_61
REMARK    4  A    between atoms: C_20  and  N_61
REMARK    5  A    between atoms: S_30  and  C_33
REMARK                            x       y       z     vdW  Elec       q    Type
REMARK                         _______ _______ _______ _____ _____    ______ ____
ROOT
ATOM      1  C   UNL     1      -3.674   3.082   0.579  0.00  0.00    +0.066 C 
ATOM      2  C   UNL     1      -2.347   3.795   0.577  0.00  0.00    +0.051 A 
ATOM      3  C   UNL     1      -1.142   3.074   0.670  0.00  0.00    +0.022 A 
ATOM      4  C   UNL     1      -1.117   1.675   0.761  0.00  0.00    +0.013 A 
ATOM      5  C   UNL     1       0.079   1.029   0.853  0.00  0.00    +0.028 A 
ATOM      6  C   UNL     1       1.278   1.738   0.847  0.00  0.00    +0.090 A 
ATOM      7  C   UNL     1       1.291   3.097   0.755  0.00  0.00    +0.055 A 
ATOM      8  C   UNL     1       0.079   3.797   0.665  0.00  0.00    +0.078 A 
ATOM      9  N   UNL     1       0.036   5.132   0.572  0.00  0.00    -0.214 NA
ATOM     10  C   UNL     1      -1.123   5.754   0.487  0.00  0.00    +0.219 A 
ATOM     11  N   UNL     1      -2.288   5.107   0.489  0.00  0.00    -0.219 NA
ATOM     12  N   UNL     1      -1.131   7.134   0.392  0.00  0.00    -0.300 N 
ATOM     13  C   UNL     1      -0.322   7.590  -0.758  0.00  0.00    +0.108 C 
ATOM     14  C   UNL     1      -0.750   8.885  -1.276  0.00  0.00    +0.017 C 
ATOM     15  C   UNL     1      -0.617   9.996  -0.210  0.00  0.00    -0.014 C 
ATOM     16  C   UNL     1      -1.759   9.877   0.762  0.00  0.00    -0.070 C 
ATOM     17  C   UNL     1      -1.421   9.002   1.987  0.00  0.00    +0.003 C 
ATOM     18  C   UNL     1      -0.629   7.738   1.602  0.00  0.00    +0.106 C 
ENDROOT
BRANCH   6  19
ATOM     19  S   UNL     1       2.803   0.863   0.961  0.00  0.00    -0.006 S 
ATOM     20  O   UNL     1       3.713   1.792   1.535  0.00  0.00    -0.170 OA
ATOM     21  O   UNL     1       2.479  -0.344   1.637  0.00  0.00    -0.170 OA
ATOM     22  C   UNL     1       3.269   0.512  -0.757  0.00  0.00    +0.200 C 
ENDBRANCH   6  19
BRANCH  16  23
ATOM     23  N   UNL     1      -2.119  11.230   1.228  0.00  0.00    +0.385 N 
ATOM     24  H   UNL     1      -1.959  11.903   0.469  0.00  0.00    -0.085 HD
ATOM     25  H   UNL     1      -1.532  11.477   2.034  0.00  0.00    -0.085 HD
BRANCH  23  26
ATOM     26  C   UNL     1      -3.538  11.274   1.627  0.00  0.00    -0.040 C 
ATOM     27  C   UNL     1      -4.423  11.643   0.418  0.00  0.00    -0.007 C 
ATOM     28  C   UNL     1      -4.518  13.181   0.537  0.00  0.00    +0.034 C 
ATOM     29  C   UNL     1      -4.322  13.478   2.009  0.00  0.00    -0.046 A 
ATOM     30  C   UNL     1      -3.758  12.382   2.635  0.00  0.00    -0.058 A 
ATOM     31  C   UNL     1      -3.486  12.427   3.992  0.00  0.00    +0.002 A 
ATOM     32  C   UNL     1      -3.776  13.564   4.721  0.00  0.00    +0.000 A 
ATOM     33  C   UNL     1      -4.340  14.660   4.095  0.00  0.00    +0.000 A 
ATOM     34  C   UNL     1      -4.612  14.616   2.741  0.00  0.00    +0.004 A 
ENDBRANCH  23  26
ENDBRANCH  16  23
TORSDOF 3
