REMARK  Name = ZINC54681271
REMARK  3 active torsions:
REMARK  status: ('A' for Active; 'I' for Inactive)
REMARK    1  A    between atoms: C_10  and  C_16
REMARK    2  A    between atoms: C_21  and  O_22
REMARK    3  A    between atoms: O_22  and  C_23
REMARK                            x       y       z     vdW  Elec       q    Type
REMARK                         _______ _______ _______ _____ _____    ______ ____
ROOT
ATOM      1  C   UNL     1      -0.133   1.069  -0.124  0.00  0.00    +0.002 A 
ATOM      2  C   UNL     1       1.008   1.859  -0.122  0.00  0.00    +0.002 A 
ATOM      3  C   UNL     1       2.259   1.281  -0.103  0.00  0.00    +0.028 A 
ATOM      4  C   UNL     1       2.384  -0.101  -0.085  0.00  0.00    +0.072 A 
ATOM      5  C   UNL     1       1.230  -0.906  -0.084  0.00  0.00    +0.091 A 
ATOM      6  C   UNL     1      -0.030  -0.303  -0.105  0.00  0.00    +0.030 A 
ATOM      7  N   UNL     1       1.642  -2.203  -0.059  0.00  0.00    -0.214 NA
ATOM      8  C   UNL     1       2.942  -2.246  -0.044  0.00  0.00    +0.205 A 
ATOM      9  N   UNL     1       3.451  -0.971  -0.067  0.00  0.00    -0.288 N 
ATOM     10  C   UNL     1       4.886  -0.668  -0.080  0.00  0.00    +0.212 C 
ATOM     11  N   UNL     1       5.608  -1.902   0.284  0.00  0.00    -0.294 N 
ATOM     12  C   UNL     1       5.126  -3.105  -0.212  0.00  0.00    +0.159 C 
ATOM     13  N   UNL     1       3.771  -3.365  -0.006  0.00  0.00    -0.259 N 
ATOM     14  N   UNL     1       5.899  -3.947  -0.838  0.00  0.00    -0.375 N 
ATOM     15  H   UNL     1       6.394  -1.873   0.851  0.00  0.00    +0.151 HD
ATOM     16  H   UNL     1       6.838  -3.740  -0.967  0.00  0.00    +0.158 HD
ATOM     17  H   UNL     1       3.431  -4.260   0.151  0.00  0.00    +0.158 HD
ATOM     18  H   UNL     1       5.536  -4.781  -1.174  0.00  0.00    +0.158 HD
ENDROOT
BRANCH  10  19
ATOM     19  C   UNL     1       5.301  -0.219  -1.457  0.00  0.00    +0.036 A 
ATOM     20  C   UNL     1       4.477  -0.457  -2.540  0.00  0.00    +0.031 A 
ATOM     21  C   UNL     1       4.858  -0.045  -3.804  0.00  0.00    +0.042 A 
ATOM     22  C   UNL     1       6.065   0.607  -3.987  0.00  0.00    +0.023 A 
ATOM     23  C   UNL     1       6.892   0.847  -2.907  0.00  0.00    +0.048 A 
ATOM     24  C   UNL     1       6.509   0.439  -1.637  0.00  0.00    +0.134 A 
ATOM     25 CL   UNL     1       3.821  -0.346  -5.163  0.00  0.00    -0.084 Cl
BRANCH  24  26
ATOM     26  O   UNL     1       7.319   0.680  -0.572  0.00  0.00    -0.434 OA
BRANCH  26  27
ATOM     27  C   UNL     1       8.547   1.362  -0.832  0.00  0.00    +0.541 C 
ATOM     28  F   UNL     1       9.317   0.612  -1.728  0.00  0.00    -0.166 F 
ATOM     29  F   UNL     1       8.275   2.617  -1.389  0.00  0.00    -0.166 F 
ENDBRANCH  26  27
ENDBRANCH  24  26
ENDBRANCH  10  19
TORSDOF 3
