REMARK  Name = ZINC36877163
REMARK  12 active torsions:
REMARK  status: ('A' for Active; 'I' for Inactive)
REMARK    1  A    between atoms: C_1  and  C_2
REMARK    2  A    between atoms: C_2  and  N_3
REMARK    3  A    between atoms: C_4  and  C_30
REMARK    4  A    between atoms: C_7  and  S_8
REMARK    5  A    between atoms: S_8  and  C_9
REMARK    6  A    between atoms: C_9  and  C_10
REMARK    7  A    between atoms: N_12  and  C_13
REMARK    8  A    between atoms: C_13  and  C_14
REMARK    9  A    between atoms: C_14  and  C_16
REMARK   10  A    between atoms: C_14  and  N_24
REMARK   11  A    between atoms: C_19  and  O_22
REMARK   12  A    between atoms: O_22  and  C_23
REMARK                            x       y       z     vdW  Elec       q    Type
REMARK                         _______ _______ _______ _____ _____    ______ ____
ROOT
ATOM      1  C   UNL     1       7.113  -1.718   2.618  0.00  0.00    +0.223 C 
ATOM      2  O   UNL     1       6.447  -0.713   2.488  0.00  0.00    -0.275 OA
ATOM      3  N   UNL     1       8.119  -1.977   1.759  0.00  0.00    -0.316 N 
ATOM      4  H   UNL     1       8.651  -2.781   1.863  0.00  0.00    +0.149 HD
ENDROOT
BRANCH   1   5
ATOM      5  C   UNL     1       6.814  -2.679   3.740  0.00  0.00    +0.173 C 
BRANCH   5   6
ATOM      6  S   UNL     1       5.416  -2.056   4.714  0.00  0.00    -0.077 S 
BRANCH   6  11
ATOM      7  N   UNL     1       4.253  -3.254   6.959  0.00  0.00    -0.300 N 
ATOM      8  C   UNL     1       4.460  -4.403   7.690  0.00  0.00    +0.200 A 
ATOM      9  N   UNL     1       5.473  -5.033   7.138  0.00  0.00    -0.125 NA
ATOM     10  N   UNL     1       5.906  -4.366   6.128  0.00  0.00    -0.122 NA
ATOM     11  C   UNL     1       5.195  -3.273   5.969  0.00  0.00    +0.192 A 
BRANCH   8  12
ATOM     12  C   UNL     1       3.693  -4.841   8.867  0.00  0.00    +0.172 A 
ATOM     13  C   UNL     1       3.709  -6.090   9.412  0.00  0.00    +0.053 A 
ATOM     14  C   UNL     1       2.835  -6.061  10.516  0.00  0.00    +0.042 A 
ATOM     15  C   UNL     1       2.332  -4.813  10.590  0.00  0.00    +0.196 A 
ATOM     16  O   UNL     1       2.856  -4.077   9.596  0.00  0.00    -0.460 OA
ENDBRANCH   8  12
BRANCH   7  18
ATOM     17  C   UNL     1       1.963  -2.588   6.415  0.00  0.00    +0.027 C 
ATOM     18  C   UNL     1       3.232  -2.228   7.191  0.00  0.00    +0.122 C 
ENDBRANCH   7  18
ENDBRANCH   6  11
ENDBRANCH   5   6
ENDBRANCH   1   5
BRANCH   3  19
ATOM     19  C   UNL     1       8.409  -1.043   0.668  0.00  0.00    +0.093 C 
BRANCH  19  20
ATOM     20  C   UNL     1       9.668  -1.499  -0.072  0.00  0.00    -0.020 C 
BRANCH  20  21
ATOM     21  N   UNL     1       9.907  -0.616  -1.221  0.00  0.00    +0.385 N 
ATOM     22  C   UNL     1       8.778  -0.713  -2.155  0.00  0.00    -0.078 C 
ATOM     23  C   UNL     1       8.983   0.265  -3.313  0.00  0.00    -0.019 C 
ATOM     24  C   UNL     1      10.284  -0.083  -4.044  0.00  0.00    -0.004 C 
ATOM     25  C   UNL     1      11.443  -0.051  -3.045  0.00  0.00    -0.019 C 
ATOM     26  C   UNL     1      11.147  -1.017  -1.896  0.00  0.00    -0.078 C 
ATOM     27  H   UNL     1       9.993   0.337  -0.900  0.00  0.00    -0.081 HD
ENDBRANCH  20  21
BRANCH  20  28
ATOM     28  C   UNL     1      10.849  -1.439   0.862  0.00  0.00    -0.059 A 
ATOM     29  C   UNL     1      11.470  -0.230   1.113  0.00  0.00    +0.005 A 
ATOM     30  C   UNL     1      12.553  -0.173   1.968  0.00  0.00    +0.046 A 
ATOM     31  C   UNL     1      13.018  -1.330   2.575  0.00  0.00    +0.120 A 
ATOM     32  C   UNL     1      12.393  -2.543   2.322  0.00  0.00    +0.046 A 
ATOM     33  C   UNL     1      11.307  -2.594   1.470  0.00  0.00    +0.005 A 
BRANCH  31  34
ATOM     34  O   UNL     1      14.084  -1.277   3.417  0.00  0.00    -0.495 OA
ATOM     35  C   UNL     1      14.508  -2.507   4.006  0.00  0.00    +0.277 C 
ENDBRANCH  31  34
ENDBRANCH  20  28
ENDBRANCH  19  20
ENDBRANCH   3  19
TORSDOF 10
