REMARK  Name = ZINC63686421
REMARK  7 active torsions:
REMARK  status: ('A' for Active; 'I' for Inactive)
REMARK    1  A    between atoms: C_1  and  C_2
REMARK    2  A    between atoms: C_5  and  C_29
REMARK    3  A    between atoms: C_11  and  C_13
REMARK    4  A    between atoms: C_13  and  S_14
REMARK    5  A    between atoms: S_14  and  C_15
REMARK    6  A    between atoms: C_19  and  C_23
REMARK    7  A    between atoms: N_21  and  C_22
REMARK                            x       y       z     vdW  Elec       q    Type
REMARK                         _______ _______ _______ _____ _____    ______ ____
ROOT
ATOM      1  C   UNL     1       0.514  -2.970   4.822  0.00  0.00    +0.125 C 
ENDROOT
BRANCH   1  12
ATOM      2  C   UNL     1      -0.018   1.503   0.010  0.00  0.00    +0.044 C 
ATOM      3  C   UNL     1       0.002  -0.004   0.002  0.00  0.00    -0.038 A 
ATOM      4  C   UNL     1      -0.097  -0.686  -1.179  0.00  0.00    +0.004 A 
ATOM      5  C   UNL     1      -0.079  -2.074  -1.196  0.00  0.00    +0.005 A 
ATOM      6  C   UNL     1       0.040  -2.790  -0.025  0.00  0.00    -0.026 A 
ATOM      7  C   UNL     1       0.142  -2.116   1.189  0.00  0.00    +0.054 A 
ATOM      8  C   UNL     1       0.128  -0.710   1.198  0.00  0.00    +0.048 A 
ATOM      9  C   UNL     1       0.244  -0.015   2.493  0.00  0.00    +0.190 A 
ATOM     10  O   UNL     1       0.232   1.203   2.558  0.00  0.00    -0.287 OA
ATOM     11  C   UNL     1       0.369  -0.809   3.657  0.00  0.00    +0.073 A 
ATOM     12  C   UNL     1       0.379  -2.154   3.561  0.00  0.00    +0.030 A 
ATOM     13  N   UNL     1       0.262  -2.801   2.377  0.00  0.00    -0.357 N 
ATOM     14  C   UNL     1       0.058  -4.296  -0.057  0.00  0.00    +0.046 C 
ATOM     15  H   UNL     1       0.275  -3.771   2.364  0.00  0.00    +0.166 HD
ENDBRANCH   1  12
BRANCH   1  16
ATOM     16  S   UNL     1      -1.094  -3.693   5.249  0.00  0.00    -0.119 S 
BRANCH  16  17
ATOM     17  C   UNL     1      -0.764  -4.630   6.767  0.00  0.00    +0.200 C 
ATOM     18  N   UNL     1       0.295  -5.635   6.523  0.00  0.00    -0.229 NA
ATOM     19  N   UNL     1       1.534  -4.979   6.968  0.00  0.00    -0.233 NA
ATOM     20  C   UNL     1       1.100  -4.220   8.169  0.00  0.00    +0.171 C 
ATOM     21  N   UNL     1      -0.253  -3.726   7.819  0.00  0.00    -0.260 NA
ATOM     22  C   UNL     1      -1.137  -3.731   8.992  0.00  0.00    +0.109 C 
ATOM     23  H   UNL     1       0.122  -6.478   7.051  0.00  0.00    +0.143 HD
ATOM     24  H   UNL     1       1.890  -4.358   6.256  0.00  0.00    +0.143 HD
BRANCH  20  25
ATOM     25  C   UNL     1       2.034  -3.066   8.430  0.00  0.00    -0.015 A 
ATOM     26  C   UNL     1       1.554  -1.906   9.010  0.00  0.00    +0.006 A 
ATOM     27  C   UNL     1       2.411  -0.848   9.249  0.00  0.00    +0.000 A 
ATOM     28  C   UNL     1       3.747  -0.950   8.910  0.00  0.00    +0.000 A 
ATOM     29  C   UNL     1       4.227  -2.110   8.331  0.00  0.00    +0.000 A 
ATOM     30  C   UNL     1       3.371  -3.170   8.095  0.00  0.00    +0.006 A 
ENDBRANCH  20  25
ENDBRANCH  16  17
ENDBRANCH   1  16
TORSDOF 4
