REMARK  Name = ZINC04177656
REMARK  9 active torsions:
REMARK  status: ('A' for Active; 'I' for Inactive)
REMARK    1  A    between atoms: C_1  and  C_2
REMARK    2  A    between atoms: C_7  and  C_8
REMARK    3  A    between atoms: N_10  and  C_11
REMARK    4  A    between atoms: C_11  and  C_13
REMARK    5  A    between atoms: C_11  and  N_17
REMARK    6  A    between atoms: N_17  and  C_18
REMARK    7  A    between atoms: C_18  and  N_20
REMARK    8  A    between atoms: N_20  and  C_21
REMARK    9  A    between atoms: C_22  and  C_30
REMARK                            x       y       z     vdW  Elec       q    Type
REMARK                         _______ _______ _______ _____ _____    ______ ____
ROOT
ATOM      1  N   UNL     1       1.984   0.116   5.303  0.00  0.00    -0.305 N 
ATOM      2  H   UNL     1       2.470  -0.781   5.714  0.00  0.00    +0.150 HD
ENDROOT
BRANCH   1   3
ATOM      3  C   UNL     1       2.681   1.263   5.177  0.00  0.00    +0.136 C 
ATOM      4  S   UNL     1       1.924   2.659   4.538  0.00  0.00    -0.019 S 
BRANCH   3   5
ATOM      5  N   UNL     1       3.974   1.310   5.553  0.00  0.00    -0.291 N 
ATOM      6  H   UNL     1       4.461   0.413   5.964  0.00  0.00    +0.154 HD
BRANCH   5   7
ATOM      7  C   UNL     1       4.691   2.489   5.423  0.00  0.00    +0.084 A 
ATOM      8  C   UNL     1       6.016   2.734   5.757  0.00  0.00    +0.068 A 
ATOM      9  C   UNL     1       6.534   4.070   5.514  0.00  0.00    -0.023 A 
ATOM     10  C   UNL     1       5.647   4.944   4.991  0.00  0.00    -0.004 A 
ATOM     11  S   UNL     1       4.150   4.016   4.812  0.00  0.00    -0.077 S 
ATOM     12  C   UNL     1       5.892   6.380   4.643  0.00  0.00    +0.043 C 
ATOM     13  C   UNL     1       7.199   6.824   5.316  0.00  0.00    +0.005 C 
ATOM     14  C   UNL     1       8.278   5.772   5.042  0.00  0.00    +0.005 C 
ATOM     15  C   UNL     1       7.965   4.492   5.820  0.00  0.00    +0.037 C 
BRANCH   8  16
ATOM     16  C   UNL     1       6.863   1.683   6.330  0.00  0.00    +0.244 C 
ATOM     17  O   UNL     1       7.512   0.959   5.599  0.00  0.00    -0.270 OA
ATOM     18  N   UNL     1       6.922   1.519   7.667  0.00  0.00    -0.325 N 
ATOM     19  H   UNL     1       7.557   0.730   8.096  0.00  0.00    +0.145 HD
ATOM     20  H   UNL     1       6.335   2.174   8.328  0.00  0.00    +0.145 HD
ENDBRANCH   8  16
ENDBRANCH   5   7
ENDBRANCH   3   5
ENDBRANCH   1   3
BRANCH   1  21
ATOM     21  C   UNL     1       0.578   0.065   4.894  0.00  0.00    +0.211 C 
BRANCH  21  24
ATOM     22  C   UNL     1       0.242   0.021   2.481  0.00  0.00    +0.246 C 
ATOM     23  O   UNL     1       0.135   1.231   2.503  0.00  0.00    -0.270 OA
ATOM     24  N   UNL     1       0.465  -0.657   3.625  0.00  0.00    -0.289 N 
ATOM     25  H   UNL     1       0.562  -1.753   3.605  0.00  0.00    +0.151 HD
BRANCH  22  32
ATOM     26  C   UNL     1      -0.502   1.454   0.081  0.00  0.00    +0.044 C 
ATOM     27  C   UNL     1      -0.230  -0.027   0.036  0.00  0.00    -0.038 A 
ATOM     28  C   UNL     1      -0.340  -0.715  -1.155  0.00  0.00    +0.004 A 
ATOM     29  C   UNL     1      -0.086  -2.074  -1.199  0.00  0.00    +0.000 A 
ATOM     30  C   UNL     1       0.269  -2.755  -0.049  0.00  0.00    +0.001 A 
ATOM     31  C   UNL     1       0.378  -2.081   1.150  0.00  0.00    +0.013 A 
ATOM     32  C   UNL     1       0.128  -0.708   1.200  0.00  0.00    +0.040 A 
ENDBRANCH  22  32
ENDBRANCH  21  24
BRANCH  21  33
ATOM     33  C   UNL     1      -0.239  -0.657   5.967  0.00  0.00    +0.225 C 
ATOM     34 CL   UNL     1       0.389  -2.335   6.172  0.00  0.00    -0.080 Cl
ATOM     35 CL   UNL     1      -0.100   0.232   7.529  0.00  0.00    -0.080 Cl
ATOM     36 CL   UNL     1      -1.969  -0.721   5.463  0.00  0.00    -0.080 Cl
ENDBRANCH  21  33
ENDBRANCH   1  21
TORSDOF 8
