REMARK  Name = ZINC00985551
REMARK  7 active torsions:
REMARK  status: ('A' for Active; 'I' for Inactive)
REMARK    1  A    between atoms: C_1  and  C_2
REMARK    2  A    between atoms: C_4  and  C_31
REMARK    3  A    between atoms: C_5  and  C_9
REMARK    4  A    between atoms: C_6  and  C_8
REMARK    5  A    between atoms: C_12  and  C_23
REMARK    6  A    between atoms: C_18  and  N_22
REMARK    7  A    between atoms: C_19  and  C_20
REMARK                            x       y       z     vdW  Elec       q    Type
REMARK                         _______ _______ _______ _____ _____    ______ ____
ROOT
ATOM      1  C   UNL     1       0.889  -3.861  -0.118  0.00  0.00    +0.102 C 
ATOM      2  C   UNL     1       2.172  -4.064   0.645  0.00  0.00    +0.054 A 
ATOM      3  C   UNL     1       3.465  -3.633   0.332  0.00  0.00    +0.100 A 
ATOM      4  N   UNL     1       4.273  -4.040   1.292  0.00  0.00    -0.171 NA
ATOM      5  N   UNL     1       3.512  -4.741   2.241  0.00  0.00    -0.246 N 
ATOM      6  H   UNL     1       3.850  -5.150   3.053  0.00  0.00    +0.192 HD
ATOM      7  C   UNL     1       2.229  -4.745   1.826  0.00  0.00    +0.223 A 
ATOM      8  O   UNL     1       1.134  -5.297   2.406  0.00  0.00    -0.423 OA
ATOM      9  C   UNL     1       0.016  -5.400   1.659  0.00  0.00    +0.200 C 
ATOM     10  C   UNL     1      -0.162  -4.764   0.479  0.00  0.00    +0.098 C 
ENDROOT
BRANCH   1  15
ATOM     11  C   UNL     1      -0.797   1.648   0.325  0.00  0.00    +0.044 C 
ATOM     12  C   UNL     1      -0.358   0.212   0.210  0.00  0.00    -0.050 A 
ATOM     13  C   UNL     1      -0.315  -0.401  -1.029  0.00  0.00    +0.007 A 
ATOM     14  C   UNL     1       0.088  -1.719  -1.135  0.00  0.00    -0.046 A 
ATOM     15  C   UNL     1       0.450  -2.424  -0.003  0.00  0.00    -0.029 A 
ATOM     16  C   UNL     1       0.408  -1.812   1.236  0.00  0.00    -0.046 A 
ATOM     17  C   UNL     1       0.009  -0.492   1.342  0.00  0.00    +0.007 A 
ATOM     18  C   UNL     1       0.802  -2.581   2.471  0.00  0.00    +0.044 C 
ATOM     19  C   UNL     1       0.134  -2.386  -2.485  0.00  0.00    +0.044 C 
ENDBRANCH   1  15
BRANCH   3  20
ATOM     20  C   UNL     1       3.859  -2.856  -0.870  0.00  0.00    +0.004 A 
ATOM     21  C   UNL     1       3.345  -3.193  -2.120  0.00  0.00    +0.011 A 
ATOM     22  C   UNL     1       3.714  -2.467  -3.235  0.00  0.00    +0.022 A 
ATOM     23  C   UNL     1       4.594  -1.406  -3.112  0.00  0.00    +0.059 A 
ATOM     24  C   UNL     1       5.108  -1.066  -1.872  0.00  0.00    +0.060 A 
ATOM     25  C   UNL     1       4.740  -1.783  -0.750  0.00  0.00    +0.031 A 
ATOM     26 CL   UNL     1       6.211   0.266  -1.726  0.00  0.00    -0.082 Cl
ATOM     27 CL   UNL     1       5.055  -0.498  -4.518  0.00  0.00    -0.082 Cl
ENDBRANCH   3  20
BRANCH   9  28
ATOM     28  N   UNL     1      -1.000  -6.198   2.122  0.00  0.00    -0.328 N 
ATOM     29  H   UNL     1      -0.902  -6.667   2.966  0.00  0.00    +0.145 HD
ATOM     30  H   UNL     1      -1.817  -6.292   1.607  0.00  0.00    +0.145 HD
ENDBRANCH   9  28
BRANCH  10  31
ATOM     31  C   UNL     1      -1.392  -4.953  -0.230  0.00  0.00    +0.101 C 
ATOM     32  N   UNL     1      -2.367  -5.104  -0.792  0.00  0.00    -0.191 NA
ENDBRANCH  10  31
TORSDOF 4
