REMARK  Name = ZINC35176002
REMARK  11 active torsions:
REMARK  status: ('A' for Active; 'I' for Inactive)
REMARK    1  A    between atoms: C_1  and  C_2
REMARK    2  A    between atoms: C_2  and  C_3
REMARK    3  A    between atoms: C_3  and  C_4
REMARK    4  A    between atoms: C_5  and  C_26
REMARK    5  A    between atoms: C_6  and  C_11
REMARK    6  A    between atoms: C_8  and  C_10
REMARK    7  A    between atoms: C_17  and  C_20
REMARK    8  A    between atoms: C_21  and  C_23
REMARK    9  A    between atoms: C_26  and  O_28
REMARK   10  A    between atoms: O_28  and  C_29
REMARK   11  A    between atoms: C_29  and  C_30
REMARK                            x       y       z     vdW  Elec       q    Type
REMARK                         _______ _______ _______ _____ _____    ______ ____
ROOT
ATOM      1  C   UNL     1      -1.325  -1.981  -0.100  0.00  0.00    +0.060 A 
ATOM      2  C   UNL     1      -1.344  -2.714  -1.293  0.00  0.00    +0.111 A 
ATOM      3  C   UNL     1      -1.358  -4.118  -1.206  0.00  0.00    +0.143 A 
ATOM      4  N   UNL     1      -1.353  -4.684  -0.004  0.00  0.00    -0.227 NA
ATOM      5  C   UNL     1      -1.335  -3.949   1.089  0.00  0.00    +0.127 A 
ATOM      6  N   UNL     1      -1.317  -2.631   1.050  0.00  0.00    -0.236 NA
ATOM      7  C   UNL     1      -1.331  -4.638   2.429  0.00  0.00    +0.088 C 
ENDROOT
BRANCH   3   8
ATOM      8  C   UNL     1      -1.379  -4.953  -2.435  0.00  0.00    +0.266 C 
ATOM      9  O   UNL     1      -1.499  -4.428  -3.524  0.00  0.00    -0.268 OA
ATOM     10  N   UNL     1      -1.264  -6.292  -2.342  0.00  0.00    -0.293 N 
ATOM     11  C   UNL     1      -1.246  -6.952  -1.029  0.00  0.00    +0.127 C 
ATOM     12  C   UNL     1       0.024  -7.805  -0.927  0.00  0.00    +0.127 C 
ATOM     13  N   UNL     1       0.134  -8.632  -2.137  0.00  0.00    -0.295 N 
ATOM     14  C   UNL     1       0.116  -7.972  -3.450  0.00  0.00    +0.090 C 
ATOM     15  C   UNL     1      -1.160  -7.120  -3.552  0.00  0.00    +0.130 C 
ATOM     16  C   UNL     1       0.119  -9.030  -4.556  0.00  0.00    +0.029 C 
ATOM     17  C   UNL     1       0.248  -9.972  -2.044  0.00  0.00    +0.219 C 
ATOM     18  O   UNL     1       0.443 -10.635  -3.041  0.00  0.00    -0.275 OA
BRANCH  17  19
ATOM     19  C   UNL     1       0.135 -10.647  -0.701  0.00  0.00    +0.075 C 
ATOM     20  C   UNL     1       1.400 -11.285  -0.122  0.00  0.00    +0.013 C 
ATOM     21  C   UNL     1       0.275 -12.170  -0.662  0.00  0.00    +0.013 C 
ENDBRANCH  17  19
ENDBRANCH   3   8
BRANCH   2  22
ATOM     22  C   UNL     1      -1.349  -2.033  -2.605  0.00  0.00    +0.343 C 
ATOM     23  O   UNL     1      -0.300  -1.763  -3.154  0.00  0.00    -0.245 OA
BRANCH  22  24
ATOM     24  O   UNL     1      -2.518  -1.710  -3.192  0.00  0.00    -0.461 OA
BRANCH  24  25
ATOM     25  C   UNL     1      -2.449  -1.053  -4.459  0.00  0.00    +0.229 C 
ATOM     26  C   UNL     1      -3.864  -0.769  -4.965  0.00  0.00    +0.048 C 
ENDBRANCH  24  25
ENDBRANCH  22  24
ENDBRANCH   2  22
BRANCH   1  27
ATOM     27  C   UNL     1      -1.309  -0.474  -0.128  0.00  0.00    +0.056 C 
BRANCH  27  29
ATOM     28  C   UNL     1       0.155   1.549  -0.185  0.00  0.00    +0.004 C 
ATOM     29  C   UNL     1       0.139   0.019  -0.157  0.00  0.00    +0.003 C 
ENDBRANCH  27  29
ENDBRANCH   1  27
TORSDOF 7
