REMARK  Name = ZINC07874882
REMARK  9 active torsions:
REMARK  status: ('A' for Active; 'I' for Inactive)
REMARK    1  A    between atoms: C_1  and  C_2
REMARK    2  A    between atoms: C_2  and  C_4
REMARK    3  A    between atoms: C_2  and  O_14
REMARK    4  A    between atoms: N_9  and  C_10
REMARK    5  A    between atoms: C_10  and  C_11
REMARK    6  A    between atoms: C_10  and  C_12
REMARK    7  A    between atoms: C_10  and  C_13
REMARK    8  A    between atoms: O_14  and  C_15
REMARK    9  A    between atoms: C_15  and  C_17
REMARK                            x       y       z     vdW  Elec       q    Type
REMARK                         _______ _______ _______ _____ _____    ______ ____
ROOT
ATOM      1  C   UNL     1       3.753  -4.309   6.211  0.00  0.00    +0.062 C 
ATOM      2  C   UNL     1       4.275  -4.462   4.781  0.00  0.00    +0.259 C 
ENDROOT
BRANCH   2   3
ATOM      3  C   UNL     1       4.434  -5.925   4.458  0.00  0.00    +0.261 C 
ATOM      4  O   UNL     1       3.813  -6.414   3.538  0.00  0.00    -0.271 OA
ATOM      5  N   UNL     1       5.265  -6.691   5.191  0.00  0.00    -0.237 N 
ATOM      6  C   UNL     1       5.407  -8.000   4.902  0.00  0.00    +0.306 C 
ATOM      7  O   UNL     1       4.785  -8.489   3.980  0.00  0.00    -0.252 OA
ATOM      8  N   UNL     1       6.239  -8.766   5.636  0.00  0.00    -0.294 N 
ATOM      9  H   UNL     1       5.762  -6.300   5.927  0.00  0.00    +0.159 HD
ATOM     10  H   UNL     1       6.736  -8.375   6.372  0.00  0.00    +0.151 HD
BRANCH   8  11
ATOM     11  C   UNL     1       6.393 -10.188   5.322  0.00  0.00    +0.028 C 
ATOM     12  C   UNL     1       6.915 -10.341   3.892  0.00  0.00    +0.031 C 
ATOM     13  C   UNL     1       7.387 -10.821   6.298  0.00  0.00    +0.031 C 
ATOM     14  C   UNL     1       5.039 -10.888   5.448  0.00  0.00    +0.031 C 
ENDBRANCH   8  11
ENDBRANCH   2   3
BRANCH   2  15
ATOM     15  O   UNL     1       3.332  -3.861   3.855  0.00  0.00    -0.449 OA
BRANCH  15  16
ATOM     16  C   UNL     1       3.508  -2.558   3.562  0.00  0.00    +0.340 C 
ATOM     17  O   UNL     1       4.425  -1.940   4.066  0.00  0.00    -0.245 OA
BRANCH  16  18
ATOM     18  C   UNL     1       2.588  -1.881   2.628  0.00  0.00    +0.064 A 
ATOM     19  C   UNL     1       2.769  -0.529   2.323  0.00  0.00    +0.064 A 
ATOM     20  C   UNL     1       1.905   0.102   1.448  0.00  0.00    +0.164 A 
ATOM     21  C   UNL     1       0.858  -0.609   0.869  0.00  0.00    +0.180 A 
ATOM     22  C   UNL     1       0.677  -1.954   1.174  0.00  0.00    +0.087 A 
ATOM     23  C   UNL     1       1.534  -2.590   2.047  0.00  0.00    +0.039 A 
ATOM     24 CL   UNL     1      -0.632  -2.836   0.452  0.00  0.00    -0.080 Cl
ATOM     25  O   UNL     1       0.002  -0.004   0.002  0.00  0.00    -0.483 OA
ATOM     26  C   UNL     1      -0.017   1.427   0.010  0.00  0.00    +0.270 C 
ATOM     27  C   UNL     1       1.433   1.928  -0.001  0.00  0.00    +0.270 C 
ATOM     28  O   UNL     1       2.091   1.421   1.165  0.00  0.00    -0.485 OA
ENDBRANCH  16  18
ENDBRANCH  15  16
ENDBRANCH   2  15
TORSDOF 5
