REMARK  Name = ZINC63780554
REMARK  8 active torsions:
REMARK  status: ('A' for Active; 'I' for Inactive)
REMARK    1  A    between atoms: C_1  and  N_2
REMARK    2  A    between atoms: N_2  and  C_3
REMARK    3  A    between atoms: N_2  and  S_9
REMARK    4  A    between atoms: S_9  and  C_12
REMARK    5  A    between atoms: C_16  and  C_18
REMARK    6  A    between atoms: N_20  and  C_21
REMARK    7  A    between atoms: C_21  and  C_22
REMARK    8  A    between atoms: C_22  and  C_23
REMARK                            x       y       z     vdW  Elec       q    Type
REMARK                         _______ _______ _______ _____ _____    ______ ____
ROOT
ATOM      1  C   UNL     1       1.682  -1.059  -1.905  0.00  0.00    +0.106 A 
ATOM      2  C   UNL     1       2.323  -0.107  -2.678  0.00  0.00    +0.028 A 
ATOM      3  C   UNL     1       3.644  -0.284  -3.050  0.00  0.00    +0.003 A 
ATOM      4  C   UNL     1       4.330  -1.413  -2.652  0.00  0.00    +0.013 A 
ATOM      5  C   UNL     1       3.690  -2.377  -1.873  0.00  0.00    +0.039 A 
ATOM      6  C   UNL     1       2.359  -2.190  -1.496  0.00  0.00    +0.041 A 
ENDROOT
BRANCH   5   7
ATOM      7  C   UNL     1       4.419  -3.589  -1.443  0.00  0.00    +0.244 C 
ATOM      8  O   UNL     1       3.859  -4.427  -0.764  0.00  0.00    -0.270 OA
ATOM      9  N   UNL     1       5.706  -3.764  -1.804  0.00  0.00    -0.311 N 
ATOM     10  H   UNL     1       6.153  -3.096  -2.346  0.00  0.00    +0.149 HD
BRANCH   9  11
ATOM     11  C   UNL     1       6.429  -4.966  -1.379  0.00  0.00    +0.109 C 
BRANCH  11  12
ATOM     12  C   UNL     1       7.859  -4.918  -1.919  0.00  0.00    +0.052 C 
BRANCH  12  13
ATOM     13  C   UNL     1       8.603  -6.153  -1.482  0.00  0.00    -0.040 C 
ATOM     14  C   UNL     1       8.766  -7.297  -2.186  0.00  0.00    -0.001 A 
ATOM     15  C   UNL     1       8.315  -7.717  -3.518  0.00  0.00    +0.010 A 
ATOM     16  C   UNL     1       8.641  -8.952  -3.962  0.00  0.00    +0.001 A 
ATOM     17  C   UNL     1       9.395  -9.840  -3.182  0.00  0.00    +0.002 A 
ATOM     18  C   UNL     1       9.845  -9.526  -1.949  0.00  0.00    +0.026 A 
ATOM     19  C   UNL     1       9.562  -8.252  -1.383  0.00  0.00    +0.043 A 
ATOM     20  N   UNL     1       9.879  -7.721  -0.227  0.00  0.00    -0.380 N 
ATOM     21  C   UNL     1       9.324  -6.364  -0.169  0.00  0.00    +0.144 C 
ATOM     22  H   UNL     1      10.397  -8.151   0.471  0.00  0.00    +0.160 HD
ENDBRANCH  12  13
ENDBRANCH  11  12
ENDBRANCH   9  11
ENDBRANCH   5   7
BRANCH   1  23
ATOM     23  S   UNL     1      -0.000  -0.824  -1.437  0.00  0.00    +0.061 S 
ATOM     24  O   UNL     1      -0.531  -2.115  -1.167  0.00  0.00    -0.153 OA
ATOM     25  O   UNL     1      -0.572   0.049  -2.401  0.00  0.00    -0.153 OA
BRANCH  23  27
ATOM     26  C   UNL     1      -0.018   1.461   0.010  0.00  0.00    +0.132 C 
ATOM     27  N   UNL     1       0.002  -0.004   0.002  0.00  0.00    -0.177 NA
BRANCH  27  28
ATOM     28  C   UNL     1       0.024  -0.743   1.267  0.00  0.00    +0.080 C 
ATOM     29  C   UNL     1      -1.222  -0.395   2.083  0.00  0.00    +0.020 C 
ATOM     30  C   UNL     1      -1.199  -1.167   3.404  0.00  0.00    +0.002 C 
ATOM     31  C   UNL     1       0.052  -0.785   4.196  0.00  0.00    +0.000 C 
ATOM     32  C   UNL     1       1.299  -1.133   3.380  0.00  0.00    +0.002 C 
ATOM     33  C   UNL     1       1.276  -0.361   2.059  0.00  0.00    +0.020 C 
ENDBRANCH  27  28
ENDBRANCH  23  27
ENDBRANCH   1  23
TORSDOF 7
