REMARK  Name = ZINC22620731
REMARK  11 active torsions:
REMARK  status: ('A' for Active; 'I' for Inactive)
REMARK    1  A    between atoms: C_1  and  C_2
REMARK    2  A    between atoms: C_2  and  C_4
REMARK    3  A    between atoms: C_2  and  N_32
REMARK    4  A    between atoms: C_7  and  S_16
REMARK    5  A    between atoms: N_8  and  C_9
REMARK    6  A    between atoms: S_16  and  C_17
REMARK    7  A    between atoms: C_17  and  C_19
REMARK    8  A    between atoms: C_17  and  C_20
REMARK    9  A    between atoms: N_25  and  C_26
REMARK   10  A    between atoms: N_32  and  C_33
REMARK   11  A    between atoms: N_32  and  C_34
REMARK                            x       y       z     vdW  Elec       q    Type
REMARK                         _______ _______ _______ _____ _____    ______ ____
ROOT
ATOM      1  C   UNL     1      -1.451   3.475   2.510  0.00  0.00    +0.125 A 
ATOM      2  N   UNL     1      -2.564   2.989   2.981  0.00  0.00    -0.135 NA
ATOM      3  N   UNL     1      -2.890   3.600   4.064  0.00  0.00    -0.122 NA
ATOM      4  C   UNL     1      -1.995   4.518   4.346  0.00  0.00    +0.197 A 
ATOM      5  N   UNL     1      -1.044   4.465   3.365  0.00  0.00    -0.275 N 
ENDROOT
BRANCH   5   6
ATOM      6  C   UNL     1       0.107   5.259   3.256  0.00  0.00    +0.050 A 
ATOM      7  C   UNL     1       1.364   4.680   3.359  0.00  0.00    +0.028 A 
ATOM      8  C   UNL     1       2.496   5.463   3.247  0.00  0.00    +0.022 A 
ATOM      9  C   UNL     1       2.377   6.827   3.041  0.00  0.00    +0.041 A 
ATOM     10  C   UNL     1       1.125   7.407   2.943  0.00  0.00    +0.022 A 
ATOM     11  C   UNL     1      -0.009   6.627   3.050  0.00  0.00    +0.028 A 
ATOM     12 CL   UNL     1       3.801   7.810   2.906  0.00  0.00    -0.084 Cl
ENDBRANCH   5   6
BRANCH   1  14
ATOM     13  C   UNL     1      -1.486   3.553   0.032  0.00  0.00    -0.005 C 
ATOM     14  C   UNL     1      -0.740   3.027   1.259  0.00  0.00    -0.003 C 
BRANCH  14  15
ATOM     15  N   UNL     1      -0.700   1.560   1.217  0.00  0.00    +0.382 N 
ATOM     16  C   UNL     1      -0.013   1.086   0.008  0.00  0.00    -0.096 C 
ATOM     17  C   UNL     1      -0.072   1.015   2.428  0.00  0.00    -0.096 C 
ATOM     18  H   UNL     1      -1.737   1.195   1.181  0.00  0.00    -0.082 HD
ENDBRANCH  14  15
ENDBRANCH   1  14
BRANCH   4  19
ATOM     19  S   UNL     1      -2.012   5.608   5.731  0.00  0.00    -0.073 S 
BRANCH  19  20
ATOM     20  C   UNL     1      -3.540   5.067   6.537  0.00  0.00    +0.137 C 
ATOM     21  C   UNL     1      -4.732   5.375   5.629  0.00  0.00    +0.029 C 
BRANCH  20  22
ATOM     22  C   UNL     1      -3.703   5.797   7.845  0.00  0.00    +0.233 C 
ATOM     23  O   UNL     1      -3.177   6.878   8.006  0.00  0.00    -0.274 OA
ATOM     24  N   UNL     1      -4.434   5.250   8.836  0.00  0.00    -0.239 N 
ATOM     25  C   UNL     1      -4.580   5.903  10.006  0.00  0.00    +0.306 C 
ATOM     26  O   UNL     1      -4.053   6.986  10.168  0.00  0.00    -0.252 OA
ATOM     27  N   UNL     1      -5.311   5.355  10.997  0.00  0.00    -0.296 N 
ATOM     28  H   UNL     1      -4.912   4.269   8.690  0.00  0.00    +0.159 HD
ATOM     29  H   UNL     1      -5.789   4.375  10.851  0.00  0.00    +0.151 HD
BRANCH  27  30
ATOM     30  C   UNL     1      -5.470   6.065  12.269  0.00  0.00    +0.074 C 
ATOM     31  C   UNL     1      -4.278   5.757  13.177  0.00  0.00    +0.022 C 
ATOM     32  C   UNL     1      -4.443   6.499  14.505  0.00  0.00    +0.002 C 
ATOM     33  C   UNL     1      -5.735   6.042  15.187  0.00  0.00    +0.000 C 
ATOM     34  C   UNL     1      -6.927   6.349  14.278  0.00  0.00    +0.002 C 
ATOM     35  C   UNL     1      -6.761   5.608  12.950  0.00  0.00    +0.022 C 
ENDBRANCH  27  30
ENDBRANCH  20  22
ENDBRANCH  19  20
ENDBRANCH   4  19
TORSDOF 7
