REMARK  Name = ZINC09419759
REMARK  8 active torsions:
REMARK  status: ('A' for Active; 'I' for Inactive)
REMARK    1  A    between atoms: C_1  and  C_2
REMARK    2  A    between atoms: C_10  and  C_12
REMARK    3  A    between atoms: C_15  and  O_20
REMARK    4  A    between atoms: C_16  and  O_18
REMARK    5  A    between atoms: O_18  and  C_19
REMARK    6  A    between atoms: C_24  and  C_27
REMARK    7  A    between atoms: C_30  and  O_33
REMARK    8  A    between atoms: O_33  and  C_34
REMARK                            x       y       z     vdW  Elec       q    Type
REMARK                         _______ _______ _______ _____ _____    ______ ____
ROOT
ATOM      1  C   UNL     1       1.365  -5.336  -1.582  0.00  0.00    +0.069 C 
ATOM      2  C   UNL     1       2.206  -4.123  -1.887  0.00  0.00    +0.087 A 
ATOM      3  C   UNL     1       2.013  -2.829  -1.410  0.00  0.00    +0.049 A 
ATOM      4  C   UNL     1       3.029  -2.101  -1.973  0.00  0.00    +0.226 A 
ATOM      5  O   UNL     1       3.735  -2.952  -2.710  0.00  0.00    -0.339 OA
ATOM      6  N   UNL     1       3.266  -4.073  -2.655  0.00  0.00    -0.081 NA
ATOM      7  N   UNL     1       3.158  -0.749  -1.729  0.00  0.00    -0.286 N 
ATOM      8  C   UNL     1       2.100  -0.080  -1.160  0.00  0.00    +0.019 C 
ATOM      9  C   UNL     1       1.067  -0.722  -0.573  0.00  0.00    +0.024 C 
ATOM     10  C   UNL     1       0.989  -2.233  -0.498  0.00  0.00    +0.091 C 
ATOM     11  C   UNL     1       0.002  -0.004   0.002  0.00  0.00    +0.162 C 
ATOM     12  O   UNL     1      -0.922  -0.613   0.503  0.00  0.00    -0.292 OA
ATOM     13  C   UNL     1      -0.018   1.499   0.010  0.00  0.00    +0.088 C 
ATOM     14  C   UNL     1       1.425   2.014  -0.001  0.00  0.00    +0.032 C 
ATOM     15  C   UNL     1       2.134   1.430  -1.224  0.00  0.00    +0.059 C 
ATOM     16  H   UNL     1       3.977  -0.280  -1.953  0.00  0.00    +0.155 HD
ENDROOT
BRANCH  10  17
ATOM     17  C   UNL     1       1.255  -2.680   0.916  0.00  0.00    -0.032 A 
ATOM     18  C   UNL     1       2.463  -2.381   1.519  0.00  0.00    +0.008 A 
ATOM     19  C   UNL     1       2.709  -2.784   2.818  0.00  0.00    +0.049 A 
ATOM     20  C   UNL     1       1.749  -3.499   3.516  0.00  0.00    +0.158 A 
ATOM     21  C   UNL     1       0.535  -3.805   2.907  0.00  0.00    +0.162 A 
ATOM     22  C   UNL     1       0.293  -3.393   1.607  0.00  0.00    +0.054 A 
BRANCH  21  23
ATOM     23  O   UNL     1      -0.410  -4.507   3.587  0.00  0.00    -0.491 OA
ATOM     24  C   UNL     1      -1.632  -4.785   2.900  0.00  0.00    +0.277 C 
ENDBRANCH  21  23
BRANCH  20  25
ATOM     25  O   UNL     1       1.992  -3.902   4.792  0.00  0.00    -0.503 OA
ATOM     26  H   UNL     1       2.405  -4.774   4.857  0.00  0.00    +0.292 HD
ENDBRANCH  20  25
ENDBRANCH  10  17
BRANCH  14  27
ATOM     27  C   UNL     1       1.427   3.519  -0.083  0.00  0.00    -0.043 A 
ATOM     28  C   UNL     1       0.846   4.151  -1.167  0.00  0.00    +0.007 A 
ATOM     29  C   UNL     1       0.841   5.530  -1.242  0.00  0.00    +0.046 A 
ATOM     30  C   UNL     1       1.430   6.281  -0.235  0.00  0.00    +0.120 A 
ATOM     31  C   UNL     1       2.017   5.644   0.849  0.00  0.00    +0.046 A 
ATOM     32  C   UNL     1       2.014   4.264   0.922  0.00  0.00    +0.007 A 
BRANCH  30  33
ATOM     33  O   UNL     1       1.431   7.638  -0.309  0.00  0.00    -0.495 OA
ATOM     34  C   UNL     1       0.808   8.226  -1.453  0.00  0.00    +0.277 C 
ENDBRANCH  30  33
ENDBRANCH  14  27
TORSDOF 5
