REMARK  Name = ZINC12343130
REMARK  8 active torsions:
REMARK  status: ('A' for Active; 'I' for Inactive)
REMARK    1  A    between atoms: C_1  and  C_2
REMARK    2  A    between atoms: C_2  and  C_18
REMARK    3  A    between atoms: N_3  and  N_4
REMARK    4  A    between atoms: C_5  and  C_7
REMARK    5  A    between atoms: C_7  and  O_8
REMARK    6  A    between atoms: O_8  and  C_9
REMARK    7  A    between atoms: C_18  and  C_19
REMARK    8  A    between atoms: C_19  and  O_29
REMARK                            x       y       z     vdW  Elec       q    Type
REMARK                         _______ _______ _______ _____ _____    ______ ____
ROOT
ATOM      1  C   UNL     1       1.387   6.632   0.264  0.00  0.00    +0.062 C 
ATOM      2  C   UNL     1       0.931   5.655   1.317  0.00  0.00    +0.037 C 
ATOM      3  N   UNL     1       0.149   6.043   2.253  0.00  0.00    -0.189 NA
ENDROOT
BRANCH   3   4
ATOM      4  N   UNL     1      -0.283   7.375   2.299  0.00  0.00    -0.204 N 
ATOM      5  C   UNL     1      -1.107   7.783   3.284  0.00  0.00    +0.270 C 
ATOM      6  O   UNL     1      -1.474   6.997   4.132  0.00  0.00    -0.270 OA
ATOM      7  H   UNL     1       0.010   8.003   1.620  0.00  0.00    +0.177 HD
BRANCH   5   8
ATOM      8  C   UNL     1      -1.571   9.216   3.333  0.00  0.00    +0.326 C 
BRANCH   8   9
ATOM      9  O   UNL     1      -2.429   9.400   4.461  0.00  0.00    -0.480 OA
BRANCH   9  10
ATOM     10  C   UNL     1      -2.939  10.647   4.652  0.00  0.00    +0.158 A 
ATOM     11  C   UNL     1      -2.251  11.567   5.430  0.00  0.00    +0.085 A 
ATOM     12  C   UNL     1      -2.768  12.836   5.617  0.00  0.00    +0.043 A 
ATOM     13  C   UNL     1      -3.976  13.184   5.040  0.00  0.00    +0.044 A 
ATOM     14  C   UNL     1      -4.667  12.266   4.268  0.00  0.00    +0.043 A 
ATOM     15  C   UNL     1      -4.150  10.998   4.073  0.00  0.00    +0.085 A 
ATOM     16 CL   UNL     1      -5.016   9.847   3.104  0.00  0.00    -0.080 Cl
ATOM     17 CL   UNL     1      -4.627  14.775   5.283  0.00  0.00    -0.083 Cl
ATOM     18 CL   UNL     1      -0.739  11.129   6.161  0.00  0.00    -0.080 Cl
ENDBRANCH   9  10
ENDBRANCH   8   9
ENDBRANCH   5   8
ENDBRANCH   3   4
BRANCH   2  19
ATOM     19  C   UNL     1       1.396   4.223   1.268  0.00  0.00    +0.101 C 
BRANCH  19  20
ATOM     20  C   UNL     1       0.840   3.549   0.013  0.00  0.00    +0.173 C 
ATOM     21  C   UNL     1       1.189   2.078   0.002  0.00  0.00    +0.014 A 
ATOM     22  C   UNL     1       2.388   1.401  -0.013  0.00  0.00    +0.009 A 
ATOM     23  C   UNL     1       2.399   0.017  -0.021  0.00  0.00    +0.000 A 
ATOM     24  C   UNL     1       1.204  -0.680  -0.013  0.00  0.00    +0.002 A 
ATOM     25  C   UNL     1       0.002  -0.004   0.002  0.00  0.00    +0.024 A 
ATOM     26  C   UNL     1      -0.017   1.389   0.010  0.00  0.00    +0.040 A 
ATOM     27  N   UNL     1      -1.085   2.287   0.019  0.00  0.00    -0.282 N 
ATOM     28  C   UNL     1      -0.674   3.567   0.027  0.00  0.00    +0.254 C 
ATOM     29  O   UNL     1      -1.383   4.551   0.038  0.00  0.00    -0.272 OA
ATOM     30  H   UNL     1      -2.017   2.019   0.022  0.00  0.00    +0.155 HD
BRANCH  20  31
ATOM     31  O   UNL     1       1.337   4.190  -1.163  0.00  0.00    -0.374 OA
ATOM     32  H   UNL     1       1.141   5.136  -1.208  0.00  0.00    +0.211 HD
ENDBRANCH  20  31
ENDBRANCH  19  20
ENDBRANCH   2  19
TORSDOF 7
