REMARK  Name = ZINC65404177
REMARK  8 active torsions:
REMARK  status: ('A' for Active; 'I' for Inactive)
REMARK    1  A    between atoms: C_1  and  C_2
REMARK    2  A    between atoms: C_2  and  N_3
REMARK    3  A    between atoms: N_3  and  C_4
REMARK    4  A    between atoms: C_4  and  C_5
REMARK    5  A    between atoms: C_5  and  C_6
REMARK    6  A    between atoms: C_13  and  C_16
REMARK    7  A    between atoms: C_17  and  C_19
REMARK    8  A    between atoms: N_24  and  C_26
REMARK                            x       y       z     vdW  Elec       q    Type
REMARK                         _______ _______ _______ _____ _____    ______ ____
ROOT
ATOM      1  C   UNL     1      -2.223  -0.484  -1.216  0.00  0.00    +0.112 C 
ENDROOT
BRANCH   1   2
ATOM      2  N   UNL     1      -1.470  -0.334   0.032  0.00  0.00    -0.298 N 
ATOM      3  C   UNL     1      -1.958  -0.846   1.179  0.00  0.00    +0.248 C 
ATOM      4  O   UNL     1      -2.976  -1.511   1.163  0.00  0.00    -0.270 OA
BRANCH   3   5
ATOM      5  C   UNL     1      -1.258  -0.599   2.453  0.00  0.00    +0.053 A 
ATOM      6  C   UNL     1      -1.725   0.399   3.342  0.00  0.00    +0.020 A 
ATOM      7  C   UNL     1      -1.060   0.606   4.510  0.00  0.00    +0.071 A 
ATOM      8  C   UNL     1       0.073  -0.174   4.810  0.00  0.00    +0.251 A 
ATOM      9  O   UNL     1       0.673   0.007   5.856  0.00  0.00    -0.268 OA
ATOM     10  N   UNL     1       0.498  -1.119   3.951  0.00  0.00    -0.318 N 
ATOM     11  C   UNL     1      -0.147  -1.344   2.791  0.00  0.00    +0.101 A 
ATOM     12  C   UNL     1       1.680  -1.918   4.286  0.00  0.00    +0.152 C 
ENDBRANCH   3   5
BRANCH   2  14
ATOM     13  C   UNL     1      -0.427   1.867   0.248  0.00  0.00    +0.024 C 
ATOM     14  C   UNL     1      -0.186   0.372   0.033  0.00  0.00    +0.104 C 
ENDBRANCH   2  14
ENDBRANCH   1   2
BRANCH   1  15
ATOM     15  C   UNL     1      -1.801  -1.779  -1.914  0.00  0.00    +0.065 C 
BRANCH  15  16
ATOM     16  C   UNL     1      -2.587  -1.936  -3.217  0.00  0.00    +0.175 C 
ATOM     17  N   UNL     1      -4.023  -2.040  -2.930  0.00  0.00    -0.363 N 
ATOM     18  C   UNL     1      -4.427  -3.195  -3.373  0.00  0.00    +0.060 A 
ATOM     19  C   UNL     1      -5.737  -3.862  -3.377  0.00  0.00    +0.027 A 
ATOM     20  C   UNL     1      -5.857  -5.090  -3.920  0.00  0.00    +0.002 A 
ATOM     21  C   UNL     1      -4.771  -5.774  -4.493  0.00  0.00    +0.005 A 
ATOM     22  C   UNL     1      -3.528  -5.255  -4.542  0.00  0.00    -0.025 A 
ATOM     23  C   UNL     1      -3.277  -3.920  -3.979  0.00  0.00    +0.063 A 
ATOM     24  N   UNL     1      -2.206  -3.185  -3.888  0.00  0.00    -0.363 N 
ATOM     25  C   UNL     1      -2.403  -6.037  -5.169  0.00  0.00    +0.046 C 
ATOM     26  H   UNL     1      -1.320  -3.418  -4.206  0.00  0.00    +0.162 HD
ATOM     27  H   UNL     1      -4.571  -1.371  -2.490  0.00  0.00    +0.162 HD
ENDBRANCH  15  16
ENDBRANCH   1  15
TORSDOF 5
