REMARK  Name = ZINC36045084
REMARK  9 active torsions:
REMARK  status: ('A' for Active; 'I' for Inactive)
REMARK    1  A    between atoms: C_1  and  C_2
REMARK    2  A    between atoms: C_2  and  C_3
REMARK    3  A    between atoms: C_2  and  N_4
REMARK    4  A    between atoms: N_7  and  C_8
REMARK    5  A    between atoms: N_7  and  C_15
REMARK    6  A    between atoms: C_8  and  C_9
REMARK    7  A    between atoms: C_15  and  C_16
REMARK    8  A    between atoms: C_21  and  C_31
REMARK    9  A    between atoms: N_23  and  C_24
REMARK                            x       y       z     vdW  Elec       q    Type
REMARK                         _______ _______ _______ _____ _____    ______ ____
ROOT
ATOM      1  C   UNL     1      -4.578  -0.526  -1.018  0.00  0.00    +0.237 C 
ATOM      2  O   UNL     1      -4.140  -0.599  -2.147  0.00  0.00    -0.274 OA
ATOM      3  N   UNL     1      -5.593   0.317  -0.742  0.00  0.00    -0.254 N 
ATOM      4  C   UNL     1      -6.137   1.102  -1.750  0.00  0.00    +0.207 A 
ATOM      5  N   UNL     1      -5.755   1.109  -3.003  0.00  0.00    -0.214 NA
ATOM      6  C   UNL     1      -6.507   1.993  -3.693  0.00  0.00    +0.091 A 
ATOM      7  C   UNL     1      -7.390   2.556  -2.830  0.00  0.00    +0.122 A 
ATOM      8  N   UNL     1      -7.161   1.989  -1.600  0.00  0.00    -0.287 N 
ATOM      9  H   UNL     1      -5.944   0.374   0.161  0.00  0.00    +0.158 HD
ENDROOT
BRANCH   8  10
ATOM     10  C   UNL     1      -7.850   2.272  -0.412  0.00  0.00    +0.049 A 
ATOM     11  C   UNL     1      -8.351   1.237   0.365  0.00  0.00    +0.029 A 
ATOM     12  C   UNL     1      -9.029   1.518   1.535  0.00  0.00    +0.040 A 
ATOM     13  C   UNL     1      -9.210   2.831   1.933  0.00  0.00    +0.124 A 
ATOM     14  C   UNL     1      -8.711   3.866   1.159  0.00  0.00    +0.040 A 
ATOM     15  C   UNL     1      -8.027   3.589  -0.008  0.00  0.00    +0.029 A 
ATOM     16  F   UNL     1      -9.873   3.104   3.078  0.00  0.00    -0.205 F 
ENDBRANCH   8  10
BRANCH   6  17
ATOM     17  C   UNL     1      -6.388   2.296  -5.140  0.00  0.00    +0.002 A 
ATOM     18  C   UNL     1      -7.227   3.240  -5.728  0.00  0.00    +0.010 A 
ATOM     19  C   UNL     1      -7.111   3.519  -7.075  0.00  0.00    +0.001 A 
ATOM     20  C   UNL     1      -6.165   2.862  -7.841  0.00  0.00    +0.000 A 
ATOM     21  C   UNL     1      -5.329   1.923  -7.262  0.00  0.00    +0.001 A 
ATOM     22  C   UNL     1      -5.432   1.641  -5.915  0.00  0.00    +0.010 A 
ENDBRANCH   6  17
BRANCH   1  23
ATOM     23  C   UNL     1      -3.988  -1.378   0.076  0.00  0.00    +0.205 C 
BRANCH  23  27
ATOM     24  N   UNL     1      -1.372  -0.511   0.012  0.00  0.00    -0.297 N 
ATOM     25  C   UNL     1      -1.643  -1.734  -0.485  0.00  0.00    +0.303 C 
ATOM     26  O   UNL     1      -0.747  -2.417  -0.942  0.00  0.00    -0.253 OA
ATOM     27  N   UNL     1      -2.908  -2.201  -0.475  0.00  0.00    -0.273 N 
ATOM     28  H   UNL     1      -2.087   0.033   0.377  0.00  0.00    +0.150 HD
BRANCH  24  30
ATOM     29  C   UNL     1      -0.019   1.526   0.010  0.00  0.00    +0.027 C 
ATOM     30  C   UNL     1       0.002  -0.004   0.002  0.00  0.00    +0.068 C 
ATOM     31  C   UNL     1       0.742  -0.511   1.242  0.00  0.00    +0.027 C 
ENDBRANCH  24  30
BRANCH  27  32
ATOM     32  C   UNL     1      -3.202  -3.530  -1.016  0.00  0.00    +0.145 C 
BRANCH  32  33
ATOM     33  C   UNL     1      -3.083  -4.556   0.081  0.00  0.00    -0.030 A 
ATOM     34  C   UNL     1      -1.869  -5.171   0.324  0.00  0.00    +0.005 A 
ATOM     35  C   UNL     1      -1.760  -6.113   1.330  0.00  0.00    +0.000 A 
ATOM     36  C   UNL     1      -2.864  -6.438   2.095  0.00  0.00    +0.000 A 
ATOM     37  C   UNL     1      -4.078  -5.822   1.853  0.00  0.00    +0.000 A 
ATOM     38  C   UNL     1      -4.186  -4.878   0.850  0.00  0.00    +0.005 A 
ENDBRANCH  32  33
ENDBRANCH  27  32
ENDBRANCH  23  27
ENDBRANCH   1  23
TORSDOF 7
