REMARK  Name = ZINC20270807
REMARK  12 active torsions:
REMARK  status: ('A' for Active; 'I' for Inactive)
REMARK    1  A    between atoms: C_1  and  O_2
REMARK    2  A    between atoms: O_2  and  C_3
REMARK    3  A    between atoms: C_3  and  C_5
REMARK    4  A    between atoms: C_5  and  C_6
REMARK    5  A    between atoms: C_6  and  C_7
REMARK    6  A    between atoms: N_10  and  C_28
REMARK    7  A    between atoms: C_13  and  N_15
REMARK    8  A    between atoms: N_18  and  C_21
REMARK    9  A    between atoms: C_28  and  C_29
REMARK   10  A    between atoms: C_34  and  O_35
REMARK   11  A    between atoms: O_35  and  C_36
REMARK   12  A    between atoms: C_36  and  C_37
REMARK                            x       y       z     vdW  Elec       q    Type
REMARK                         _______ _______ _______ _____ _____    ______ ____
ROOT
ATOM      1  C   UNL     1      -0.118   5.968  -2.345  0.00  0.00    -0.010 C 
ATOM      2  C   UNL     1      -0.179   7.496  -2.409  0.00  0.00    -0.073 C 
ATOM      3  N   UNL     1      -1.034   7.998  -1.326  0.00  0.00    +0.383 N 
ATOM      4  C   UNL     1      -0.489   7.641  -0.010  0.00  0.00    -0.077 C 
ATOM      5  C   UNL     1      -0.437   6.118   0.125  0.00  0.00    +0.000 C 
ATOM      6  C   UNL     1       0.444   5.541  -0.986  0.00  0.00    +0.056 C 
ATOM      7  H   UNL     1      -2.018   7.516  -1.424  0.00  0.00    -0.081 HD
ENDROOT
BRANCH   6   8
ATOM      8  N   UNL     1       0.450   4.075  -0.896  0.00  0.00    -0.296 NA
ATOM      9  C   UNL     1       1.299   3.487  -1.942  0.00  0.00    +0.103 C 
ATOM     10  C   UNL     1       1.216   1.961  -1.865  0.00  0.00    +0.120 C 
ATOM     11  N   UNL     1       1.645   1.517  -0.531  0.00  0.00    -0.325 N 
ATOM     12  C   UNL     1       0.797   2.105   0.515  0.00  0.00    +0.120 C 
ATOM     13  C   UNL     1       0.880   3.631   0.437  0.00  0.00    +0.103 C 
BRANCH  11  14
ATOM     14  C   UNL     1       1.652   0.121  -0.446  0.00  0.00    +0.065 A 
ATOM     15  C   UNL     1       0.478  -0.594  -0.644  0.00  0.00    +0.026 A 
ATOM     16  C   UNL     1       0.489  -1.973  -0.564  0.00  0.00    +0.002 A 
ATOM     17  C   UNL     1       1.664  -2.642  -0.276  0.00  0.00    +0.003 A 
ATOM     18  C   UNL     1       2.834  -1.935  -0.073  0.00  0.00    +0.040 A 
ATOM     19  C   UNL     1       2.833  -0.554  -0.156  0.00  0.00    +0.144 A 
ATOM     20  F   UNL     1       3.976   0.137   0.042  0.00  0.00    -0.204 F 
ENDBRANCH  11  14
ENDBRANCH   6   8
BRANCH   1  21
ATOM     21  C   UNL     1      -1.525   5.393  -2.520  0.00  0.00    +0.014 C 
BRANCH  21  22
ATOM     22  C   UNL     1      -2.028   5.695  -3.933  0.00  0.00    +0.121 C 
BRANCH  22  23
ATOM     23  C   UNL     1      -3.413   5.129  -4.105  0.00  0.00    +0.307 C 
ATOM     24  O   UNL     1      -3.944   4.543  -3.192  0.00  0.00    -0.251 OA
BRANCH  23  26
ATOM     25  C   UNL     1      -5.389   4.703  -5.368  0.00  0.00    +0.280 C 
ATOM     26  O   UNL     1      -4.058   5.275  -5.274  0.00  0.00    -0.468 OA
ENDBRANCH  23  26
ENDBRANCH  22  23
ENDBRANCH  21  22
ENDBRANCH   1  21
BRANCH   3  27
ATOM     27  C   UNL     1      -1.228   9.450  -1.439  0.00  0.00    -0.039 C 
BRANCH  27  28
ATOM     28  C   UNL     1      -1.897   9.966  -0.191  0.00  0.00    -0.022 A 
ATOM     29  C   UNL     1      -3.255  10.222  -0.190  0.00  0.00    +0.005 A 
ATOM     30  C   UNL     1      -3.869  10.691   0.957  0.00  0.00    +0.000 A 
ATOM     31  C   UNL     1      -3.126  10.916   2.100  0.00  0.00    +0.004 A 
ATOM     32  C   UNL     1      -1.767  10.667   2.102  0.00  0.00    +0.046 A 
ATOM     33  C   UNL     1      -1.149  10.191   0.955  0.00  0.00    +0.122 A 
BRANCH  33  34
ATOM     34  O   UNL     1       0.188   9.946   0.954  0.00  0.00    -0.488 OA
BRANCH  34  35
ATOM     35  C   UNL     1       0.895  10.200   2.170  0.00  0.00    +0.256 C 
BRANCH  35  36
ATOM     36  C   UNL     1       2.354   9.873   1.980  0.00  0.00    +0.006 C 
ATOM     37  C   UNL     1       3.273  10.697   2.419  0.00  0.00    +0.007 C 
ENDBRANCH  35  36
ENDBRANCH  34  35
ENDBRANCH  33  34
ENDBRANCH  27  28
ENDBRANCH   3  27
TORSDOF 11
