REMARK  Name = ZINC46132032
REMARK  7 active torsions:
REMARK  status: ('A' for Active; 'I' for Inactive)
REMARK    1  A    between atoms: C_1  and  C_2
REMARK    2  A    between atoms: C_5  and  C_9
REMARK    3  A    between atoms: C_7  and  C_8
REMARK    4  A    between atoms: C_9  and  N_11
REMARK    5  A    between atoms: N_13  and  C_14
REMARK    6  A    between atoms: N_21  and  C_22
REMARK    7  A    between atoms: C_22  and  C_23
REMARK                            x       y       z     vdW  Elec       q    Type
REMARK                         _______ _______ _______ _____ _____    ______ ____
ROOT
ATOM      1  N   UNL     1      -1.717  -5.569  -1.576  0.00  0.00    -0.143 NA
ATOM      2  C   UNL     1      -0.912  -6.604  -1.392  0.00  0.00    +0.194 C 
ATOM      3  N   UNL     1      -0.128  -7.049  -2.417  0.00  0.00    -0.328 N 
ATOM      4  N   UNL     1      -0.866  -7.226  -0.179  0.00  0.00    -0.355 N 
ATOM      5  H   UNL     1       0.423  -7.839  -2.299  0.00  0.00    +0.169 HD
ATOM      6  H   UNL     1      -1.492  -6.975   0.518  0.00  0.00    +0.162 HD
ENDROOT
BRANCH   3   7
ATOM      7  C   UNL     1      -0.118  -6.365  -3.639  0.00  0.00    +0.042 A 
ATOM      8  C   UNL     1      -0.107  -4.977  -3.658  0.00  0.00    +0.028 A 
ATOM      9  C   UNL     1      -0.098  -4.304  -4.864  0.00  0.00    +0.040 A 
ATOM     10  C   UNL     1      -0.099  -5.013  -6.053  0.00  0.00    +0.124 A 
ATOM     11  C   UNL     1      -0.109  -6.397  -6.036  0.00  0.00    +0.040 A 
ATOM     12  C   UNL     1      -0.112  -7.074  -4.832  0.00  0.00    +0.028 A 
ATOM     13  F   UNL     1      -0.090  -4.353  -7.232  0.00  0.00    -0.205 F 
ENDBRANCH   3   7
BRANCH   1  14
ATOM     14  C   UNL     1      -2.362  -5.029  -0.533  0.00  0.00    +0.270 C 
ATOM     15  O   UNL     1      -2.294  -5.555   0.564  0.00  0.00    -0.268 OA
BRANCH  14  20
ATOM     16  C   UNL     1      -5.458  -0.227  -1.236  0.00  0.00    +0.044 C 
ATOM     17  C   UNL     1      -4.648  -1.484  -1.052  0.00  0.00    -0.047 A 
ATOM     18  C   UNL     1      -3.982  -2.039  -2.131  0.00  0.00    +0.004 A 
ATOM     19  C   UNL     1      -3.238  -3.189  -1.969  0.00  0.00    +0.013 A 
ATOM     20  C   UNL     1      -3.159  -3.794  -0.714  0.00  0.00    +0.039 A 
ATOM     21  C   UNL     1      -3.832  -3.230   0.369  0.00  0.00    +0.016 A 
ATOM     22  C   UNL     1      -4.569  -2.076   0.196  0.00  0.00    -0.047 A 
ATOM     23  C   UNL     1      -5.292  -1.462   1.366  0.00  0.00    +0.044 C 
ENDBRANCH  14  20
ENDBRANCH   1  14
BRANCH   4  24
ATOM     24  C   UNL     1       0.129  -8.273   0.070  0.00  0.00    +0.147 C 
BRANCH  24  25
ATOM     25  C   UNL     1      -0.113  -8.887   1.451  0.00  0.00    +0.137 C 
ATOM     26  C   UNL     1       0.852 -10.071   1.673  0.00  0.00    +0.035 C 
ATOM     27  C   UNL     1      -0.051 -11.099   2.409  0.00  0.00    +0.031 C 
ATOM     28  C   UNL     1      -1.421 -10.818   1.742  0.00  0.00    +0.160 C 
ATOM     29  O   UNL     1      -1.450  -9.396   1.529  0.00  0.00    -0.375 OA
ENDBRANCH  24  25
ENDBRANCH   4  24
TORSDOF 5
