REMARK  Name = ZINC36484534
REMARK  11 active torsions:
REMARK  status: ('A' for Active; 'I' for Inactive)
REMARK    1  A    between atoms: C_1  and  C_2
REMARK    2  A    between atoms: C_3  and  C_4
REMARK    3  A    between atoms: C_4  and  C_6
REMARK    4  A    between atoms: C_4  and  N_20
REMARK    5  A    between atoms: N_8  and  C_9
REMARK    6  A    between atoms: C_9  and  S_10
REMARK    7  A    between atoms: S_10  and  C_13
REMARK    8  A    between atoms: C_16  and  C_19
REMARK    9  A    between atoms: N_20  and  C_21
REMARK   10  A    between atoms: C_28  and  C_30
REMARK   11  A    between atoms: C_31  and  C_32
REMARK                            x       y       z     vdW  Elec       q    Type
REMARK                         _______ _______ _______ _____ _____    ______ ____
ROOT
ATOM      1  C   UNL     1       1.624   0.152  -2.401  0.00  0.00    +0.191 C 
ENDROOT
BRANCH   1   2
ATOM      2  C   UNL     1       3.035   0.060  -2.923  0.00  0.00    +0.239 C 
ATOM      3  O   UNL     1       3.804   0.983  -2.757  0.00  0.00    -0.273 OA
ATOM      4  N   UNL     1       3.441  -1.047  -3.575  0.00  0.00    -0.294 N 
ATOM      5  H   UNL     1       2.826  -1.785  -3.709  0.00  0.00    +0.150 HD
BRANCH   4   6
ATOM      6  C   UNL     1       4.812  -1.136  -4.083  0.00  0.00    +0.278 C 
BRANCH   6   7
ATOM      7  S   UNL     1       5.852  -1.995  -2.869  0.00  0.00    +0.013 S 
ATOM      8  O   UNL     1       7.171  -2.146  -3.374  0.00  0.00    -0.168 OA
ATOM      9  O   UNL     1       5.629  -1.462  -1.570  0.00  0.00    -0.168 OA
BRANCH   7  10
ATOM     10  C   UNL     1       5.207  -3.633  -2.799  0.00  0.00    +0.090 A 
ATOM     11  C   UNL     1       4.203  -3.943  -1.901  0.00  0.00    +0.027 A 
ATOM     12  C   UNL     1       3.697  -5.229  -1.847  0.00  0.00    +0.005 A 
ATOM     13  C   UNL     1       4.195  -6.204  -2.690  0.00  0.00    -0.050 A 
ATOM     14  C   UNL     1       5.199  -5.894  -3.589  0.00  0.00    +0.005 A 
ATOM     15  C   UNL     1       5.702  -4.607  -3.646  0.00  0.00    +0.027 A 
ATOM     16  C   UNL     1       3.645  -7.606  -2.630  0.00  0.00    +0.044 C 
ENDBRANCH   7  10
ENDBRANCH   6   7
ENDBRANCH   4   6
ENDBRANCH   1   2
BRANCH   1  19
ATOM     17  C   UNL     1      -0.452  -1.703  -2.851  0.00  0.00    +0.035 C 
ATOM     18  C   UNL     1       0.381  -1.789  -1.597  0.00  0.00    -0.032 C 
ATOM     19  C   UNL     1       1.379  -0.961  -1.416  0.00  0.00    +0.000 C 
ENDBRANCH   1  19
BRANCH   1  20
ATOM     20  N   UNL     1       1.432   1.444  -1.737  0.00  0.00    -0.245 N 
ATOM     21  C   UNL     1       0.575   2.347  -2.253  0.00  0.00    +0.297 C 
ATOM     22  O   UNL     1      -0.107   2.055  -3.218  0.00  0.00    -0.260 OA
BRANCH  20  23
ATOM     23  C   UNL     1       2.138   1.739  -0.567  0.00  0.00    +0.040 A 
ATOM     24  C   UNL     1       3.222   2.607  -0.609  0.00  0.00    +0.023 A 
ATOM     25  C   UNL     1       3.918   2.898   0.548  0.00  0.00    +0.003 A 
ATOM     26  C   UNL     1       3.537   2.326   1.748  0.00  0.00    +0.020 A 
ATOM     27  C   UNL     1       2.458   1.461   1.794  0.00  0.00    +0.043 A 
ATOM     28  C   UNL     1       1.754   1.171   0.640  0.00  0.00    +0.043 A 
ATOM     29 CL   UNL     1       1.984   0.745   3.303  0.00  0.00    -0.083 Cl
ENDBRANCH  20  23
BRANCH  21  30
ATOM     30  C   UNL     1       0.468   3.649  -1.667  0.00  0.00    -0.002 C 
ATOM     31  C   UNL     1       0.380   4.716  -1.186  0.00  0.00    -0.057 C 
BRANCH  31  32
ATOM     32  C   UNL     1       0.272   6.018  -0.599  0.00  0.00    +0.025 A 
ATOM     33  C   UNL     1       1.058   6.358   0.506  0.00  0.00    +0.017 A 
ATOM     34  C   UNL     1       0.949   7.614   1.065  0.00  0.00    +0.001 A 
ATOM     35  C   UNL     1       0.064   8.536   0.535  0.00  0.00    +0.000 A 
ATOM     36  C   UNL     1      -0.719   8.207  -0.558  0.00  0.00    +0.001 A 
ATOM     37  C   UNL     1      -0.616   6.958  -1.132  0.00  0.00    +0.017 A 
ENDBRANCH  31  32
ENDBRANCH  21  30
ENDBRANCH   1  20
TORSDOF 9
