REMARK  Name = ZINC32907938
REMARK  7 active torsions:
REMARK  status: ('A' for Active; 'I' for Inactive)
REMARK    1  A    between atoms: C_1  and  C_2
REMARK    2  A    between atoms: C_2  and  C_4
REMARK    3  A    between atoms: C_2  and  N_12
REMARK    4  A    between atoms: C_13  and  C_15
REMARK    5  A    between atoms: C_15  and  N_20
REMARK    6  A    between atoms: N_23  and  C_24
REMARK    7  A    between atoms: C_24  and  C_25
REMARK                            x       y       z     vdW  Elec       q    Type
REMARK                         _______ _______ _______ _____ _____    ______ ____
ROOT
ATOM      1  C   UNL     1       1.313   4.142  -0.111  0.00  0.00    +0.112 C 
ATOM      2  C   UNL     1       0.508   4.520  -1.367  0.00  0.00    +0.035 C 
ATOM      3  C   UNL     1       1.335   5.585  -2.117  0.00  0.00    +0.003 C 
ATOM      4  C   UNL     1       2.788   5.344  -1.638  0.00  0.00    +0.003 C 
ATOM      5  C   UNL     1       2.601   4.991  -0.141  0.00  0.00    +0.035 C 
ENDROOT
BRANCH   1   6
ATOM      6  N   UNL     1       1.650   2.717  -0.141  0.00  0.00    -0.285 N 
ATOM      7  C   UNL     1       0.671   1.794  -0.217  0.00  0.00    +0.301 C 
ATOM      8  O   UNL     1      -0.494   2.139  -0.176  0.00  0.00    -0.253 OA
ATOM      9  N   UNL     1       0.983   0.489  -0.343  0.00  0.00    -0.295 N 
ATOM     10  H   UNL     1       2.703   2.400  -0.102  0.00  0.00    +0.151 HD
ATOM     11  H   UNL     1       2.037   0.177  -0.385  0.00  0.00    +0.151 HD
BRANCH   9  12
ATOM     12  C   UNL     1      -0.081  -0.514  -0.425  0.00  0.00    +0.141 C 
BRANCH  12  13
ATOM     13  C   UNL     1       0.530  -1.885  -0.561  0.00  0.00    -0.030 A 
ATOM     14  C   UNL     1       0.791  -2.404  -1.815  0.00  0.00    +0.005 A 
ATOM     15  C   UNL     1       1.356  -3.659  -1.940  0.00  0.00    +0.000 A 
ATOM     16  C   UNL     1       1.651  -4.400  -0.810  0.00  0.00    +0.000 A 
ATOM     17  C   UNL     1       1.384  -3.883   0.444  0.00  0.00    +0.000 A 
ATOM     18  C   UNL     1       0.824  -2.626   0.569  0.00  0.00    +0.005 A 
ENDBRANCH  12  13
ENDBRANCH   9  12
ENDBRANCH   1   6
BRANCH   1  20
ATOM     19  N   UNL     1       0.791   3.825   2.286  0.00  0.00    -0.307 N 
ATOM     20  C   UNL     1       0.516   4.458   1.128  0.00  0.00    +0.237 C 
ATOM     21  O   UNL     1      -0.374   5.281   1.084  0.00  0.00    -0.273 OA
ATOM     22  H   UNL     1       1.542   3.021   2.308  0.00  0.00    +0.149 HD
BRANCH  19  24
ATOM     23  C   UNL     1      -1.181   3.371   3.659  0.00  0.00    +0.033 C 
ATOM     24  C   UNL     1       0.091   4.208   3.515  0.00  0.00    +0.103 C 
BRANCH  24  25
ATOM     25  C   UNL     1       0.989   3.966   4.700  0.00  0.00    +0.008 A 
ATOM     26  C   UNL     1       1.968   2.991   4.638  0.00  0.00    +0.011 A 
ATOM     27  C   UNL     1       2.796   2.772   5.723  0.00  0.00    +0.039 A 
ATOM     28  C   UNL     1       2.638   3.521   6.878  0.00  0.00    +0.126 A 
ATOM     29  C   UNL     1       1.655   4.492   6.943  0.00  0.00    +0.077 A 
ATOM     30  C   UNL     1       0.830   4.715   5.854  0.00  0.00    +0.131 A 
ATOM     31  F   UNL     1      -0.131   5.663   5.916  0.00  0.00    -0.205 F 
ATOM     32  F   UNL     1       3.444   3.302   7.940  0.00  0.00    -0.205 F 
ENDBRANCH  24  25
ENDBRANCH  19  24
ENDBRANCH   1  20
TORSDOF 6
