REMARK  Name = ZINC33613002
REMARK  13 active torsions:
REMARK  status: ('A' for Active; 'I' for Inactive)
REMARK    1  A    between atoms: C_1  and  C_2
REMARK    2  A    between atoms: C_2  and  C_3
REMARK    3  A    between atoms: C_3  and  C_4
REMARK    4  A    between atoms: C_4  and  C_6
REMARK    5  A    between atoms: C_4  and  N_35
REMARK    6  A    between atoms: C_8  and  C_11
REMARK    7  A    between atoms: N_13  and  C_14
REMARK    8  A    between atoms: C_14  and  C_15
REMARK    9  A    between atoms: C_15  and  C_34
REMARK   10  A    between atoms: C_19  and  C_33
REMARK   11  A    between atoms: C_28  and  C_30
REMARK   12  A    between atoms: C_30  and  C_31
REMARK   13  A    between atoms: C_30  and  C_32
REMARK                            x       y       z     vdW  Elec       q    Type
REMARK                         _______ _______ _______ _____ _____    ______ ____
ROOT
ATOM      1  C   UNL     1       6.403   3.386  -0.433  0.00  0.00    -0.013 C 
ATOM      2  C   UNL     1       5.541   4.164   0.562  0.00  0.00    +0.008 C 
ATOM      3  C   UNL     1       5.721   3.559   1.957  0.00  0.00    +0.001 C 
ATOM      4  C   UNL     1       7.187   3.683   2.373  0.00  0.00    +0.011 C 
ATOM      5  C   UNL     1       8.075   2.918   1.387  0.00  0.00    -0.003 C 
ATOM      6  C   UNL     1       7.869   3.458  -0.025  0.00  0.00    +0.007 C 
ATOM      7  C   UNL     1       8.374   4.902  -0.076  0.00  0.00    +0.009 C 
ATOM      8  C   UNL     1       9.898   4.879   0.028  0.00  0.00    +0.036 C 
ATOM      9  C   UNL     1      10.344   4.018   1.181  0.00  0.00    -0.043 A 
ATOM     10  C   UNL     1       9.515   3.108   1.798  0.00  0.00    -0.038 A 
ATOM     11  C   UNL     1       9.995   2.336   2.846  0.00  0.00    +0.005 A 
ATOM     12  C   UNL     1      11.296   2.479   3.283  0.00  0.00    +0.004 A 
ATOM     13  C   UNL     1      12.127   3.398   2.670  0.00  0.00    -0.045 A 
ATOM     14  C   UNL     1      11.653   4.162   1.624  0.00  0.00    +0.007 A 
ATOM     15  C   UNL     1       7.724   1.430   1.421  0.00  0.00    +0.016 C 
ATOM     16  C   UNL     1       6.235   3.992  -1.828  0.00  0.00    +0.013 C 
ENDROOT
BRANCH  13  17
ATOM     17  C   UNL     1      13.548   3.564   3.143  0.00  0.00    +0.013 C 
ATOM     18  C   UNL     1      13.550   3.988   4.613  0.00  0.00    +0.012 C 
ATOM     19  C   UNL     1      14.294   2.236   2.994  0.00  0.00    +0.012 C 
ENDBRANCH  13  17
BRANCH   1  20
ATOM     20  C   UNL     1       5.955   1.924  -0.459  0.00  0.00    +0.111 C 
BRANCH  20  23
ATOM     21  C   UNL     1       3.997   0.638  -1.131  0.00  0.00    +0.266 C 
ATOM     22  O   UNL     1       4.576  -0.372  -0.779  0.00  0.00    -0.268 OA
ATOM     23  N   UNL     1       4.601   1.837  -1.012  0.00  0.00    -0.309 N 
ATOM     24  H   UNL     1       4.078   2.751  -1.331  0.00  0.00    +0.149 HD
BRANCH  21  27
ATOM     25  C   UNL     1       0.736   1.119  -2.543  0.00  0.00    +0.182 A 
ATOM     26  N   UNL     1       1.871   1.591  -2.122  0.00  0.00    -0.210 NA
ATOM     27  C   UNL     1       2.635   0.551  -1.689  0.00  0.00    +0.163 A 
ATOM     28  C   UNL     1       1.906  -0.584  -1.867  0.00  0.00    +0.230 A 
ATOM     29  O   UNL     1       0.730  -0.213  -2.398  0.00  0.00    -0.449 OA
BRANCH  25  30
ATOM     30  C   UNL     1      -0.393   1.941  -3.110  0.00  0.00    +0.013 C 
BRANCH  30  31
ATOM     31  N   UNL     1      -0.908   1.293  -4.324  0.00  0.00    +0.386 N 
ATOM     32  H   UNL     1      -0.101   1.215  -5.068  0.00  0.00    -0.089 HD
ATOM     33  H   UNL     1      -1.732   1.893  -4.738  0.00  0.00    -0.089 HD
ATOM     34  H   UNL     1      -1.276   0.287  -4.075  0.00  0.00    -0.089 HD
ENDBRANCH  30  31
BRANCH  30  35
ATOM     35  C   UNL     1      -1.515   2.049  -2.075  0.00  0.00    -0.007 C 
BRANCH  35  37
ATOM     36  C   UNL     1      -3.727   3.093  -1.567  0.00  0.00    +0.004 C 
ATOM     37  C   UNL     1      -2.605   2.985  -2.602  0.00  0.00    -0.005 C 
ENDBRANCH  35  37
ENDBRANCH  30  35
ENDBRANCH  25  30
ENDBRANCH  21  27
ENDBRANCH  20  23
ENDBRANCH   1  20
TORSDOF 8
