REMARK  Name = ZINC19310252
REMARK  7 active torsions:
REMARK  status: ('A' for Active; 'I' for Inactive)
REMARK    1  A    between atoms: C_1  and  C_2
REMARK    2  A    between atoms: C_4  and  O_5
REMARK    3  A    between atoms: C_14  and  C_16
REMARK    4  A    between atoms: C_21  and  O_22
REMARK    5  A    between atoms: O_22  and  C_23
REMARK    6  A    between atoms: C_23  and  C_24
REMARK    7  A    between atoms: C_27  and  C_29
REMARK                            x       y       z     vdW  Elec       q    Type
REMARK                         _______ _______ _______ _____ _____    ______ ____
ROOT
ATOM      1  C   UNL     1      -3.746   1.605   0.656  0.00  0.00    +0.045 C 
ATOM      2  C   UNL     1      -2.511   1.047  -0.003  0.00  0.00    -0.033 A 
ATOM      3  C   UNL     1      -2.537  -0.162  -0.623  0.00  0.00    +0.091 A 
ATOM      4  C   UNL     1      -1.369  -0.663  -1.233  0.00  0.00    +0.285 A 
ATOM      5  O   UNL     1      -0.217   0.026  -1.222  0.00  0.00    -0.425 OA
ATOM      6  C   UNL     1      -0.123   1.234  -0.624  0.00  0.00    +0.141 A 
ATOM      7  C   UNL     1      -1.250   1.790   0.010  0.00  0.00    +0.021 A 
ATOM      8  C   UNL     1      -1.159   3.043   0.627  0.00  0.00    +0.013 A 
ATOM      9  C   UNL     1       0.026   3.719   0.621  0.00  0.00    +0.024 A 
ATOM     10  C   UNL     1       1.148   3.170  -0.001  0.00  0.00    +0.037 A 
ATOM     11  C   UNL     1       1.074   1.932  -0.622  0.00  0.00    +0.070 A 
ATOM     12  N   UNL     1       2.353   3.872   0.001  0.00  0.00    -0.281 N 
ATOM     13  C   UNL     1       3.521   3.206   0.088  0.00  0.00    +0.252 C 
ATOM     14  O   UNL     1       3.529   1.990   0.082  0.00  0.00    -0.270 OA
ATOM     15  H   UNL     1       2.349   4.970  -0.069  0.00  0.00    +0.155 HD
ENDROOT
BRANCH  13  16
ATOM     16  C   UNL     1       4.789   3.951   0.192  0.00  0.00    +0.079 A 
ATOM     17  C   UNL     1       4.784   5.349   0.200  0.00  0.00    +0.017 A 
ATOM     18  C   UNL     1       5.973   6.039   0.297  0.00  0.00    +0.001 A 
ATOM     19  C   UNL     1       7.174   5.354   0.387  0.00  0.00    +0.004 A 
ATOM     20  C   UNL     1       7.193   3.974   0.381  0.00  0.00    +0.046 A 
ATOM     21  C   UNL     1       6.006   3.262   0.289  0.00  0.00    +0.133 A 
BRANCH  21  22
ATOM     22  O   UNL     1       6.023   1.906   0.287  0.00  0.00    -0.485 OA
BRANCH  22  23
ATOM     23  C   UNL     1       7.300   1.273   0.389  0.00  0.00    +0.285 C 
BRANCH  23  24
ATOM     24  C   UNL     1       7.122  -0.223   0.372  0.00  0.00    +0.086 A 
ATOM     25  C   UNL     1       5.885  -0.775   0.276  0.00  0.00    +0.073 A 
ATOM     26  S   UNL     1       6.299  -2.514   0.300  0.00  0.00    -0.080 S 
ATOM     27  C   UNL     1       8.021  -2.333   0.441  0.00  0.00    +0.076 A 
ATOM     28  N   UNL     1       8.161  -1.027   0.455  0.00  0.00    -0.246 NA
ATOM     29  C   UNL     1       9.081  -3.400   0.524  0.00  0.00    +0.073 C 
ENDBRANCH  23  24
ENDBRANCH  22  23
ENDBRANCH  21  22
ENDBRANCH  13  16
BRANCH   4  30
ATOM     30  O   UNL     1      -1.406  -1.748  -1.785  0.00  0.00    -0.480 OA
ATOM     31  H   UNL     1      -0.502  -2.151  -2.266  0.00  0.00    +0.295 HD
ENDBRANCH   4  30
TORSDOF 5
