REMARK  Name = ZINC11912225
REMARK  9 active torsions:
REMARK  status: ('A' for Active; 'I' for Inactive)
REMARK    1  A    between atoms: C_1  and  C_2
REMARK    2  A    between atoms: C_3  and  C_10
REMARK    3  A    between atoms: C_10  and  N_70
REMARK    4  A    between atoms: C_17  and  C_19
REMARK    5  A    between atoms: N_21  and  C_22
REMARK    6  A    between atoms: C_22  and  C_23
REMARK    7  A    between atoms: C_23  and  C_24
REMARK    8  A    between atoms: C_24  and  C_25
REMARK    9  A    between atoms: C_24  and  C_31
REMARK                            x       y       z     vdW  Elec       q    Type
REMARK                         _______ _______ _______ _____ _____    ______ ____
ROOT
ATOM      1  C   UNL     1      -0.190  -0.355  -3.615  0.00  0.00    -0.078 C 
ATOM      2  C   UNL     1      -0.571   0.520  -4.815  0.00  0.00    -0.011 C 
ATOM      3  C   UNL     1      -1.084   1.867  -4.295  0.00  0.00    -0.021 C 
ATOM      4  C   UNL     1      -0.156   2.562  -3.293  0.00  0.00    -0.011 C 
ATOM      5  C   UNL     1       0.201   1.567  -2.184  0.00  0.00    -0.078 C 
ATOM      6  C   UNL     1      -2.591   2.029  -4.102  0.00  0.00    +0.020 C 
ATOM      7  C   UNL     1      -1.884   2.745  -5.255  0.00  0.00    +0.082 C 
ATOM      8  N   UNL     1       0.810   0.367  -2.798  0.00  0.00    +0.383 N 
ATOM      9  H   UNL     1       1.585   0.661  -3.404  0.00  0.00    -0.081 HD
ENDROOT
BRANCH   7  10
ATOM     10  C   UNL     1      -2.118   2.219  -6.648  0.00  0.00    +0.217 C 
ATOM     11  O   UNL     1      -1.676   1.135  -6.969  0.00  0.00    -0.275 OA
ATOM     12  N   UNL     1      -2.817   2.952  -7.537  0.00  0.00    -0.315 N 
ATOM     13  H   UNL     1      -3.170   3.818  -7.280  0.00  0.00    +0.149 HD
BRANCH  12  14
ATOM     14  C   UNL     1      -3.044   2.441  -8.891  0.00  0.00    +0.105 C 
BRANCH  14  15
ATOM     15  C   UNL     1      -3.858   3.459  -9.691  0.00  0.00    +0.031 C 
BRANCH  15  16
ATOM     16  C   UNL     1      -4.096   2.925 -11.105  0.00  0.00    +0.050 C 
BRANCH  16  17
ATOM     17  C   UNL     1      -4.958   1.691 -11.037  0.00  0.00    -0.040 A 
ATOM     18  C   UNL     1      -4.553   0.530 -11.668  0.00  0.00    +0.004 A 
ATOM     19  C   UNL     1      -5.341  -0.604 -11.603  0.00  0.00    +0.000 A 
ATOM     20  C   UNL     1      -6.539  -0.573 -10.914  0.00  0.00    +0.000 A 
ATOM     21  C   UNL     1      -6.947   0.589 -10.287  0.00  0.00    +0.000 A 
ATOM     22  C   UNL     1      -6.156   1.722 -10.349  0.00  0.00    +0.004 A 
ENDBRANCH  16  17
BRANCH  16  23
ATOM     23  C   UNL     1      -4.790   3.978 -11.929  0.00  0.00    -0.040 A 
ATOM     24  C   UNL     1      -5.947   4.572 -11.460  0.00  0.00    +0.004 A 
ATOM     25  C   UNL     1      -6.581   5.541 -12.215  0.00  0.00    +0.000 A 
ATOM     26  C   UNL     1      -6.064   5.910 -13.442  0.00  0.00    +0.000 A 
ATOM     27  C   UNL     1      -4.910   5.312 -13.914  0.00  0.00    +0.000 A 
ATOM     28  C   UNL     1      -4.273   4.346 -13.157  0.00  0.00    +0.004 A 
ENDBRANCH  16  23
ENDBRANCH  15  16
ENDBRANCH  14  15
ENDBRANCH  12  14
ENDBRANCH   7  10
BRANCH   8  29
ATOM     29  C   UNL     1       1.337  -0.524  -1.745  0.00  0.00    -0.022 C 
BRANCH  29  32
ATOM     30  C   UNL     1      -0.534  -2.999  -2.003  0.00  0.00    +0.067 C 
ATOM     31  C   UNL     1       0.895  -2.920  -2.473  0.00  0.00    +0.059 A 
ATOM     32  C   UNL     1       1.702  -1.851  -2.359  0.00  0.00    +0.030 A 
ATOM     33  N   UNL     1       2.932  -2.188  -2.916  0.00  0.00    -0.299 N 
ATOM     34  C   UNL     1       4.160  -1.600  -3.128  0.00  0.00    +0.100 A 
ATOM     35  C   UNL     1       5.146  -2.274  -3.719  0.00  0.00    +0.067 A 
ATOM     36  S   UNL     1       4.378  -3.856  -4.028  0.00  0.00    -0.058 S 
ATOM     37  C   UNL     1       2.783  -3.483  -3.337  0.00  0.00    +0.178 A 
ATOM     38  N   UNL     1       1.581  -3.906  -3.072  0.00  0.00    -0.226 NA
ENDBRANCH  29  32
ENDBRANCH   8  29
TORSDOF 8
