REMARK  Name = ZINC38779625
REMARK  8 active torsions:
REMARK  status: ('A' for Active; 'I' for Inactive)
REMARK    1  A    between atoms: C_1  and  C_2
REMARK    2  A    between atoms: C_9  and  C_24
REMARK    3  A    between atoms: N_13  and  N_14
REMARK    4  A    between atoms: N_14  and  C_15
REMARK    5  A    between atoms: C_27  and  C_30
REMARK    6  A    between atoms: C_30  and  C_31
REMARK    7  A    between atoms: C_30  and  C_32
REMARK    8  A    between atoms: C_30  and  C_33
REMARK                            x       y       z     vdW  Elec       q    Type
REMARK                         _______ _______ _______ _____ _____    ______ ____
ROOT
ATOM      1  C   UNL     1      -0.018   1.503   0.010  0.00  0.00    +0.044 C 
ATOM      2  C   UNL     1       0.002  -0.004   0.002  0.00  0.00    -0.047 A 
ATOM      3  C   UNL     1       0.006  -0.683  -1.204  0.00  0.00    +0.004 A 
ATOM      4  C   UNL     1       0.026  -2.064  -1.222  0.00  0.00    +0.013 A 
ATOM      5  C   UNL     1       0.043  -2.767  -0.021  0.00  0.00    +0.040 A 
ATOM      6  C   UNL     1       0.035  -2.082   1.201  0.00  0.00    +0.131 A 
ATOM      7  C   UNL     1       0.023  -0.695   1.199  0.00  0.00    +0.049 A 
ATOM      8  O   UNL     1       0.039  -2.757   2.376  0.00  0.00    -0.483 OA
ATOM      9  C   UNL     1       0.531  -4.097   2.397  0.00  0.00    +0.209 C 
ATOM     10  C   UNL     1      -0.194  -4.922   1.323  0.00  0.00    +0.107 C 
ATOM     11  C   UNL     1       0.070  -4.247  -0.012  0.00  0.00    +0.073 C 
ATOM     12  N   UNL     1       0.307  -4.932  -1.088  0.00  0.00    -0.188 NA
ENDROOT
BRANCH   9  13
ATOM     13  C   UNL     1       0.278  -4.704   3.753  0.00  0.00    -0.007 A 
ATOM     14  C   UNL     1      -0.914  -4.460   4.409  0.00  0.00    +0.007 A 
ATOM     15  C   UNL     1      -1.146  -5.017   5.652  0.00  0.00    +0.004 A 
ATOM     16  C   UNL     1      -0.186  -5.819   6.240  0.00  0.00    -0.042 A 
ATOM     17  C   UNL     1       1.006  -6.064   5.584  0.00  0.00    +0.004 A 
ATOM     18  C   UNL     1       1.236  -5.511   4.339  0.00  0.00    +0.007 A 
BRANCH  16  19
ATOM     19  C   UNL     1      -0.438  -6.425   7.596  0.00  0.00    -0.013 C 
ATOM     20  C   UNL     1      -1.678  -7.319   7.533  0.00  0.00    +0.015 C 
ATOM     21  C   UNL     1       0.773  -7.262   8.014  0.00  0.00    +0.015 C 
ATOM     22  C   UNL     1      -0.666  -5.311   8.619  0.00  0.00    +0.015 C 
ENDBRANCH  16  19
ENDBRANCH   9  13
BRANCH  12  23
ATOM     23  N   UNL     1       0.325  -6.332  -1.038  0.00  0.00    -0.229 N 
ATOM     24  H   UNL     1       0.160  -6.790  -0.199  0.00  0.00    +0.172 HD
BRANCH  23  25
ATOM     25  C   UNL     1       0.593  -7.106  -2.253  0.00  0.00    +0.283 C 
ATOM     26  N   UNL     1      -0.670  -7.461  -2.913  0.00  0.00    -0.347 N 
ATOM     27  C   UNL     1      -0.739  -8.760  -2.949  0.00  0.00    +0.061 A 
ATOM     28  C   UNL     1      -1.746  -9.693  -3.475  0.00  0.00    +0.027 A 
ATOM     29  C   UNL     1      -1.542 -11.021  -3.369  0.00  0.00    +0.002 A 
ATOM     30  C   UNL     1      -0.393 -11.566  -2.768  0.00  0.00    +0.002 A 
ATOM     31  C   UNL     1       0.591 -10.801  -2.254  0.00  0.00    +0.027 A 
ATOM     32  C   UNL     1       0.477  -9.337  -2.314  0.00  0.00    +0.061 A 
ATOM     33  N   UNL     1       1.251  -8.372  -1.909  0.00  0.00    -0.347 N 
ATOM     34  H   UNL     1      -1.332  -6.841  -3.257  0.00  0.00    +0.163 HD
ATOM     35  H   UNL     1       2.107  -8.472  -1.463  0.00  0.00    +0.163 HD
ENDBRANCH  23  25
ENDBRANCH  12  23
TORSDOF 4
