REMARK  Name = ZINC10323280
REMARK  8 active torsions:
REMARK  status: ('A' for Active; 'I' for Inactive)
REMARK    1  A    between atoms: C_1  and  C_2
REMARK    2  A    between atoms: C_2  and  N_3
REMARK    3  A    between atoms: N_3  and  C_4
REMARK    4  A    between atoms: N_3  and  C_6
REMARK    5  A    between atoms: C_4  and  C_5
REMARK    6  A    between atoms: C_9  and  C_12
REMARK    7  A    between atoms: C_15  and  S_17
REMARK    8  A    between atoms: S_17  and  C_18
REMARK                            x       y       z     vdW  Elec       q    Type
REMARK                         _______ _______ _______ _____ _____    ______ ____
ROOT
ATOM      1  C   UNL     1       1.244  -0.423  -0.012  0.00  0.00    +0.249 A 
ATOM      2  N   UNL     1       0.002  -0.004   0.002  0.00  0.00    -0.106 NA
ATOM      3  N   UNL     1      -0.015   1.282   0.009  0.00  0.00    -0.101 NA
ATOM      4  C   UNL     1       1.216   1.736  -0.000  0.00  0.00    +0.278 A 
ATOM      5  O   UNL     1       2.039   0.670  -0.014  0.00  0.00    -0.411 OA
ENDROOT
BRANCH   1   9
ATOM      6  C   UNL     1       2.533  -4.471  -0.046  0.00  0.00    +0.030 A 
ATOM      7  C   UNL     1       1.174  -4.176  -0.032  0.00  0.00    +0.024 A 
ATOM      8  C   UNL     1       0.753  -2.864  -0.021  0.00  0.00    +0.015 A 
ATOM      9  C   UNL     1       1.692  -1.830  -0.024  0.00  0.00    +0.039 A 
ATOM     10  C   UNL     1       3.056  -2.130  -0.044  0.00  0.00    +0.015 A 
ATOM     11  C   UNL     1       3.471  -3.444  -0.049  0.00  0.00    +0.024 A 
BRANCH   6  12
ATOM     12  N   UNL     1       2.957  -5.801  -0.057  0.00  0.00    -0.330 N 
BRANCH  12  14
ATOM     13  C   UNL     1       4.899  -6.230   1.365  0.00  0.00    +0.024 C 
ATOM     14  C   UNL     1       4.388  -6.114  -0.072  0.00  0.00    +0.102 C 
ENDBRANCH  12  14
BRANCH  12  15
ATOM     15  C   UNL     1       1.970  -6.884  -0.054  0.00  0.00    +0.102 C 
ATOM     16  C   UNL     1       1.613  -7.253  -1.496  0.00  0.00    +0.024 C 
ENDBRANCH  12  15
ENDBRANCH   6  12
ENDBRANCH   1   9
BRANCH   4  17
ATOM     17  S   UNL     1       1.703   3.429   0.004  0.00  0.00    -0.053 S 
BRANCH  17  18
ATOM     18  C   UNL     1       0.077   4.224   0.024  0.00  0.00    +0.141 C 
ATOM     19  C   UNL     1       0.248   5.742   0.131  0.00  0.00    +0.024 C 
ATOM     20  C   UNL     1      -0.987   6.380   0.742  0.00  0.00    +0.003 C 
ATOM     21  C   UNL     1      -2.223   6.284  -0.134  0.00  0.00    +0.019 C 
ATOM     22  C   UNL     1      -2.683   4.831  -0.270  0.00  0.00    +0.104 C 
ATOM     23  N   UNL     1      -1.952   4.208  -1.385  0.00  0.00    -0.314 N 
ATOM     24  C   UNL     1      -0.657   3.913  -1.263  0.00  0.00    +0.226 C 
ATOM     25  O   UNL     1      -0.066   3.394  -2.186  0.00  0.00    -0.275 OA
ATOM     26  H   UNL     1      -2.416   4.010  -2.214  0.00  0.00    +0.149 HD
ENDBRANCH  17  18
ENDBRANCH   4  17
TORSDOF 6
