REMARK  Name = ZINC39197544
REMARK  10 active torsions:
REMARK  status: ('A' for Active; 'I' for Inactive)
REMARK    1  A    between atoms: C_1  and  C_2
REMARK    2  A    between atoms: C_2  and  C_3
REMARK    3  A    between atoms: C_8  and  N_9
REMARK    4  A    between atoms: C_10  and  C_32
REMARK    5  A    between atoms: C_12  and  C_14
REMARK    6  A    between atoms: N_16  and  C_17
REMARK    7  A    between atoms: C_17  and  C_19
REMARK    8  A    between atoms: C_17  and  C_20
REMARK    9  A    between atoms: N_22  and  C_23
REMARK   10  A    between atoms: C_28  and  C_31
REMARK                            x       y       z     vdW  Elec       q    Type
REMARK                         _______ _______ _______ _____ _____    ______ ____
ROOT
ATOM      1  N   UNL     1       3.001  -0.385  -0.152  0.00  0.00    -0.231 N 
ATOM      2  C   UNL     1       4.327  -0.076  -0.272  0.00  0.00    +0.075 A 
ATOM      3  C   UNL     1       4.690   0.561   0.882  0.00  0.00    +0.063 A 
ATOM      4  C   UNL     1       3.519   0.607   1.671  0.00  0.00    +0.148 A 
ATOM      5  N   UNL     1       2.557   0.027   0.981  0.00  0.00    -0.161 NA
ENDROOT
BRANCH   2   6
ATOM      6  C   UNL     1       5.202  -0.375  -1.427  0.00  0.00    +0.002 A 
ATOM      7  C   UNL     1       4.645  -0.580  -2.690  0.00  0.00    +0.014 A 
ATOM      8  C   UNL     1       5.459  -0.858  -3.769  0.00  0.00    +0.048 A 
ATOM      9  C   UNL     1       6.832  -0.934  -3.601  0.00  0.00    +0.142 A 
ATOM     10  C   UNL     1       7.395  -0.730  -2.340  0.00  0.00    +0.076 A 
ATOM     11  C   UNL     1       6.585  -0.446  -1.257  0.00  0.00    +0.037 A 
ATOM     12  N   UNL     1       8.787  -0.811  -2.190  0.00  0.00    -0.280 N 
ATOM     13  C   UNL     1       9.569  -0.768  -3.291  0.00  0.00    +0.255 C 
ATOM     14  O   UNL     1      10.773  -0.867  -3.187  0.00  0.00    -0.272 OA
ATOM     15  C   UNL     1       8.937  -0.596  -4.649  0.00  0.00    +0.325 C 
ATOM     16  O   UNL     1       7.644  -1.206  -4.658  0.00  0.00    -0.481 OA
ATOM     17  H   UNL     1       9.183  -0.898  -1.308  0.00  0.00    +0.155 HD
ENDBRANCH   2   6
BRANCH   1  23
ATOM     18  C   UNL     1       1.101  -0.445  -1.642  0.00  0.00    -0.022 A 
ATOM     19  C   UNL     1       0.354  -1.097  -2.604  0.00  0.00    +0.006 A 
ATOM     20  C   UNL     1       0.736  -2.351  -3.045  0.00  0.00    +0.000 A 
ATOM     21  C   UNL     1       1.867  -2.955  -2.525  0.00  0.00    +0.002 A 
ATOM     22  C   UNL     1       2.617  -2.308  -1.563  0.00  0.00    +0.028 A 
ATOM     23  C   UNL     1       2.239  -1.046  -1.123  0.00  0.00    +0.069 A 
BRANCH  18  25
ATOM     24  C   UNL     1       1.512   1.989  -1.878  0.00  0.00    +0.009 C 
ATOM     25  C   UNL     1       0.683   0.921  -1.162  0.00  0.00    +0.034 C 
ENDBRANCH  18  25
ENDBRANCH   1  23
BRANCH   4  26
ATOM     26  C   UNL     1       3.395   1.199   3.018  0.00  0.00    +0.265 C 
ATOM     27  O   UNL     1       4.362   1.711   3.549  0.00  0.00    -0.268 OA
ATOM     28  N   UNL     1       2.210   1.173   3.659  0.00  0.00    -0.299 N 
ATOM     29  H   UNL     1       1.439   0.764   3.236  0.00  0.00    +0.150 HD
BRANCH  28  30
ATOM     30  C   UNL     1       2.087   1.760   4.995  0.00  0.00    +0.156 C 
ATOM     31  C   UNL     1       1.819   3.261   4.870  0.00  0.00    +0.038 C 
BRANCH  30  32
ATOM     32  C   UNL     1       0.945   1.106   5.729  0.00  0.00    +0.233 C 
ATOM     33  O   UNL     1       0.297   0.234   5.188  0.00  0.00    -0.274 OA
ATOM     34  N   UNL     1       0.642   1.489   6.985  0.00  0.00    -0.311 N 
ATOM     35  H   UNL     1       1.160   2.186   7.417  0.00  0.00    +0.149 HD
BRANCH  34  36
ATOM     36  C   UNL     1      -0.468   0.853   7.698  0.00  0.00    +0.073 C 
ATOM     37  C   UNL     1      -1.779   1.550   7.327  0.00  0.00    +0.022 C 
ATOM     38  C   UNL     1      -2.938   0.885   8.071  0.00  0.00    +0.002 C 
ATOM     39  C   UNL     1      -2.709   1.000   9.580  0.00  0.00    +0.003 C 
ATOM     40  C   UNL     1      -1.398   0.303   9.951  0.00  0.00    -0.012 C 
ATOM     41  C   UNL     1      -0.239   0.968   9.206  0.00  0.00    +0.025 C 
ATOM     42  C   UNL     1      -1.169   0.418  11.459  0.00  0.00    +0.007 C 
ENDBRANCH  34  36
ENDBRANCH  30  32
ENDBRANCH  28  30
ENDBRANCH   4  26
TORSDOF 7
