REMARK  Name = ZINC15970413
REMARK  11 active torsions:
REMARK  status: ('A' for Active; 'I' for Inactive)
REMARK    1  A    between atoms: C_1  and  C_2
REMARK    2  A    between atoms: C_2  and  C_3
REMARK    3  A    between atoms: C_2  and  C_4
REMARK    4  A    between atoms: C_4  and  C_5
REMARK    5  A    between atoms: C_5  and  N_6
REMARK    6  A    between atoms: C_7  and  C_9
REMARK    7  A    between atoms: C_9  and  C_11
REMARK    8  A    between atoms: C_9  and  N_14
REMARK    9  A    between atoms: C_11  and  C_12
REMARK   10  A    between atoms: C_11  and  C_13
REMARK   11  A    between atoms: C_15  and  C_17
REMARK                            x       y       z     vdW  Elec       q    Type
REMARK                         _______ _______ _______ _____ _____    ______ ____
ROOT
ATOM      1  C   UNL     1      -9.270   1.723  -3.555  0.00  0.00    +0.167 C 
ATOM      2  C   UNL     1      -9.753   0.534  -4.397  0.00  0.00    +0.069 C 
ATOM      3  C   UNL     1     -10.759   0.992  -5.421  0.00  0.00    -0.015 A 
ATOM      4  C   UNL     1     -11.224   0.258  -6.584  0.00  0.00    +0.003 A 
ATOM      5  C   UNL     1     -10.905  -1.006  -7.091  0.00  0.00    +0.010 A 
ATOM      6  C   UNL     1     -11.551  -1.394  -8.239  0.00  0.00    +0.001 A 
ATOM      7  C   UNL     1     -12.476  -0.581  -8.873  0.00  0.00    +0.002 A 
ATOM      8  C   UNL     1     -12.810   0.673  -8.393  0.00  0.00    +0.026 A 
ATOM      9  C   UNL     1     -12.169   1.094  -7.229  0.00  0.00    +0.047 A 
ATOM     10  N   UNL     1     -12.258   2.244  -6.499  0.00  0.00    -0.356 N 
ATOM     11  H   UNL     1     -12.836   2.995  -6.708  0.00  0.00    +0.166 HD
ATOM     12  C   UNL     1     -11.409   2.178  -5.428  0.00  0.00    +0.046 A 
ATOM     13  C   UNL     1     -11.187   3.242  -4.381  0.00  0.00    +0.155 C 
ATOM     14  N   UNL     1     -10.426   2.586  -3.291  0.00  0.00    -0.273 N 
ATOM     15  C   UNL     1     -11.006   2.891  -2.123  0.00  0.00    +0.248 C 
ATOM     16  O   UNL     1     -10.524   2.684  -1.027  0.00  0.00    -0.270 OA
ATOM     17  C   UNL     1     -12.311   3.515  -2.368  0.00  0.00    +0.042 A 
ATOM     18  C   UNL     1     -12.457   3.710  -3.757  0.00  0.00    -0.009 A 
ATOM     19  C   UNL     1     -13.609   4.242  -4.292  0.00  0.00    +0.006 A 
ATOM     20  C   UNL     1     -14.618   4.594  -3.400  0.00  0.00    +0.000 A 
ATOM     21  C   UNL     1     -14.479   4.418  -2.038  0.00  0.00    +0.001 A 
ATOM     22  C   UNL     1     -13.329   3.877  -1.483  0.00  0.00    +0.013 A 
ENDROOT
BRANCH   1  24
ATOM     23  N   UNL     1      -7.373   1.327  -2.018  0.00  0.00    -0.302 N 
ATOM     24  C   UNL     1      -8.696   1.228  -2.253  0.00  0.00    +0.235 C 
ATOM     25  O   UNL     1      -9.425   0.739  -1.416  0.00  0.00    -0.274 OA
ATOM     26  H   UNL     1      -6.790   1.718  -2.688  0.00  0.00    +0.150 HD
BRANCH  23  27
ATOM     27  C   UNL     1      -6.815   0.845  -0.752  0.00  0.00    +0.161 C 
BRANCH  27  29
ATOM     28  N   UNL     1      -5.112   1.720   0.815  0.00  0.00    -0.314 N 
ATOM     29  C   UNL     1      -5.530   1.577  -0.458  0.00  0.00    +0.234 C 
ATOM     30  O   UNL     1      -4.873   2.037  -1.368  0.00  0.00    -0.274 OA
ATOM     31  H   UNL     1      -5.671   1.412   1.546  0.00  0.00    +0.149 HD
BRANCH  28  32
ATOM     32  C   UNL     1      -3.815   2.340   1.095  0.00  0.00    +0.104 C 
BRANCH  32  33
ATOM     33  C   UNL     1      -3.584   2.380   2.607  0.00  0.00    +0.022 C 
BRANCH  33  35
ATOM     34  C   UNL     1      -1.111   2.143   2.342  0.00  0.00    +0.007 C 
ATOM     35  C   UNL     1      -2.229   3.027   2.899  0.00  0.00    -0.016 C 
ATOM     36  C   UNL     1      -2.053   3.181   4.411  0.00  0.00    +0.007 C 
ENDBRANCH  33  35
ENDBRANCH  32  33
ENDBRANCH  28  32
ENDBRANCH  27  29
BRANCH  27  37
ATOM     37  C   UNL     1      -6.534  -0.655  -0.857  0.00  0.00    +0.012 C 
ATOM     38  C   UNL     1      -5.865  -1.140   0.430  0.00  0.00    +0.009 C 
ATOM     39  C   UNL     1      -7.851  -1.407  -1.061  0.00  0.00    +0.009 C 
ENDBRANCH  27  37
ENDBRANCH  23  27
ENDBRANCH   1  24
TORSDOF 7
