REMARK  Name = ZINC14461290
REMARK  7 active torsions:
REMARK  status: ('A' for Active; 'I' for Inactive)
REMARK    1  A    between atoms: C_1  and  C_2
REMARK    2  A    between atoms: C_2  and  C_3
REMARK    3  A    between atoms: C_3  and  C_5
REMARK    4  A    between atoms: C_3  and  N_6
REMARK    5  A    between atoms: C_7  and  C_9
REMARK    6  A    between atoms: C_22  and  C_25
REMARK    7  A    between atoms: C_30  and  O_31
REMARK                            x       y       z     vdW  Elec       q    Type
REMARK                         _______ _______ _______ _____ _____    ______ ____
ROOT
ATOM      1  C   UNL     1       1.907  -1.505   3.073  0.00  0.00    +0.037 A 
ATOM      2  C   UNL     1       2.943  -0.881   3.775  0.00  0.00    +0.015 A 
ATOM      3  C   UNL     1       3.581  -1.559   4.788  0.00  0.00    +0.024 A 
ATOM      4  C   UNL     1       3.198  -2.858   5.111  0.00  0.00    +0.031 A 
ATOM      5  C   UNL     1       2.171  -3.489   4.418  0.00  0.00    -0.019 A 
ATOM      6  C   UNL     1       1.524  -2.804   3.404  0.00  0.00    +0.019 A 
ATOM      7  C   UNL     1       1.731  -4.883   4.733  0.00  0.00    +0.049 C 
ATOM      8  C   UNL     1       0.416  -4.892   5.475  0.00  0.00    -0.023 C 
ATOM      9  C   UNL     1       0.404  -5.853   6.366  0.00  0.00    -0.030 C 
ATOM     10  C   UNL     1       1.710  -6.622   6.336  0.00  0.00    +0.033 C 
ATOM     11  C   UNL     1       2.703  -5.621   5.675  0.00  0.00    +0.029 C 
ATOM     12  C   UNL     1       3.190  -4.670   6.771  0.00  0.00    +0.108 C 
ATOM     13  N   UNL     1       3.856  -3.524   6.143  0.00  0.00    -0.336 N 
ATOM     14  H   UNL     1       4.734  -3.236   6.440  0.00  0.00    +0.147 HD
ENDROOT
BRANCH  12  15
ATOM     15  C   UNL     1       2.016  -4.188   7.583  0.00  0.00    +0.015 A 
ATOM     16  C   UNL     1       1.330  -3.051   7.200  0.00  0.00    +0.024 A 
ATOM     17  C   UNL     1       0.252  -2.609   7.946  0.00  0.00    +0.018 A 
ATOM     18  C   UNL     1      -0.142  -3.304   9.076  0.00  0.00    +0.019 A 
ATOM     19  C   UNL     1       0.541  -4.441   9.462  0.00  0.00    +0.047 A 
ATOM     20  C   UNL     1       1.619  -4.889   8.713  0.00  0.00    +0.122 A 
ATOM     21 BR   UNL     1      -0.686  -1.054   7.419  0.00  0.00    -0.050 Br
BRANCH  20  22
ATOM     22  O   UNL     1       2.289  -6.011   9.087  0.00  0.00    -0.506 OA
ATOM     23  H   UNL     1       3.026  -5.846   9.691  0.00  0.00    +0.292 HD
ENDBRANCH  20  22
ENDBRANCH  12  15
BRANCH   1  25
ATOM     24  N   UNL     1       1.583   0.471   1.669  0.00  0.00    -0.309 N 
ATOM     25  C   UNL     1       1.216  -0.786   1.986  0.00  0.00    +0.244 C 
ATOM     26  O   UNL     1       0.315  -1.329   1.375  0.00  0.00    -0.270 OA
ATOM     27  H   UNL     1       2.301   0.904   2.156  0.00  0.00    +0.149 HD
BRANCH  24  28
ATOM     28  C   UNL     1       0.896   1.185   0.590  0.00  0.00    +0.070 C 
ATOM     29  C   UNL     1       1.535   0.818  -0.751  0.00  0.00    +0.028 C 
BRANCH  28  31
ATOM     30  C   UNL     1       0.271   3.078   2.095  0.00  0.00    +0.005 C 
ATOM     31  C   UNL     1       1.018   2.693   0.817  0.00  0.00    +0.018 C 
ENDBRANCH  28  31
ENDBRANCH  24  28
ENDBRANCH   1  25
TORSDOF 5
