REMARK  Name = ZINC09153014
REMARK  8 active torsions:
REMARK  status: ('A' for Active; 'I' for Inactive)
REMARK    1  A    between atoms: C_1  and  N_72
REMARK    2  A    between atoms: C_2  and  C_3
REMARK    3  A    between atoms: C_2  and  N_72
REMARK    4  A    between atoms: C_3  and  C_4
REMARK    5  A    between atoms: C_4  and  N_5
REMARK    6  A    between atoms: C_6  and  C_8
REMARK    7  A    between atoms: C_29  and  C_30
REMARK    8  A    between atoms: C_29  and  N_72
REMARK                            x       y       z     vdW  Elec       q    Type
REMARK                         _______ _______ _______ _____ _____    ______ ____
ROOT
ATOM      1  C   UNL     1       6.637  -0.317   3.160  0.00  0.00    +0.092 C 
ATOM      2  C   UNL     1       6.768   1.208   3.126  0.00  0.00    +0.016 C 
ATOM      3  C   UNL     1       8.252   1.586   3.111  0.00  0.00    +0.020 C 
ATOM      4  C   UNL     1       8.939   0.987   4.340  0.00  0.00    +0.106 C 
ATOM      5  N   UNL     1       8.786  -0.473   4.325  0.00  0.00    -0.313 N 
ATOM      6  C   UNL     1       7.371  -0.860   4.388  0.00  0.00    +0.119 C 
ATOM      7  C   UNL     1       9.506  -1.058   5.353  0.00  0.00    +0.152 A 
ATOM      8  C   UNL     1      10.886  -0.825   5.487  0.00  0.00    +0.148 A 
ATOM      9  C   UNL     1      11.563  -1.444   6.551  0.00  0.00    +0.166 A 
ATOM     10  N   UNL     1      10.880  -2.222   7.385  0.00  0.00    -0.216 NA
ATOM     11  C   UNL     1       9.588  -2.412   7.220  0.00  0.00    +0.225 A 
ATOM     12  N   UNL     1       8.908  -1.847   6.238  0.00  0.00    -0.218 NA
ATOM     13  N   UNL     1      12.873  -1.054   6.442  0.00  0.00    -0.312 N 
ATOM     14  C   UNL     1      12.970  -0.228   5.361  0.00  0.00    +0.112 A 
ATOM     15  N   UNL     1      11.800  -0.099   4.801  0.00  0.00    -0.227 NA
ATOM     16  C   UNL     1      14.240   0.439   4.891  0.00  0.00    +0.074 C 
ATOM     17  C   UNL     1      15.372  -0.591   4.858  0.00  0.00    +0.008 C 
ATOM     18  C   UNL     1      16.059  -0.637   6.219  0.00  0.00    +0.002 C 
ATOM     19  C   UNL     1      15.050  -0.374   7.335  0.00  0.00    +0.022 C 
ATOM     20  C   UNL     1      13.973  -1.462   7.321  0.00  0.00    +0.125 C 
ENDROOT
BRANCH   1  22
ATOM     21  N   UNL     1       4.335  -0.320   2.256  0.00  0.00    -0.315 N 
ATOM     22  C   UNL     1       5.180  -0.696   3.236  0.00  0.00    +0.218 C 
ATOM     23  O   UNL     1       4.769  -1.338   4.179  0.00  0.00    -0.275 OA
ATOM     24  H   UNL     1       4.663   0.194   1.502  0.00  0.00    +0.149 HD
BRANCH  21  25
ATOM     25  C   UNL     1       2.918  -0.688   2.330  0.00  0.00    +0.102 C 
BRANCH  25  26
ATOM     26  C   UNL     1       2.185  -0.143   1.103  0.00  0.00    +0.000 C 
BRANCH  26  27
ATOM     27  C   UNL     1       0.706  -0.527   1.180  0.00  0.00    -0.077 C 
BRANCH  27  29
ATOM     28  C   UNL     1      -0.018   1.465   0.010  0.00  0.00    -0.096 C 
ATOM     29  N   UNL     1       0.017  -0.013  -0.021  0.00  0.00    +0.381 N 
ATOM     30  H   UNL     1       0.530  -0.317  -0.857  0.00  0.00    -0.082 HD
BRANCH  29  31
ATOM     31  C   UNL     1      -1.360  -0.549  -0.083  0.00  0.00    -0.043 C 
BRANCH  31  32
ATOM     32  C   UNL     1      -1.962  -0.191  -1.417  0.00  0.00    -0.064 A 
ATOM     33  C   UNL     1      -2.677   0.984  -1.560  0.00  0.00    +0.002 A 
ATOM     34  C   UNL     1      -3.225   1.314  -2.785  0.00  0.00    +0.000 A 
ATOM     35  C   UNL     1      -3.067   0.465  -3.865  0.00  0.00    +0.000 A 
ATOM     36  C   UNL     1      -2.356  -0.712  -3.720  0.00  0.00    +0.000 A 
ATOM     37  C   UNL     1      -1.804  -1.040  -2.496  0.00  0.00    +0.002 A 
ENDBRANCH  31  32
ENDBRANCH  29  31
ENDBRANCH  27  29
ENDBRANCH  26  27
ENDBRANCH  25  26
ENDBRANCH  21  25
ENDBRANCH   1  22
TORSDOF 7
