REMARK  Name = ZINC01101566
REMARK  9 active torsions:
REMARK  status: ('A' for Active; 'I' for Inactive)
REMARK    1  A    between atoms: C_1  and  C_2
REMARK    2  A    between atoms: C_5  and  C_28
REMARK    3  A    between atoms: C_6  and  O_8
REMARK    4  A    between atoms: O_8  and  C_9
REMARK    5  A    between atoms: C_9  and  C_10
REMARK    6  A    between atoms: C_13  and  C_23
REMARK    7  A    between atoms: C_13  and  O_27
REMARK    8  A    between atoms: C_28  and  C_29
REMARK    9  A    between atoms: C_28  and  C_30
REMARK                            x       y       z     vdW  Elec       q    Type
REMARK                         _______ _______ _______ _____ _____    ______ ____
ROOT
ATOM      1  C   UNL     1      -4.822   4.340   0.068  0.00  0.00    +0.275 C 
ATOM      2  O   UNL     1      -4.678   5.544   0.071  0.00  0.00    -0.270 OA
ATOM      3  N   UNL     1      -6.061   3.809   0.077  0.00  0.00    -0.149 N 
ATOM      4  C   UNL     1      -7.320   4.571   0.097  0.00  0.00    +0.259 C 
ATOM      5  C   UNL     1      -8.404   3.471  -0.008  0.00  0.00    +0.096 C 
ATOM      6  C   UNL     1      -9.098   3.602  -1.341  0.00  0.00    +0.014 C 
ATOM      7  C   UNL     1     -10.340   2.820  -1.566  0.00  0.00    +0.001 C 
ATOM      8  C   UNL     1     -10.418   1.432  -1.008  0.00  0.00    +0.000 C 
ATOM      9  C   UNL     1      -9.165   0.618  -1.058  0.00  0.00    +0.006 C 
ATOM     10  C   UNL     1      -8.242   0.823   0.124  0.00  0.00    +0.053 C 
ATOM     11  C   UNL     1      -7.602   2.186   0.063  0.00  0.00    +0.045 C 
ATOM     12  N   UNL     1      -6.362   2.450   0.074  0.00  0.00    -0.183 NA
ENDROOT
BRANCH   4  13
ATOM     13  C   UNL     1      -7.460   5.347   1.409  0.00  0.00    +0.438 C 
ATOM     14  F   UNL     1      -6.407   6.261   1.524  0.00  0.00    -0.166 F 
ATOM     15  F   UNL     1      -8.678   6.034   1.416  0.00  0.00    -0.166 F 
ATOM     16  F   UNL     1      -7.422   4.454   2.485  0.00  0.00    -0.166 F 
ENDBRANCH   4  13
BRANCH   4  17
ATOM     17  O   UNL     1      -7.392   5.455  -1.023  0.00  0.00    -0.363 OA
ATOM     18  H   UNL     1      -6.690   6.120  -1.045  0.00  0.00    +0.212 HD
ENDBRANCH   4  17
BRANCH   1  19
ATOM     19  C   UNL     1      -3.616   3.436   0.053  0.00  0.00    +0.326 C 
BRANCH  19  20
ATOM     20  O   UNL     1      -2.427   4.229   0.045  0.00  0.00    -0.482 OA
BRANCH  20  26
ATOM     21  C   UNL     1       0.002  -0.004   0.002  0.00  0.00    +0.044 C 
ATOM     22  C   UNL     1      -0.018   1.503   0.010  0.00  0.00    -0.047 A 
ATOM     23  C   UNL     1       1.170   2.210   0.003  0.00  0.00    +0.004 A 
ATOM     24  C   UNL     1       1.155   3.592   0.009  0.00  0.00    +0.008 A 
ATOM     25  C   UNL     1      -0.049   4.271   0.024  0.00  0.00    -0.003 A 
ATOM     26  C   UNL     1      -1.242   3.564   0.032  0.00  0.00    +0.125 A 
ATOM     27  C   UNL     1      -1.224   2.176   0.020  0.00  0.00    +0.049 A 
BRANCH  25  28
ATOM     28  C   UNL     1      -0.065   5.778   0.031  0.00  0.00    +0.016 C 
ATOM     29  C   UNL     1       0.662   6.290   1.276  0.00  0.00    +0.012 C 
ATOM     30  C   UNL     1       0.639   6.301  -1.222  0.00  0.00    +0.012 C 
ENDBRANCH  25  28
ENDBRANCH  20  26
ENDBRANCH  19  20
ENDBRANCH   1  19
TORSDOF 6
