REMARK  Name = ZINC15004710
REMARK  10 active torsions:
REMARK  status: ('A' for Active; 'I' for Inactive)
REMARK    1  A    between atoms: C_1  and  C_2
REMARK    2  A    between atoms: C_2  and  O_3
REMARK    3  A    between atoms: O_3  and  C_4
REMARK    4  A    between atoms: C_4  and  C_6
REMARK    5  A    between atoms: C_12  and  C_13
REMARK    6  A    between atoms: C_12  and  N_65
REMARK    7  A    between atoms: C_17  and  O_19
REMARK    8  A    between atoms: O_19  and  C_20
REMARK    9  A    between atoms: N_23  and  S_26
REMARK   10  A    between atoms: S_26  and  C_29
REMARK                            x       y       z     vdW  Elec       q    Type
REMARK                         _______ _______ _______ _____ _____    ______ ____
ROOT
ATOM      1  C   UNL     1       1.903   0.277   1.108  0.00  0.00    -0.060 A 
ATOM      2  C   UNL     1       0.759  -0.471   0.899  0.00  0.00    +0.002 A 
ATOM      3  C   UNL     1      -0.481   0.057   1.204  0.00  0.00    +0.004 A 
ATOM      4  C   UNL     1      -0.580   1.331   1.729  0.00  0.00    +0.045 A 
ATOM      5  C   UNL     1       0.565   2.084   1.940  0.00  0.00    +0.121 A 
ATOM      6  C   UNL     1       1.809   1.553   1.628  0.00  0.00    +0.047 A 
ENDROOT
BRANCH   1   7
ATOM      7  C   UNL     1       3.253  -0.300   0.769  0.00  0.00    -0.042 C 
BRANCH   7  13
ATOM      8  C   UNL     1       5.022  -0.174  -0.880  0.00  0.00    +0.043 C 
ATOM      9  C   UNL     1       5.362   0.312  -2.290  0.00  0.00    -0.004 C 
ATOM     10  C   UNL     1       4.527  -0.468  -3.309  0.00  0.00    -0.003 C 
ATOM     11  C   UNL     1       3.041  -0.281  -2.991  0.00  0.00    -0.019 C 
ATOM     12  C   UNL     1       2.768  -0.750  -1.560  0.00  0.00    -0.077 C 
ATOM     13  N   UNL     1       3.583   0.056  -0.627  0.00  0.00    +0.391 N 
ATOM     14  H   UNL     1       3.375   1.051  -0.775  0.00  0.00    -0.080 HD
BRANCH   8  15
ATOM     15  C   UNL     1       5.827   0.605   0.128  0.00  0.00    +0.293 C 
ATOM     16  O   UNL     1       5.387   1.631   0.590  0.00  0.00    -0.253 OA
BRANCH  15  17
ATOM     17  O   UNL     1       7.033   0.158   0.512  0.00  0.00    -0.466 OA
BRANCH  17  19
ATOM     18  C   UNL     1       9.096   0.298   1.799  0.00  0.00    +0.048 C 
ATOM     19  C   UNL     1       7.753   0.960   1.486  0.00  0.00    +0.228 C 
ENDBRANCH  17  19
ENDBRANCH  15  17
ENDBRANCH   8  15
ENDBRANCH   7  13
ENDBRANCH   1   7
BRANCH   5  20
ATOM     20  O   UNL     1       0.470   3.340   2.452  0.00  0.00    -0.489 OA
BRANCH  20  21
ATOM     21  C   UNL     1       1.677   4.101   2.532  0.00  0.00    +0.176 C 
ATOM     22  C   UNL     1       2.421   3.742   3.820  0.00  0.00    +0.061 C 
ATOM     23  C   UNL     1       3.731   4.535   3.885  0.00  0.00    +0.113 C 
ATOM     24  N   UNL     1       3.426   5.965   3.743  0.00  0.00    -0.176 NA
ATOM     25  C   UNL     1       2.636   6.407   2.585  0.00  0.00    +0.113 C 
ATOM     26  C   UNL     1       1.339   5.593   2.534  0.00  0.00    +0.061 C 
BRANCH  24  27
ATOM     27  S   UNL     1       3.962   7.058   4.865  0.00  0.00    +0.067 S 
ATOM     28  O   UNL     1       5.096   6.474   5.491  0.00  0.00    -0.152 OA
ATOM     29  O   UNL     1       4.017   8.318   4.210  0.00  0.00    -0.152 OA
BRANCH  27  30
ATOM     30  C   UNL     1       2.715   7.188   6.103  0.00  0.00    +0.143 A 
ATOM     31  C   UNL     1       2.563   6.468   7.241  0.00  0.00    +0.036 A 
ATOM     32  C   UNL     1       1.498   6.750   8.076  0.00  0.00    +0.010 A 
ATOM     33  C   UNL     1       0.631   7.731   7.727  0.00  0.00    +0.047 A 
ATOM     34  S   UNL     1       1.318   8.297   6.179  0.00  0.00    -0.077 S 
ENDBRANCH  27  30
ENDBRANCH  24  27
ENDBRANCH  20  21
ENDBRANCH   5  20
TORSDOF 9
