REMARK  Name = ZINC46071453
REMARK  7 active torsions:
REMARK  status: ('A' for Active; 'I' for Inactive)
REMARK    1  A    between atoms: C_1  and  C_2
REMARK    2  A    between atoms: C_2  and  C_3
REMARK    3  A    between atoms: C_3  and  N_4
REMARK    4  A    between atoms: C_5  and  C_7
REMARK    5  A    between atoms: N_10  and  S_18
REMARK    6  A    between atoms: S_18  and  C_21
REMARK    7  A    between atoms: C_26  and  C_27
REMARK                            x       y       z     vdW  Elec       q    Type
REMARK                         _______ _______ _______ _____ _____    ______ ____
ROOT
ATOM      1  C   UNL     1       1.269  -4.040  -2.158  0.00  0.00    +0.277 C 
ATOM      2  C   UNL     1       2.102  -4.566  -0.981  0.00  0.00    +0.186 C 
ATOM      3  N   UNL     1       2.225  -6.025  -1.139  0.00  0.00    -0.195 N 
ATOM      4  C   UNL     1       2.473  -6.523  -2.429  0.00  0.00    +0.093 A 
ATOM      5  C   UNL     1       2.879  -7.837  -2.600  0.00  0.00    +0.028 A 
ATOM      6  C   UNL     1       3.119  -8.323  -3.872  0.00  0.00    +0.002 A 
ATOM      7  C   UNL     1       2.954  -7.500  -4.971  0.00  0.00    +0.004 A 
ATOM      8  C   UNL     1       2.550  -6.189  -4.805  0.00  0.00    +0.047 A 
ATOM      9  C   UNL     1       2.308  -5.692  -3.533  0.00  0.00    +0.144 A 
ATOM     10  O   UNL     1       1.916  -4.398  -3.381  0.00  0.00    -0.476 OA
ENDROOT
BRANCH   1  12
ATOM     11  N   UNL     1       0.493  -1.974  -1.039  0.00  0.00    -0.312 N 
ATOM     12  C   UNL     1       1.157  -2.540  -2.067  0.00  0.00    +0.255 C 
ATOM     13  O   UNL     1       1.664  -1.841  -2.918  0.00  0.00    -0.272 OA
ATOM     14  H   UNL     1       0.087  -2.533  -0.358  0.00  0.00    +0.149 HD
BRANCH  11  15
ATOM     15  C   UNL     1       0.384  -0.516  -0.950  0.00  0.00    +0.104 C 
BRANCH  15  17
ATOM     16  C   UNL     1      -0.526   1.384   0.393  0.00  0.00    +0.005 C 
ATOM     17  C   UNL     1      -0.412  -0.139   0.300  0.00  0.00    +0.015 C 
ENDBRANCH  15  17
ENDBRANCH  11  15
ENDBRANCH   1  12
BRANCH   3  18
ATOM     18  S   UNL     1       2.077  -7.043   0.158  0.00  0.00    +0.076 S 
ATOM     19  O   UNL     1       1.471  -6.289   1.199  0.00  0.00    -0.150 OA
ATOM     20  O   UNL     1       1.513  -8.251  -0.336  0.00  0.00    -0.150 OA
BRANCH  18  21
ATOM     21  C   UNL     1       3.707  -7.434   0.703  0.00  0.00    +0.127 A 
ATOM     22  C   UNL     1       4.181  -8.724   0.592  0.00  0.00    +0.050 A 
ATOM     23  C   UNL     1       5.462  -9.033   1.020  0.00  0.00    +0.043 A 
ATOM     24  C   UNL     1       6.274  -8.049   1.560  0.00  0.00    +0.021 A 
ATOM     25  C   UNL     1       5.811  -6.756   1.675  0.00  0.00    +0.022 A 
ATOM     26  C   UNL     1       4.522  -6.437   1.241  0.00  0.00    +0.078 A 
ATOM     27 CL   UNL     1       6.052 -10.660   0.878  0.00  0.00    -0.083 Cl
BRANCH  26  28
ATOM     28  C   UNL     1       4.037  -5.094   1.353  0.00  0.00    +0.101 C 
ATOM     29  N   UNL     1       3.653  -4.029   1.442  0.00  0.00    -0.191 NA
ENDBRANCH  26  28
ENDBRANCH  18  21
ENDBRANCH   3  18
TORSDOF 6
