REMARK  Name = ZINC01062994
REMARK  9 active torsions:
REMARK  status: ('A' for Active; 'I' for Inactive)
REMARK    1  A    between atoms: C_1  and  C_2
REMARK    2  A    between atoms: C_5  and  N_9
REMARK    3  A    between atoms: C_6  and  C_8
REMARK    4  A    between atoms: C_10  and  C_12
REMARK    5  A    between atoms: C_13  and  C_34
REMARK    6  A    between atoms: C_18  and  C_20
REMARK    7  A    between atoms: C_23  and  O_26
REMARK    8  A    between atoms: O_26  and  C_27
REMARK    9  A    between atoms: C_27  and  C_28
REMARK                            x       y       z     vdW  Elec       q    Type
REMARK                         _______ _______ _______ _____ _____    ______ ____
ROOT
ATOM      1  C   UNL     1      -1.260   2.626   0.305  0.00  0.00    +0.056 C 
ATOM      2  C   UNL     1      -1.012   1.529   1.052  0.00  0.00    +0.017 C 
ATOM      3  N   UNL     1       0.243   0.995   1.124  0.00  0.00    -0.300 N 
ATOM      4  C   UNL     1       1.300   1.492   0.470  0.00  0.00    +0.135 C 
ATOM      5  S   UNL     1       2.818   0.719   0.642  0.00  0.00    -0.019 S 
ATOM      6  N   UNL     1       1.208   2.581  -0.319  0.00  0.00    -0.315 N 
ATOM      7  C   UNL     1      -0.103   3.236  -0.459  0.00  0.00    +0.139 C 
ATOM      8  C   UNL     1      -2.136   0.888   1.824  0.00  0.00    +0.061 C 
ATOM      9  H   UNL     1       0.374   0.208   1.677  0.00  0.00    +0.154 HD
ATOM     10  H   UNL     1       1.988   2.924  -0.783  0.00  0.00    +0.149 HD
ENDROOT
BRANCH   7  11
ATOM     11  C   UNL     1       0.044   4.668  -0.014  0.00  0.00    -0.022 A 
ATOM     12  C   UNL     1       0.717   4.962   1.157  0.00  0.00    +0.009 A 
ATOM     13  C   UNL     1       0.858   6.275   1.564  0.00  0.00    +0.046 A 
ATOM     14  C   UNL     1       0.313   7.298   0.802  0.00  0.00    +0.121 A 
ATOM     15  C   UNL     1      -0.367   7.000  -0.369  0.00  0.00    +0.046 A 
ATOM     16  C   UNL     1      -0.500   5.687  -0.775  0.00  0.00    +0.009 A 
BRANCH  14  17
ATOM     17  O   UNL     1       0.445   8.590   1.204  0.00  0.00    -0.487 OA
BRANCH  17  18
ATOM     18  C   UNL     1       1.157   8.821   2.421  0.00  0.00    +0.264 C 
BRANCH  18  19
ATOM     19  C   UNL     1       1.201  10.301   2.703  0.00  0.00    -0.010 A 
ATOM     20  C   UNL     1       2.247  11.066   2.222  0.00  0.00    +0.007 A 
ATOM     21  C   UNL     1       2.285  12.424   2.476  0.00  0.00    +0.000 A 
ATOM     22  C   UNL     1       1.282  13.016   3.221  0.00  0.00    +0.000 A 
ATOM     23  C   UNL     1       0.239  12.250   3.708  0.00  0.00    +0.000 A 
ATOM     24  C   UNL     1       0.198  10.893   3.448  0.00  0.00    +0.007 A 
ENDBRANCH  18  19
ENDBRANCH  17  18
ENDBRANCH  14  17
ENDBRANCH   7  11
BRANCH   1  26
ATOM     25  N   UNL     1      -3.046   3.892   1.274  0.00  0.00    -0.281 N 
ATOM     26  C   UNL     1      -2.560   3.185   0.235  0.00  0.00    +0.248 C 
ATOM     27  O   UNL     1      -3.237   3.027  -0.764  0.00  0.00    -0.270 OA
ATOM     28  H   UNL     1      -2.479   4.087   2.036  0.00  0.00    +0.155 HD
BRANCH  25  33
ATOM     29  C   UNL     1      -8.413   5.729   1.190  0.00  0.00    +0.044 C 
ATOM     30  C   UNL     1      -6.987   5.240   1.212  0.00  0.00    -0.050 A 
ATOM     31  C   UNL     1      -6.276   5.132   0.031  0.00  0.00    +0.005 A 
ATOM     32  C   UNL     1      -4.968   4.689   0.048  0.00  0.00    +0.024 A 
ATOM     33  C   UNL     1      -4.370   4.344   1.253  0.00  0.00    +0.037 A 
ATOM     34  C   UNL     1      -5.086   4.455   2.438  0.00  0.00    -0.029 A 
ATOM     35  C   UNL     1      -6.392   4.903   2.414  0.00  0.00    +0.008 A 
ATOM     36  C   UNL     1      -4.439   4.087   3.748  0.00  0.00    +0.045 C 
ENDBRANCH  25  33
ENDBRANCH   1  26
TORSDOF 6
