REMARK  Name = ZINC15448084
REMARK  11 active torsions:
REMARK  status: ('A' for Active; 'I' for Inactive)
REMARK    1  A    between atoms: C_1  and  C_2
REMARK    2  A    between atoms: C_2  and  C_3
REMARK    3  A    between atoms: C_3  and  C_4
REMARK    4  A    between atoms: C_4  and  N_5
REMARK    5  A    between atoms: C_6  and  N_31
REMARK    6  A    between atoms: C_7  and  N_14
REMARK    7  A    between atoms: N_14  and  C_15
REMARK    8  A    between atoms: C_15  and  C_16
REMARK    9  A    between atoms: C_17  and  C_19
REMARK   10  A    between atoms: C_19  and  S_20
REMARK   11  A    between atoms: S_20  and  C_21
REMARK                            x       y       z     vdW  Elec       q    Type
REMARK                         _______ _______ _______ _____ _____    ______ ____
ROOT
ATOM      1  N   UNL     1      -1.369  -4.811   2.374  0.00  0.00    -0.264 N 
ATOM      2  C   UNL     1      -1.479  -4.174   3.559  0.00  0.00    +0.230 C 
ATOM      3  O   UNL     1      -1.493  -2.962   3.597  0.00  0.00    -0.274 OA
ENDROOT
BRANCH   1   6
ATOM      4  N   UNL     1      -2.400  -3.465  -0.886  0.00  0.00    -0.280 N 
ATOM      5  C   UNL     1      -2.420  -4.199   0.277  0.00  0.00    +0.127 A 
ATOM      6  C   UNL     1      -1.378  -4.071   1.172  0.00  0.00    +0.140 A 
ATOM      7  C   UNL     1      -0.323  -3.191   0.866  0.00  0.00    +0.277 A 
ATOM      8  O   UNL     1       0.611  -3.058   1.639  0.00  0.00    -0.266 OA
ATOM      9  N   UNL     1      -0.352  -2.495  -0.288  0.00  0.00    -0.273 N 
ATOM     10  H   UNL     1       0.395  -1.866  -0.504  0.00  0.00    +0.173 HD
ATOM     11  C   UNL     1      -1.373  -2.637  -1.151  0.00  0.00    +0.331 A 
ATOM     12  O   UNL     1      -1.372  -2.000  -2.187  0.00  0.00    -0.246 OA
BRANCH   5  13
ATOM     13  N   UNL     1      -3.466  -5.049   0.545  0.00  0.00    -0.343 N 
ATOM     14  H   UNL     1      -4.231  -5.080  -0.051  0.00  0.00    +0.144 HD
ATOM     15  H   UNL     1      -3.440  -5.618   1.330  0.00  0.00    +0.144 HD
ENDBRANCH   5  13
BRANCH   4  16
ATOM     16  C   UNL     1      -3.500  -3.591  -1.845  0.00  0.00    +0.128 C 
BRANCH  16  17
ATOM     17  C   UNL     1      -4.584  -2.563  -1.515  0.00  0.00    +0.021 C 
BRANCH  17  19
ATOM     18  C   UNL     1      -6.818  -1.667  -2.187  0.00  0.00    +0.004 C 
ATOM     19  C   UNL     1      -5.733  -2.695  -2.517  0.00  0.00    -0.002 C 
ENDBRANCH  17  19
ENDBRANCH  16  17
ENDBRANCH   4  16
ENDBRANCH   1   6
BRANCH   1  20
ATOM     20  C   UNL     1      -1.241  -6.269   2.336  0.00  0.00    +0.110 C 
ATOM     21  C   UNL     1       0.229  -6.657   2.508  0.00  0.00    +0.025 C 
ENDBRANCH   1  20
BRANCH   2  22
ATOM     22  C   UNL     1      -1.584  -4.969   4.835  0.00  0.00    +0.170 C 
BRANCH  22  23
ATOM     23  S   UNL     1      -1.718  -3.836   6.244  0.00  0.00    -0.116 S 
BRANCH  23  24
ATOM     24  C   UNL     1      -1.831  -4.904   7.641  0.00  0.00    +0.009 A 
ATOM     25  C   UNL     1      -1.808  -6.292   7.456  0.00  0.00    +0.015 A 
ATOM     26  C   UNL     1      -1.887  -7.139   8.515  0.00  0.00    +0.009 A 
ATOM     27  C   UNL     1      -2.006  -6.624   9.818  0.00  0.00    -0.018 A 
ATOM     28  C   UNL     1      -2.098  -7.476  10.931  0.00  0.00    +0.008 A 
ATOM     29  C   UNL     1      -2.213  -6.946  12.180  0.00  0.00    +0.001 A 
ATOM     30  C   UNL     1      -2.242  -5.566  12.373  0.00  0.00    +0.001 A 
ATOM     31  C   UNL     1      -2.157  -4.709  11.319  0.00  0.00    +0.008 A 
ATOM     32  C   UNL     1      -2.036  -5.220  10.015  0.00  0.00    -0.017 A 
ATOM     33  C   UNL     1      -1.946  -4.365   8.904  0.00  0.00    +0.023 A 
ENDBRANCH  23  24
ENDBRANCH  22  23
ENDBRANCH   2  22
TORSDOF 9
