REMARK  Name = ZINC55305385
REMARK  5 active torsions:
REMARK  status: ('A' for Active; 'I' for Inactive)
REMARK    1  A    between atoms: C_1  and  C_2
REMARK    2  A    between atoms: C_5  and  C_8
REMARK    3  A    between atoms: C_5  and  N_12
REMARK    4  A    between atoms: N_9  and  O_10
REMARK    5  A    between atoms: C_13  and  C_15
REMARK                            x       y       z     vdW  Elec       q    Type
REMARK                         _______ _______ _______ _____ _____    ______ ____
ROOT
ATOM      1  C   UNL     1       0.131   1.724  -0.019  0.00  0.00    +0.007 C 
ATOM      2  C   UNL     1       0.045   0.197   0.021  0.00  0.00    -0.014 C 
ATOM      3  C   UNL     1       0.708  -0.385  -1.229  0.00  0.00    +0.006 C 
ATOM      4  C   UNL     1       2.177   0.043  -1.274  0.00  0.00    +0.034 C 
ATOM      5  C   UNL     1       2.896  -0.476  -0.027  0.00  0.00    +0.093 C 
ATOM      6  C   UNL     1       2.233   0.105   1.224  0.00  0.00    +0.034 C 
ATOM      7  C   UNL     1       0.765  -0.322   1.268  0.00  0.00    +0.006 C 
ENDROOT
BRANCH   5   8
ATOM      8  C   UNL     1       4.343  -0.055  -0.070  0.00  0.00    +0.155 C 
ATOM      9  N   UNL     1       4.778   0.661  -1.054  0.00  0.00    -0.075 NA
ATOM     10  N   UNL     1       5.201  -0.433   0.938  0.00  0.00    -0.342 N 
ATOM     11  H   UNL     1       4.894  -1.032   1.637  0.00  0.00    +0.144 HD
ATOM     12  H   UNL     1       6.112  -0.102   0.950  0.00  0.00    +0.144 HD
BRANCH   9  13
ATOM     13  O   UNL     1       6.137   1.057  -1.095  0.00  0.00    -0.408 OA
ATOM     14  H   UNL     1       6.368   1.589  -1.868  0.00  0.00    +0.328 HD
ENDBRANCH   9  13
ENDBRANCH   5   8
BRANCH   5  15
ATOM     15  N   UNL     1       2.814  -1.938   0.012  0.00  0.00    -0.301 N 
ATOM     16  C   UNL     1       3.433  -2.673  -0.934  0.00  0.00    +0.245 C 
ATOM     17  O   UNL     1       3.981  -2.124  -1.866  0.00  0.00    -0.273 OA
ATOM     18  H   UNL     1       2.315  -2.377   0.718  0.00  0.00    +0.150 HD
BRANCH  16  19
ATOM     19  C   UNL     1       3.443  -4.176  -0.832  0.00  0.00    +0.229 C 
ATOM     20  C   UNL     1       4.241  -4.601   0.404  0.00  0.00    +0.201 C 
ATOM     21  O   UNL     1       4.341  -6.028   0.432  0.00  0.00    -0.374 OA
ATOM     22  C   UNL     1       4.955  -6.581  -0.736  0.00  0.00    +0.188 C 
ATOM     23  C   UNL     1       4.157  -6.157  -1.972  0.00  0.00    +0.189 C 
ATOM     24  O   UNL     1       4.056  -4.730  -2.001  0.00  0.00    -0.363 OA
ENDBRANCH  16  19
ENDBRANCH   5  15
TORSDOF 4
