REMARK  Name = ZINC40392953
REMARK  11 active torsions:
REMARK  status: ('A' for Active; 'I' for Inactive)
REMARK    1  A    between atoms: C_1  and  N_2
REMARK    2  A    between atoms: N_2  and  C_3
REMARK    3  A    between atoms: N_2  and  C_4
REMARK    4  A    between atoms: C_4  and  C_5
REMARK    5  A    between atoms: C_5  and  C_8
REMARK    6  A    between atoms: C_11  and  N_14
REMARK    7  A    between atoms: N_23  and  C_30
REMARK    8  A    between atoms: C_25  and  S_26
REMARK    9  A    between atoms: S_26  and  C_29
REMARK   10  A    between atoms: C_33  and  O_36
REMARK   11  A    between atoms: O_36  and  C_37
REMARK                            x       y       z     vdW  Elec       q    Type
REMARK                         _______ _______ _______ _____ _____    ______ ____
ROOT
ATOM      1  N   UNL     1       4.765   0.082   3.751  0.00  0.00    -0.270 N 
ATOM      2  C   UNL     1       3.951   0.299   4.936  0.00  0.00    +0.114 C 
ATOM      3  C   UNL     1       4.671   1.006   6.089  0.00  0.00    +0.033 C 
ATOM      4  C   UNL     1       6.101   1.261   5.693  0.00  0.00    +0.091 C 
ATOM      5  C   UNL     1       6.675  -0.102   5.186  0.00  0.00    +0.194 C 
ATOM      6  C   UNL     1       6.095  -0.224   3.805  0.00  0.00    +0.243 C 
ATOM      7  O   UNL     1       6.742  -0.558   2.835  0.00  0.00    -0.273 OA
ATOM      8  N   UNL     1       8.098   0.194   5.308  0.00  0.00    -0.210 N 
ATOM      9  N   UNL     1       8.199   1.008   6.462  0.00  0.00    -0.164 NA
ATOM     10  C   UNL     1       7.109   1.621   6.729  0.00  0.00    +0.176 C 
ENDROOT
BRANCH   1  14
ATOM     11  C   UNL     1       2.950   0.392   0.014  0.00  0.00    -0.043 A 
ATOM     12  C   UNL     1       2.576  -0.618   0.881  0.00  0.00    +0.006 A 
ATOM     13  C   UNL     1       3.176  -0.724   2.121  0.00  0.00    +0.024 A 
ATOM     14  C   UNL     1       4.156   0.186   2.496  0.00  0.00    +0.036 A 
ATOM     15  C   UNL     1       4.530   1.199   1.622  0.00  0.00    +0.024 A 
ATOM     16  C   UNL     1       3.930   1.296   0.382  0.00  0.00    +0.006 A 
BRANCH  11  17
ATOM     17  C   UNL     1       2.294   0.504  -1.338  0.00  0.00    -0.019 C 
ATOM     18  C   UNL     1       3.131   1.074  -2.485  0.00  0.00    +0.010 C 
ATOM     19  C   UNL     1       2.800  -0.419  -2.448  0.00  0.00    +0.010 C 
BRANCH  17  20
ATOM     20  C   UNL     1       0.800   0.835  -1.321  0.00  0.00    -0.068 C 
BRANCH  20  22
ATOM     21  C   UNL     1       1.168   3.096  -0.607  0.00  0.00    -0.097 C 
ATOM     22  N   UNL     1       0.529   1.818  -0.263  0.00  0.00    +0.377 N 
ATOM     23  C   UNL     1      -0.922   2.015  -0.138  0.00  0.00    -0.097 C 
ATOM     24  H   UNL     1       0.899   1.481   0.612  0.00  0.00    -0.083 HD
ENDBRANCH  20  22
ENDBRANCH  17  20
ENDBRANCH  11  17
ENDBRANCH   1  14
BRANCH   8  25
ATOM     25  C   UNL     1       9.133  -0.232   4.471  0.00  0.00    +0.053 A 
ATOM     26  C   UNL     1      10.283   0.537   4.340  0.00  0.00    +0.028 A 
ATOM     27  C   UNL     1      11.305   0.115   3.513  0.00  0.00    +0.047 A 
ATOM     28  C   UNL     1      11.185  -1.077   2.814  0.00  0.00    +0.120 A 
ATOM     29  C   UNL     1      10.038  -1.846   2.944  0.00  0.00    +0.047 A 
ATOM     30  C   UNL     1       9.017  -1.429   3.775  0.00  0.00    +0.028 A 
BRANCH  28  31
ATOM     31  O   UNL     1      12.192  -1.492   2.000  0.00  0.00    -0.495 OA
ATOM     32  C   UNL     1      12.001  -2.729   1.310  0.00  0.00    +0.277 C 
ENDBRANCH  28  31
ENDBRANCH   8  25
BRANCH  10  33
ATOM     33  S   UNL     1       6.857   2.712   8.089  0.00  0.00    +0.009 S 
ATOM     34  O   UNL     1       5.481   2.573   8.416  0.00  0.00    -0.168 OA
ATOM     35  O   UNL     1       7.864   2.361   9.028  0.00  0.00    -0.168 OA
ATOM     36  C   UNL     1       7.175   4.369   7.423  0.00  0.00    +0.201 C 
ENDBRANCH  10  33
TORSDOF 7
