REMARK  Name = ZINC13151918
REMARK  6 active torsions:
REMARK  status: ('A' for Active; 'I' for Inactive)
REMARK    1  A    between atoms: C_1  and  C_2
REMARK    2  A    between atoms: C_2  and  C_24
REMARK    3  A    between atoms: C_6  and  N_7
REMARK    4  A    between atoms: N_7  and  N_8
REMARK    5  A    between atoms: N_8  and  C_9
REMARK    6  A    between atoms: C_9  and  N_11
REMARK                            x       y       z     vdW  Elec       q    Type
REMARK                         _______ _______ _______ _____ _____    ______ ____
ROOT
ATOM      1  C   UNL     1       0.136   1.285  -0.531  0.00  0.00    +0.064 C 
ATOM      2  C   UNL     1       0.047  -0.241  -0.491  0.00  0.00    +0.167 C 
ATOM      3  C   UNL     1      -1.388  -0.654  -0.279  0.00  0.00    +0.208 C 
ATOM      4  O   UNL     1      -2.300   0.060  -0.648  0.00  0.00    -0.288 OA
ATOM      5  C   UNL     1      -1.651  -1.894   0.362  0.00  0.00    +0.051 C 
ATOM      6  C   UNL     1      -2.928  -2.341   0.553  0.00  0.00    +0.100 C 
ATOM      7  C   UNL     1      -0.476  -2.684   0.815  0.00  0.00    +0.071 A 
ATOM      8  C   UNL     1       0.766  -2.048   0.895  0.00  0.00    +0.133 A 
ATOM      9  C   UNL     1       1.886  -2.758   1.311  0.00  0.00    +0.047 A 
ATOM     10  C   UNL     1       1.784  -4.079   1.646  0.00  0.00    +0.015 A 
ATOM     11  C   UNL     1       0.547  -4.731   1.573  0.00  0.00    +0.018 A 
ATOM     12  C   UNL     1      -0.598  -4.030   1.154  0.00  0.00    +0.150 A 
ATOM     13  O   UNL     1      -1.791  -4.655   1.083  0.00  0.00    -0.421 OA
ATOM     14  C   UNL     1      -1.906  -5.948   1.410  0.00  0.00    +0.337 A 
ATOM     15  O   UNL     1      -3.000  -6.478   1.332  0.00  0.00    -0.245 OA
ATOM     16  C   UNL     1      -0.807  -6.719   1.839  0.00  0.00    +0.092 A 
ATOM     17  C   UNL     1       0.422  -6.147   1.930  0.00  0.00    +0.018 A 
ATOM     18  O   UNL     1       0.864  -0.734   0.569  0.00  0.00    -0.478 OA
ATOM     19  C   UNL     1       0.544  -0.813  -1.821  0.00  0.00    +0.064 C 
ENDROOT
BRANCH   6  20
ATOM     20  N   UNL     1      -3.981  -1.615   0.086  0.00  0.00    -0.272 N 
ATOM     21  H   UNL     1      -3.831  -0.741  -0.308  0.00  0.00    +0.169 HD
BRANCH  20  22
ATOM     22  N   UNL     1      -5.281  -2.129   0.175  0.00  0.00    -0.249 N 
ATOM     23  H   UNL     1      -5.431  -3.003   0.569  0.00  0.00    +0.172 HD
BRANCH  22  24
ATOM     24  C   UNL     1      -6.323  -1.410  -0.287  0.00  0.00    +0.144 C 
ATOM     25  S   UNL     1      -7.912  -2.039  -0.179  0.00  0.00    -0.018 S 
BRANCH  24  26
ATOM     26  N   UNL     1      -6.115  -0.197  -0.834  0.00  0.00    -0.340 N 
ATOM     27  H   UNL     1      -5.214   0.160  -0.896  0.00  0.00    +0.144 HD
ATOM     28  H   UNL     1      -6.865   0.321  -1.167  0.00  0.00    +0.144 HD
ENDBRANCH  24  26
ENDBRANCH  22  24
ENDBRANCH  20  22
ENDBRANCH   6  20
TORSDOF 4
