REMARK  Name = ZINC09292834
REMARK  5 active torsions:
REMARK  status: ('A' for Active; 'I' for Inactive)
REMARK    1  A    between atoms: C_1  and  C_2
REMARK    2  A    between atoms: C_2  and  O_3
REMARK    3  A    between atoms: O_3  and  C_4
REMARK    4  A    between atoms: C_7  and  C_10
REMARK    5  A    between atoms: C_13  and  C_25
REMARK                            x       y       z     vdW  Elec       q    Type
REMARK                         _______ _______ _______ _____ _____    ______ ____
ROOT
ATOM      1  C   UNL     1       1.109  -6.040  -1.847  0.00  0.00    +0.122 C 
ATOM      2  C   UNL     1       2.589  -6.434  -1.915  0.00  0.00    +0.057 C 
ATOM      3  C   UNL     1       2.715  -7.896  -2.357  0.00  0.00    +0.106 C 
ATOM      4  N   UNL     1       2.167  -8.023  -3.720  0.00  0.00    -0.309 N 
ATOM      5  C   UNL     1       0.968  -7.370  -3.967  0.00  0.00    +0.175 A 
ATOM      6  N   UNL     1       0.451  -6.436  -3.095  0.00  0.00    -0.306 N 
ATOM      7  C   UNL     1      -0.729  -5.997  -3.627  0.00  0.00    +0.069 A 
ATOM      8  C   UNL     1      -1.673  -5.073  -3.194  0.00  0.00    +0.028 A 
ATOM      9  C   UNL     1      -2.777  -4.872  -4.006  0.00  0.00    +0.002 A 
ATOM     10  C   UNL     1      -2.946  -5.554  -5.198  0.00  0.00    +0.002 A 
ATOM     11  C   UNL     1      -2.022  -6.479  -5.650  0.00  0.00    +0.028 A 
ATOM     12  C   UNL     1      -0.898  -6.698  -4.846  0.00  0.00    +0.065 A 
ATOM     13  N   UNL     1       0.172  -7.513  -4.993  0.00  0.00    -0.327 N 
ATOM     14  H   UNL     1       2.620  -8.536  -4.408  0.00  0.00    +0.149 HD
ATOM     15  H   UNL     1       0.323  -8.112  -5.741  0.00  0.00    +0.169 HD
ENDROOT
BRANCH   3  16
ATOM     16  C   UNL     1       4.166  -8.302  -2.352  0.00  0.00    -0.027 A 
ATOM     17  C   UNL     1       4.988  -7.945  -3.404  0.00  0.00    +0.006 A 
ATOM     18  C   UNL     1       6.319  -8.318  -3.400  0.00  0.00    +0.015 A 
ATOM     19  C   UNL     1       6.829  -9.048  -2.341  0.00  0.00    +0.018 A 
ATOM     20  C   UNL     1       6.006  -9.405  -1.288  0.00  0.00    +0.015 A 
ATOM     21  C   UNL     1       4.676  -9.028  -1.292  0.00  0.00    +0.006 A 
ATOM     22 BR   UNL     1       8.649  -9.559  -2.334  0.00  0.00    -0.050 Br
ENDBRANCH   3  16
BRANCH   1  26
ATOM     23  C   UNL     1       0.777  -1.810  -1.336  0.00  0.00    +0.121 A 
ATOM     24  C   UNL     1       0.243  -2.669  -0.386  0.00  0.00    +0.046 A 
ATOM     25  C   UNL     1       0.351  -4.036  -0.554  0.00  0.00    +0.009 A 
ATOM     26  C   UNL     1       0.992  -4.548  -1.667  0.00  0.00    -0.024 A 
ATOM     27  C   UNL     1       1.525  -3.694  -2.615  0.00  0.00    +0.009 A 
ATOM     28  C   UNL     1       1.414  -2.327  -2.455  0.00  0.00    +0.046 A 
BRANCH  23  29
ATOM     29  O   UNL     1       0.671  -0.465  -1.174  0.00  0.00    -0.492 OA
BRANCH  29  31
ATOM     30  C   UNL     1      -0.019   1.526   0.010  0.00  0.00    +0.048 C 
ATOM     31  C   UNL     1       0.002  -0.004   0.002  0.00  0.00    +0.225 C 
ENDBRANCH  29  31
ENDBRANCH  23  29
ENDBRANCH   1  26
TORSDOF 4
