REMARK  Name = ZINC16805348
REMARK  5 active torsions:
REMARK  status: ('A' for Active; 'I' for Inactive)
REMARK    1  A    between atoms: C_4  and  C_7
REMARK    2  A    between atoms: C_7  and  C_9
REMARK    3  A    between atoms: C_11  and  C_23
REMARK    4  A    between atoms: C_17  and  C_18
REMARK    5  A    between atoms: C_17  and  O_22
REMARK                            x       y       z     vdW  Elec       q    Type
REMARK                         _______ _______ _______ _____ _____    ______ ____
ROOT
ATOM      1  C   UNL     1      -1.088   2.568  -0.553  0.00  0.00    +0.144 C 
ATOM      2  C   UNL     1      -1.016   3.679   0.500  0.00  0.00    +0.124 C 
ATOM      3  N   UNL     1      -0.003   4.656   0.099  0.00  0.00    -0.292 N 
ATOM      4  C   UNL     1       0.284   4.873  -1.193  0.00  0.00    +0.302 C 
ATOM      5  O   UNL     1       1.128   5.703  -1.472  0.00  0.00    -0.253 OA
ATOM      6  N   UNL     1      -0.322   4.210  -2.189  0.00  0.00    -0.264 N 
ATOM      7  C   UNL     1      -1.353   3.208  -1.920  0.00  0.00    +0.243 C 
ATOM      8  H   UNL     1       0.471   5.157   0.782  0.00  0.00    +0.151 HD
ATOM      9  H   UNL     1      -0.071   4.399  -3.107  0.00  0.00    +0.153 HD
ENDROOT
BRANCH   2  10
ATOM     10  C   UNL     1      -2.357   4.358   0.607  0.00  0.00    +0.027 A 
ATOM     11  C   UNL     1      -2.656   5.433  -0.213  0.00  0.00    +0.130 A 
ATOM     12  C   UNL     1      -3.890   6.053  -0.117  0.00  0.00    +0.039 A 
ATOM     13  C   UNL     1      -4.819   5.606   0.804  0.00  0.00    +0.004 A 
ATOM     14  C   UNL     1      -4.518   4.536   1.625  0.00  0.00    +0.020 A 
ATOM     15  C   UNL     1      -3.287   3.912   1.528  0.00  0.00    +0.049 A 
ATOM     16 CL   UNL     1      -2.911   2.568   2.561  0.00  0.00    -0.083 Cl
ATOM     17  F   UNL     1      -1.746   5.874  -1.108  0.00  0.00    -0.205 F 
ENDBRANCH   2  10
BRANCH   7  18
ATOM     18  C   UNL     1      -1.315   2.130  -3.005  0.00  0.00    +0.436 C 
ATOM     19  F   UNL     1      -2.256   1.138  -2.711  0.00  0.00    -0.166 F 
ATOM     20  F   UNL     1      -1.615   2.705  -4.245  0.00  0.00    -0.166 F 
ATOM     21  F   UNL     1      -0.037   1.561  -3.052  0.00  0.00    -0.166 F 
ENDBRANCH   7  18
BRANCH   1  22
ATOM     22  C   UNL     1       0.221   1.820  -0.590  0.00  0.00    +0.173 C 
ATOM     23  O   UNL     1       1.170   2.289  -1.181  0.00  0.00    -0.292 OA
BRANCH  22  27
ATOM     24  C   UNL     1       0.577  -1.929   1.361  0.00  0.00    +0.000 A 
ATOM     25  C   UNL     1       1.627  -1.447   0.600  0.00  0.00    +0.001 A 
ATOM     26  C   UNL     1       1.519  -0.229  -0.037  0.00  0.00    +0.011 A 
ATOM     27  C   UNL     1       0.344   0.519   0.087  0.00  0.00    +0.018 A 
ATOM     28  C   UNL     1      -0.711   0.027   0.861  0.00  0.00    +0.011 A 
ATOM     29  C   UNL     1      -0.590  -1.195   1.488  0.00  0.00    +0.001 A 
ENDBRANCH  22  27
ENDBRANCH   1  22
BRANCH   7  30
ATOM     30  O   UNL     1      -2.638   3.834  -1.912  0.00  0.00    -0.364 OA
ATOM     31  H   UNL     1      -2.872   4.260  -2.748  0.00  0.00    +0.212 HD
ENDBRANCH   7  30
TORSDOF 5
