REMARK  Name = ZINC34715964
REMARK  7 active torsions:
REMARK  status: ('A' for Active; 'I' for Inactive)
REMARK    1  A    between atoms: C_1  and  C_2
REMARK    2  A    between atoms: C_2  and  N_3
REMARK    3  A    between atoms: C_8  and  C_22
REMARK    4  A    between atoms: C_12  and  C_14
REMARK    5  A    between atoms: C_18  and  C_20
REMARK    6  A    between atoms: N_24  and  C_25
REMARK    7  A    between atoms: C_25  and  C_26
REMARK                            x       y       z     vdW  Elec       q    Type
REMARK                         _______ _______ _______ _____ _____    ______ ____
ROOT
ATOM      1  N   UNL     1       1.591  -0.693  -0.721  0.00  0.00    -0.299 N 
ATOM      2  C   UNL     1       1.419  -1.967  -1.127  0.00  0.00    +0.303 C 
ATOM      3  O   UNL     1       1.007  -2.803  -0.346  0.00  0.00    -0.253 OA
ATOM      4  N   UNL     1       1.704  -2.313  -2.398  0.00  0.00    -0.278 N 
ATOM      5  C   UNL     1       2.305  -1.342  -3.322  0.00  0.00    +0.122 C 
ATOM      6  C   UNL     1       1.444  -1.267  -4.587  0.00  0.00    +0.092 C 
ATOM      7  C   UNL     1       1.281  -2.672  -5.171  0.00  0.00    +0.016 C 
ATOM      8  C   UNL     1       0.570  -3.570  -4.155  0.00  0.00    +0.028 C 
ATOM      9  C   UNL     1       1.425  -3.671  -2.884  0.00  0.00    +0.108 C 
ATOM     10  H   UNL     1       1.988  -0.042  -1.321  0.00  0.00    +0.150 HD
ENDROOT
BRANCH   9  11
ATOM     11  C   UNL     1       0.675  -4.442  -1.828  0.00  0.00    -0.027 A 
ATOM     12  C   UNL     1      -0.568  -4.006  -1.407  0.00  0.00    +0.008 A 
ATOM     13  C   UNL     1      -1.257  -4.712  -0.439  0.00  0.00    +0.039 A 
ATOM     14  C   UNL     1      -0.702  -5.856   0.109  0.00  0.00    +0.126 A 
ATOM     15  C   UNL     1       0.542  -6.291  -0.313  0.00  0.00    -0.015 A 
ATOM     16  C   UNL     1       1.227  -5.587  -1.285  0.00  0.00    +0.011 A 
ATOM     17  C   UNL     1       1.147  -7.536   0.283  0.00  0.00    +0.047 C 
ATOM     18  F   UNL     1      -1.375  -6.546   1.056  0.00  0.00    -0.205 F 
ENDBRANCH   9  11
BRANCH   6  19
ATOM     19  C   UNL     1       0.089  -0.705  -4.242  0.00  0.00    +0.218 C 
ATOM     20  O   UNL     1      -0.910  -1.361  -4.445  0.00  0.00    -0.275 OA
ATOM     21  N   UNL     1      -0.012   0.528  -3.707  0.00  0.00    -0.311 N 
ATOM     22  H   UNL     1       0.787   1.053  -3.544  0.00  0.00    +0.149 HD
BRANCH  21  23
ATOM     23  C   UNL     1      -1.329   1.075  -3.371  0.00  0.00    +0.139 C 
BRANCH  23  24
ATOM     24  C   UNL     1      -1.166   2.457  -2.792  0.00  0.00    -0.028 A 
ATOM     25  C   UNL     1      -1.001   2.621  -1.429  0.00  0.00    +0.005 A 
ATOM     26  C   UNL     1      -0.852   3.888  -0.897  0.00  0.00    +0.003 A 
ATOM     27  C   UNL     1      -0.868   4.993  -1.728  0.00  0.00    +0.038 A 
ATOM     28  C   UNL     1      -1.033   4.830  -3.092  0.00  0.00    +0.124 A 
ATOM     29  C   UNL     1      -1.177   3.560  -3.625  0.00  0.00    +0.043 A 
ATOM     30  F   UNL     1      -1.050   5.909  -3.905  0.00  0.00    -0.205 F 
ENDBRANCH  23  24
ENDBRANCH  21  23
ENDBRANCH   6  19
BRANCH   1  32
ATOM     31  C   UNL     1       1.483   1.194   0.832  0.00  0.00    +0.024 C 
ATOM     32  C   UNL     1       1.179  -0.292   0.627  0.00  0.00    +0.102 C 
ENDBRANCH   1  32
TORSDOF 5
