REMARK  Name = ZINC10000744
REMARK  10 active torsions:
REMARK  status: ('A' for Active; 'I' for Inactive)
REMARK    1  A    between atoms: C_1  and  C_2
REMARK    2  A    between atoms: C_5  and  C_11
REMARK    3  A    between atoms: C_7  and  N_8
REMARK    4  A    between atoms: N_12  and  N_13
REMARK    5  A    between atoms: C_14  and  C_16
REMARK    6  A    between atoms: C_16  and  C_18
REMARK    7  A    between atoms: C_16  and  N_21
REMARK    8  A    between atoms: C_18  and  C_19
REMARK    9  A    between atoms: C_18  and  C_20
REMARK   10  A    between atoms: C_22  and  C_24
REMARK                            x       y       z     vdW  Elec       q    Type
REMARK                         _______ _______ _______ _____ _____    ______ ____
ROOT
ATOM      1  N   UNL     1      -3.332  -4.800  -0.934  0.00  0.00    -0.205 N 
ATOM      2  C   UNL     1      -2.313  -4.144  -0.344  0.00  0.00    +0.253 C 
ATOM      3  O   UNL     1      -1.209  -4.645  -0.308  0.00  0.00    -0.272 OA
ATOM      4  H   UNL     1      -4.194  -4.367  -1.034  0.00  0.00    +0.177 HD
ENDROOT
BRANCH   1   6
ATOM      5  C   UNL     1      -4.125  -6.738  -1.972  0.00  0.00    +0.138 C 
ATOM      6  N   UNL     1      -3.145  -6.106  -1.404  0.00  0.00    -0.188 NA
BRANCH   5  11
ATOM      7  C   UNL     1      -3.358 -12.102  -3.901  0.00  0.00    +0.046 C 
ATOM      8  C   UNL     1      -3.559 -10.697  -3.396  0.00  0.00    -0.020 A 
ATOM      9  C   UNL     1      -2.511 -10.026  -2.790  0.00  0.00    +0.006 A 
ATOM     10  C   UNL     1      -2.686  -8.737  -2.331  0.00  0.00    +0.010 A 
ATOM     11  C   UNL     1      -3.929  -8.114  -2.467  0.00  0.00    -0.003 A 
ATOM     12  C   UNL     1      -4.982  -8.796  -3.079  0.00  0.00    +0.042 A 
ATOM     13  C   UNL     1      -4.790 -10.083  -3.540  0.00  0.00    +0.130 A 
BRANCH  13  14
ATOM     14  N   UNL     1      -5.906 -10.808  -4.189  0.00  0.00    +0.057 N 
ATOM     15  O   UNL     1      -7.027 -10.333  -4.182  0.00  0.00    -0.126 OA
ATOM     16  O   UNL     1      -5.702 -11.880  -4.730  0.00  0.00    -0.126 OA
ENDBRANCH  13  14
ENDBRANCH   5  11
ENDBRANCH   1   6
BRANCH   2  17
ATOM     17  C   UNL     1      -2.546  -2.788   0.272  0.00  0.00    +0.163 C 
BRANCH  17  18
ATOM     18  N   UNL     1      -1.266  -2.088   0.409  0.00  0.00    -0.300 N 
ATOM     19  C   UNL     1      -1.235  -0.741   0.446  0.00  0.00    +0.246 C 
ATOM     20  O   UNL     1      -2.269  -0.107   0.364  0.00  0.00    -0.270 OA
ATOM     21  H   UNL     1      -0.441  -2.594   0.474  0.00  0.00    +0.150 HD
BRANCH  19  22
ATOM     22  C   UNL     1       0.055  -0.035   0.585  0.00  0.00    +0.055 A 
ATOM     23  C   UNL     1       1.245  -0.760   0.678  0.00  0.00    +0.014 A 
ATOM     24  C   UNL     1       2.446  -0.095   0.807  0.00  0.00    +0.001 A 
ATOM     25  C   UNL     1       2.475   1.288   0.844  0.00  0.00    +0.001 A 
ATOM     26  C   UNL     1       1.302   2.014   0.753  0.00  0.00    +0.021 A 
ATOM     27  C   UNL     1       0.091   1.361   0.623  0.00  0.00    +0.053 A 
ATOM     28 CL   UNL     1      -1.381   2.273   0.501  0.00  0.00    -0.083 Cl
ENDBRANCH  19  22
ENDBRANCH  17  18
BRANCH  17  29
ATOM     29  C   UNL     1      -3.186  -2.957   1.651  0.00  0.00    +0.012 C 
ATOM     30  C   UNL     1      -3.514  -1.581   2.233  0.00  0.00    +0.009 C 
ATOM     31  C   UNL     1      -4.472  -3.776   1.520  0.00  0.00    +0.009 C 
ENDBRANCH  17  29
ENDBRANCH   2  17
TORSDOF 7
