REMARK  Name = ZINC62727980
REMARK  10 active torsions:
REMARK  status: ('A' for Active; 'I' for Inactive)
REMARK    1  A    between atoms: C_1  and  C_2
REMARK    2  A    between atoms: C_4  and  C_7
REMARK    3  A    between atoms: C_7  and  O_8
REMARK    4  A    between atoms: O_8  and  C_9
REMARK    5  A    between atoms: C_12  and  C_16
REMARK    6  A    between atoms: C_16  and  N_17
REMARK    7  A    between atoms: N_17  and  C_18
REMARK    8  A    between atoms: C_18  and  C_19
REMARK    9  A    between atoms: C_18  and  C_20
REMARK   10  A    between atoms: C_18  and  C_21
REMARK                            x       y       z     vdW  Elec       q    Type
REMARK                         _______ _______ _______ _____ _____    ______ ____
ROOT
ATOM      1  C   UNL     1      -3.799  -3.975  -0.001  0.00  0.00    +0.135 A 
ATOM      2  C   UNL     1      -3.393  -5.302  -0.005  0.00  0.00    +0.047 A 
ATOM      3  C   UNL     1      -4.335  -6.312  -0.006  0.00  0.00    +0.005 A 
ATOM      4  C   UNL     1      -5.683  -6.002  -0.003  0.00  0.00    -0.063 A 
ATOM      5  C   UNL     1      -6.091  -4.681   0.001  0.00  0.00    +0.020 A 
ATOM      6  C   UNL     1      -5.152  -3.667   0.007  0.00  0.00    +0.060 A 
ATOM      7 BR   UNL     1      -5.711  -1.860   0.021  0.00  0.00    -0.047 Br
ENDROOT
BRANCH   1   8
ATOM      8  O   UNL     1      -2.874  -2.980  -0.000  0.00  0.00    -0.485 OA
BRANCH   8   9
ATOM      9  C   UNL     1      -1.500  -3.372  -0.010  0.00  0.00    +0.288 C 
BRANCH   9  13
ATOM     10  C   UNL     1      -0.018   1.503   0.010  0.00  0.00    +0.089 C 
ATOM     11  C   UNL     1       0.002  -0.004   0.002  0.00  0.00    +0.135 A 
ATOM     12  C   UNL     1      -1.077  -0.810   0.003  0.00  0.00    +0.074 A 
ATOM     13  C   UNL     1      -0.627  -2.143  -0.007  0.00  0.00    +0.121 A 
ATOM     14  N   UNL     1       0.676  -2.130  -0.013  0.00  0.00    -0.080 NA
ATOM     15  O   UNL     1       1.098  -0.778  -0.013  0.00  0.00    -0.360 OA
ENDBRANCH   9  13
ENDBRANCH   8   9
ENDBRANCH   1   8
BRANCH   4  16
ATOM     16  C   UNL     1      -6.708  -7.106  -0.005  0.00  0.00    -0.046 C 
BRANCH  16  17
ATOM     17  N   UNL     1      -7.040  -7.469   1.380  0.00  0.00    +0.385 N 
ATOM     18  H   UNL     1      -6.206  -7.784   1.853  0.00  0.00    -0.085 HD
ATOM     19  H   UNL     1      -7.414  -6.663   1.858  0.00  0.00    -0.085 HD
BRANCH  17  20
ATOM     20  C   UNL     1      -8.039  -8.545   1.379  0.00  0.00    -0.077 C 
ATOM     21  C   UNL     1      -7.472  -9.767   0.653  0.00  0.00    -0.011 C 
ATOM     22  C   UNL     1      -8.384  -8.923   2.821  0.00  0.00    -0.011 C 
ATOM     23  C   UNL     1      -9.303  -8.067   0.660  0.00  0.00    -0.011 C 
ENDBRANCH  17  20
ENDBRANCH  16  17
ENDBRANCH   4  16
TORSDOF 6
