REMARK  Name = ZINC64985757
REMARK  4 active torsions:
REMARK  status: ('A' for Active; 'I' for Inactive)
REMARK    1  A    between atoms: C_4  and  S_7
REMARK    2  A    between atoms: S_7  and  N_10
REMARK    3  A    between atoms: C_12  and  C_22
REMARK    4  A    between atoms: N_24  and  C_25
REMARK                            x       y       z     vdW  Elec       q    Type
REMARK                         _______ _______ _______ _____ _____    ______ ____
ROOT
ATOM      1  N   UNL     1       4.397  -1.050   1.487  0.00  0.00    -0.195 N 
ATOM      2  C   UNL     1       5.295  -0.115   2.186  0.00  0.00    +0.186 C 
ATOM      3  C   UNL     1       4.761   0.059   3.615  0.00  0.00    +0.278 C 
ATOM      4  O   UNL     1       4.714  -1.221   4.249  0.00  0.00    -0.476 OA
ATOM      5  C   UNL     1       4.120  -2.241   3.574  0.00  0.00    +0.144 A 
ATOM      6  C   UNL     1       3.947  -2.176   2.195  0.00  0.00    +0.094 A 
ATOM      7  C   UNL     1       3.339  -3.222   1.521  0.00  0.00    +0.048 A 
ATOM      8  C   UNL     1       2.895  -4.330   2.224  0.00  0.00    +0.043 A 
ATOM      9  C   UNL     1       3.059  -4.390   3.596  0.00  0.00    +0.024 A 
ATOM     10  C   UNL     1       3.676  -3.356   4.268  0.00  0.00    +0.049 A 
ATOM     11 CL   UNL     1       2.132  -5.642   1.382  0.00  0.00    -0.083 Cl
ENDROOT
BRANCH   3  12
ATOM     12  C   UNL     1       5.675   0.975   4.388  0.00  0.00    +0.260 C 
ATOM     13  O   UNL     1       6.296   0.551   5.339  0.00  0.00    -0.271 OA
ATOM     14  N   UNL     1       5.802   2.266   4.021  0.00  0.00    -0.282 N 
ATOM     15  H   UNL     1       5.249   2.625   3.309  0.00  0.00    +0.155 HD
BRANCH  14  16
ATOM     16  C   UNL     1       6.733   3.089   4.667  0.00  0.00    +0.036 A 
ATOM     17  C   UNL     1       6.459   4.438   4.850  0.00  0.00    +0.026 A 
ATOM     18  C   UNL     1       7.378   5.249   5.488  0.00  0.00    +0.043 A 
ATOM     19  C   UNL     1       8.572   4.718   5.944  0.00  0.00    +0.159 A 
ATOM     20  C   UNL     1       8.849   3.372   5.763  0.00  0.00    +0.160 A 
ATOM     21  C   UNL     1       7.928   2.556   5.130  0.00  0.00    +0.064 A 
ATOM     22  F   UNL     1      10.015   2.856   6.209  0.00  0.00    -0.202 F 
ATOM     23  F   UNL     1       9.469   5.514   6.567  0.00  0.00    -0.202 F 
ENDBRANCH  14  16
ENDBRANCH   3  12
BRANCH   1  24
ATOM     24  S   UNL     1       3.927  -0.778  -0.077  0.00  0.00    +0.075 S 
ATOM     25  O   UNL     1       4.160   0.599  -0.338  0.00  0.00    -0.150 OA
ATOM     26  O   UNL     1       2.647  -1.377  -0.227  0.00  0.00    -0.150 OA
BRANCH  24  30
ATOM     27  C   UNL     1       6.756  -3.095  -2.747  0.00  0.00    +0.000 A 
ATOM     28  C   UNL     1       5.598  -3.691  -2.285  0.00  0.00    +0.002 A 
ATOM     29  C   UNL     1       4.734  -2.984  -1.470  0.00  0.00    +0.029 A 
ATOM     30  C   UNL     1       5.029  -1.680  -1.116  0.00  0.00    +0.109 A 
ATOM     31  C   UNL     1       6.188  -1.085  -1.577  0.00  0.00    +0.029 A 
ATOM     32  C   UNL     1       7.051  -1.791  -2.393  0.00  0.00    +0.002 A 
ENDBRANCH  24  30
ENDBRANCH   1  24
TORSDOF 4
