REMARK  Name = ZINC19354322
REMARK  9 active torsions:
REMARK  status: ('A' for Active; 'I' for Inactive)
REMARK    1  A    between atoms: C_3  and  N_8
REMARK    2  A    between atoms: C_12  and  S_13
REMARK    3  A    between atoms: S_13  and  C_14
REMARK    4  A    between atoms: C_14  and  C_15
REMARK    5  A    between atoms: N_17  and  C_18
REMARK    6  A    between atoms: N_17  and  C_22
REMARK    7  A    between atoms: C_18  and  C_19
REMARK    8  A    between atoms: C_19  and  C_20
REMARK    9  A    between atoms: C_22  and  C_23
REMARK                            x       y       z     vdW  Elec       q    Type
REMARK                         _______ _______ _______ _____ _____    ______ ____
ROOT
ATOM      1  N   UNL     1      -0.071   5.246   0.031  0.00  0.00    -0.258 N 
ATOM      2  C   UNL     1      -0.560   6.050  -0.962  0.00  0.00    +0.225 A 
ATOM      3  N   UNL     1      -0.404   7.296  -0.589  0.00  0.00    -0.112 NA
ATOM      4  N   UNL     1       0.200   7.298   0.675  0.00  0.00    -0.120 NA
ATOM      5  C   UNL     1       0.388   6.053   1.038  0.00  0.00    +0.198 A 
ATOM      6  N   UNL     1      -1.123   5.620  -2.157  0.00  0.00    -0.295 N 
ATOM      7  C   UNL     1      -0.194   4.753  -2.896  0.00  0.00    +0.136 C 
ATOM      8  C   UNL     1      -0.874   4.255  -4.174  0.00  0.00    +0.179 C 
ATOM      9  O   UNL     1      -1.299   5.379  -4.950  0.00  0.00    -0.377 OA
ATOM     10  C   UNL     1      -2.206   6.245  -4.262  0.00  0.00    +0.179 C 
ATOM     11  C   UNL     1      -1.539   6.762  -2.985  0.00  0.00    +0.136 C 
ENDROOT
BRANCH   1  14
ATOM     12  C   UNL     1      -1.219   1.750   0.017  0.00  0.00    +0.005 A 
ATOM     13  C   UNL     1      -1.242   3.131   0.031  0.00  0.00    +0.026 A 
ATOM     14  C   UNL     1      -0.051   3.844   0.023  0.00  0.00    +0.054 A 
ATOM     15  C   UNL     1       1.161   3.167   0.008  0.00  0.00    +0.064 A 
ATOM     16  C   UNL     1       1.178   1.784   0.000  0.00  0.00    +0.125 A 
ATOM     17  C   UNL     1      -0.013   1.076   0.008  0.00  0.00    +0.038 A 
ATOM     18  F   UNL     1       2.357   1.123  -0.014  0.00  0.00    -0.205 F 
ENDBRANCH   1  14
BRANCH   5  19
ATOM     19  S   UNL     1       1.111   5.512   2.551  0.00  0.00    -0.076 S 
BRANCH  19  20
ATOM     20  C   UNL     1       1.497   7.052   3.428  0.00  0.00    +0.173 C 
BRANCH  20  21
ATOM     21  C   UNL     1       2.129   6.728   4.757  0.00  0.00    +0.226 C 
ATOM     22  O   UNL     1       2.302   5.572   5.081  0.00  0.00    -0.275 OA
ATOM     23  N   UNL     1       2.502   7.723   5.586  0.00  0.00    -0.293 N 
BRANCH  23  24
ATOM     24  C   UNL     1       2.293   9.120   5.195  0.00  0.00    +0.123 C 
BRANCH  24  25
ATOM     25  C   UNL     1       0.916   9.583   5.674  0.00  0.00    +0.137 C 
BRANCH  25  26
ATOM     26  C   UNL     1       0.706  10.986   5.281  0.00  0.00    +0.064 C 
ATOM     27  N   UNL     1       0.544  12.069   4.978  0.00  0.00    -0.197 NA
ENDBRANCH  25  26
ENDBRANCH  24  25
ENDBRANCH  23  24
BRANCH  23  28
ATOM     28  C   UNL     1       3.116   7.409   6.878  0.00  0.00    +0.182 C 
BRANCH  28  29
ATOM     29  C   UNL     1       4.612   7.323   6.716  0.00  0.00    +0.122 A 
ATOM     30  C   UNL     1       5.477   8.344   6.851  0.00  0.00    +0.046 A 
ATOM     31  C   UNL     1       6.769   7.820   6.614  0.00  0.00    +0.041 A 
ATOM     32  C   UNL     1       6.616   6.511   6.349  0.00  0.00    +0.195 A 
ATOM     33  O   UNL     1       5.308   6.214   6.418  0.00  0.00    -0.466 OA
ENDBRANCH  28  29
ENDBRANCH  23  28
ENDBRANCH  20  21
ENDBRANCH  19  20
ENDBRANCH   5  19
TORSDOF 9
