REMARK  Name = ZINC06670115
REMARK  7 active torsions:
REMARK  status: ('A' for Active; 'I' for Inactive)
REMARK    1  A    between atoms: C_1  and  C_2
REMARK    2  A    between atoms: C_2  and  C_3
REMARK    3  A    between atoms: C_12  and  O_25
REMARK    4  A    between atoms: C_13  and  C_14
REMARK    5  A    between atoms: C_14  and  N_15
REMARK    6  A    between atoms: N_15  and  C_16
REMARK    7  A    between atoms: C_16  and  C_17
REMARK                            x       y       z     vdW  Elec       q    Type
REMARK                         _______ _______ _______ _____ _____    ______ ____
ROOT
ATOM      1  C   UNL     1      -1.412  -0.526   0.013  0.00  0.00    -0.030 A 
ATOM      2  C   UNL     1      -2.040  -0.862  -1.144  0.00  0.00    +0.096 A 
ATOM      3  C   UNL     1      -3.363  -1.348  -1.107  0.00  0.00    +0.337 A 
ATOM      4  O   UNL     1      -3.915  -1.646  -2.152  0.00  0.00    -0.245 OA
ATOM      5  O   UNL     1      -4.030  -1.492   0.048  0.00  0.00    -0.422 OA
ATOM      6  C   UNL     1      -3.464  -1.176   1.233  0.00  0.00    +0.144 A 
ATOM      7  C   UNL     1      -2.143  -0.690   1.271  0.00  0.00    +0.021 A 
ATOM      8  C   UNL     1      -1.551  -0.367   2.496  0.00  0.00    +0.015 A 
ATOM      9  C   UNL     1      -2.255  -0.529   3.654  0.00  0.00    +0.046 A 
ATOM     10  C   UNL     1      -3.561  -1.015   3.623  0.00  0.00    +0.122 A 
ATOM     11  C   UNL     1      -4.167  -1.330   2.418  0.00  0.00    +0.020 A 
ENDROOT
BRANCH   1  13
ATOM     12  C   UNL     1      -0.019   1.526   0.010  0.00  0.00    +0.009 C 
ATOM     13  C   UNL     1       0.002  -0.004   0.002  0.00  0.00    +0.033 C 
ENDBRANCH   1  13
BRANCH  10  14
ATOM     14  O   UNL     1      -4.248  -1.171   4.783  0.00  0.00    -0.506 OA
ATOM     15  H   UNL     1      -4.753  -0.390   5.050  0.00  0.00    +0.292 HD
ENDBRANCH  10  14
BRANCH  11  16
ATOM     16  C   UNL     1      -5.580  -1.854   2.396  0.00  0.00    -0.039 C 
BRANCH  16  17
ATOM     17  N   UNL     1      -5.560  -3.319   2.505  0.00  0.00    +0.385 N 
ATOM     18  H   UNL     1      -5.045  -3.707   1.729  0.00  0.00    -0.085 HD
ATOM     19  H   UNL     1      -5.116  -3.586   3.370  0.00  0.00    -0.085 HD
BRANCH  17  20
ATOM     20  C   UNL     1      -6.937  -3.830   2.484  0.00  0.00    -0.042 C 
BRANCH  20  21
ATOM     21  C   UNL     1      -6.917  -5.332   2.595  0.00  0.00    -0.011 A 
ATOM     22  C   UNL     1      -6.851  -6.111   1.452  0.00  0.00    +0.126 A 
ATOM     23  C   UNL     1      -6.833  -7.492   1.557  0.00  0.00    +0.038 A 
ATOM     24  C   UNL     1      -6.881  -8.092   2.801  0.00  0.00    +0.004 A 
ATOM     25  C   UNL     1      -6.947  -7.314   3.942  0.00  0.00    +0.020 A 
ATOM     26  C   UNL     1      -6.959  -5.934   3.840  0.00  0.00    +0.045 A 
ATOM     27 CL   UNL     1      -7.035  -4.959   5.274  0.00  0.00    -0.083 Cl
ATOM     28  F   UNL     1      -6.805  -5.524   0.236  0.00  0.00    -0.205 F 
ENDBRANCH  20  21
ENDBRANCH  17  20
ENDBRANCH  16  17
ENDBRANCH  11  16
TORSDOF 6
