REMARK  Name = ZINC27754269
REMARK  6 active torsions:
REMARK  status: ('A' for Active; 'I' for Inactive)
REMARK    1  A    between atoms: C_4  and  C_7
REMARK    2  A    between atoms: C_7  and  O_34
REMARK    3  A    between atoms: C_8  and  C_28
REMARK    4  A    between atoms: C_10  and  C_16
REMARK    5  A    between atoms: C_19  and  C_21
REMARK    6  A    between atoms: C_28  and  C_30
REMARK                            x       y       z     vdW  Elec       q    Type
REMARK                         _______ _______ _______ _____ _____    ______ ____
ROOT
ATOM      1  C   UNL     1       2.261   0.841  -0.105  0.00  0.00    +0.172 C 
ATOM      2  C   UNL     1       2.863   1.088  -1.493  0.00  0.00    +0.147 C 
ATOM      3  C   UNL     1       2.069   0.270  -2.520  0.00  0.00    +0.156 C 
ATOM      4  N   UNL     1       2.070  -1.138  -2.117  0.00  0.00    -0.289 N 
ATOM      5  C   UNL     1       2.153  -1.494  -0.827  0.00  0.00    +0.303 C 
ATOM      6  O   UNL     1       2.139  -2.677  -0.546  0.00  0.00    -0.253 OA
ATOM      7  N   UNL     1       2.251  -0.597   0.166  0.00  0.00    -0.267 N 
ATOM      8  H   UNL     1       2.001  -1.928  -2.880  0.00  0.00    +0.151 HD
ATOM      9  H   UNL     1       2.325  -0.962   1.201  0.00  0.00    +0.153 HD
ENDROOT
BRANCH   1  13
ATOM     10  C   UNL     1      -1.736   2.344   0.004  0.00  0.00    +0.000 A 
ATOM     11  C   UNL     1      -1.506   1.012  -0.286  0.00  0.00    +0.000 A 
ATOM     12  C   UNL     1      -0.212   0.525  -0.317  0.00  0.00    +0.008 A 
ATOM     13  C   UNL     1       0.851   1.371  -0.066  0.00  0.00    +0.003 A 
ATOM     14  C   UNL     1       0.622   2.704   0.221  0.00  0.00    +0.008 A 
ATOM     15  C   UNL     1      -0.672   3.190   0.256  0.00  0.00    +0.000 A 
ENDBRANCH   1  13
BRANCH   3  16
ATOM     16  C   UNL     1       2.710   0.406  -3.877  0.00  0.00    +0.127 A 
ATOM     17  C   UNL     1       2.329   1.265  -4.843  0.00  0.00    +0.047 A 
ATOM     18  C   UNL     1       3.192   1.062  -5.939  0.00  0.00    +0.050 A 
ATOM     19  C   UNL     1       4.055   0.075  -5.580  0.00  0.00    +0.135 A 
ATOM     20  O   UNL     1       3.751  -0.314  -4.327  0.00  0.00    -0.458 OA
BRANCH  19  21
ATOM     21  C   UNL     1       5.139  -0.476  -6.420  0.00  0.00    +0.017 A 
ATOM     22  C   UNL     1       5.345   0.015  -7.711  0.00  0.00    +0.013 A 
ATOM     23  C   UNL     1       6.361  -0.500  -8.488  0.00  0.00    +0.021 A 
ATOM     24  C   UNL     1       7.170  -1.510  -7.994  0.00  0.00    +0.041 A 
ATOM     25  C   UNL     1       6.968  -2.005  -6.717  0.00  0.00    +0.021 A 
ATOM     26  C   UNL     1       5.958  -1.494  -5.928  0.00  0.00    +0.013 A 
ATOM     27 CL   UNL     1       8.443  -2.158  -8.981  0.00  0.00    -0.084 Cl
ENDBRANCH  19  21
ENDBRANCH   3  16
BRANCH   2  28
ATOM     28  C   UNL     1       4.305   0.651  -1.504  0.00  0.00    +0.245 C 
ATOM     29  O   UNL     1       4.584  -0.506  -1.706  0.00  0.00    -0.287 OA
BRANCH  28  30
ATOM     30  C   UNL     1       5.400   1.659  -1.263  0.00  0.00    +0.451 C 
ATOM     31  F   UNL     1       6.645   1.039  -1.412  0.00  0.00    -0.163 F 
ATOM     32  F   UNL     1       5.285   2.702  -2.188  0.00  0.00    -0.163 F 
ATOM     33  F   UNL     1       5.285   2.170   0.034  0.00  0.00    -0.163 F 
ENDBRANCH  28  30
ENDBRANCH   2  28
BRANCH   1  34
ATOM     34  O   UNL     1       3.050   1.508   0.882  0.00  0.00    -0.367 OA
ATOM     35  H   UNL     1       4.113   1.251   1.003  0.00  0.00    +0.212 HD
ENDBRANCH   1  34
TORSDOF 6
