REMARK  Name = ZINC09108669
REMARK  5 active torsions:
REMARK  status: ('A' for Active; 'I' for Inactive)
REMARK    1  A    between atoms: C_1  and  S_2
REMARK    2  A    between atoms: S_2  and  C_3
REMARK    3  A    between atoms: C_9  and  C_23
REMARK    4  A    between atoms: C_11  and  C_16
REMARK    5  A    between atoms: C_16  and  C_18
REMARK                            x       y       z     vdW  Elec       q    Type
REMARK                         _______ _______ _______ _____ _____    ______ ____
ROOT
ATOM      1  C   UNL     1       2.020   1.741   0.340  0.00  0.00    +0.160 A 
ATOM      2  N   UNL     1       2.319   0.453   0.255  0.00  0.00    -0.133 NA
ATOM      3  N   UNL     1       1.426  -0.435   0.182  0.00  0.00    -0.125 NA
ATOM      4  C   UNL     1       0.137  -0.136   0.187  0.00  0.00    +0.192 A 
ATOM      5  S   UNL     1       0.232   1.648   0.311  0.00  0.00    -0.024 S 
ATOM      6  N   UNL     1      -0.974  -0.968   0.115  0.00  0.00    -0.230 N 
ATOM      7  C   UNL     1      -0.951  -2.432   0.008  0.00  0.00    +0.152 C 
ATOM      8  C   UNL     1      -2.396  -2.872  -0.035  0.00  0.00    +0.077 C 
ATOM      9  C   UNL     1      -3.148  -1.749   0.032  0.00  0.00    +0.250 C 
ATOM     10  C   UNL     1      -2.260  -0.575   0.125  0.00  0.00    +0.293 C 
ATOM     11  O   UNL     1      -2.636   0.579   0.199  0.00  0.00    -0.266 OA
ATOM     12  O   UNL     1      -4.501  -1.710   0.017  0.00  0.00    -0.282 OA
ENDROOT
BRANCH   7  13
ATOM     13  C   UNL     1      -0.266  -3.029   1.211  0.00  0.00    -0.022 A 
ATOM     14  C   UNL     1      -0.552  -2.551   2.476  0.00  0.00    +0.008 A 
ATOM     15  C   UNL     1       0.072  -3.101   3.580  0.00  0.00    +0.038 A 
ATOM     16  C   UNL     1       0.992  -4.123   3.417  0.00  0.00    +0.123 A 
ATOM     17  C   UNL     1       1.281  -4.596   2.149  0.00  0.00    +0.038 A 
ATOM     18  C   UNL     1       0.652  -4.049   1.047  0.00  0.00    +0.008 A 
ATOM     19  F   UNL     1       1.607  -4.657   4.495  0.00  0.00    -0.205 F 
ENDBRANCH   7  13
BRANCH   1  21
ATOM     20  C   UNL     1       4.750   2.438   0.422  0.00  0.00    +0.092 C 
ATOM     21  S   UNL     1       3.080   3.145   0.450  0.00  0.00    -0.100 S 
ENDBRANCH   1  21
BRANCH   8  22
ATOM     22  C   UNL     1      -2.888  -4.251  -0.136  0.00  0.00    +0.202 C 
ATOM     23  O   UNL     1      -3.511  -4.744   0.788  0.00  0.00    -0.286 OA
BRANCH  22  24
ATOM     24  C   UNL     1      -2.630  -5.034  -1.347  0.00  0.00    +0.059 A 
ATOM     25  C   UNL     1      -3.079  -6.305  -1.680  0.00  0.00    +0.019 A 
ATOM     26  C   UNL     1      -2.684  -6.809  -2.893  0.00  0.00    +0.008 A 
ATOM     27  C   UNL     1      -1.886  -6.055  -3.697  0.00  0.00    +0.046 A 
ATOM     28  S   UNL     1      -1.664  -4.599  -2.783  0.00  0.00    -0.093 S 
ENDBRANCH  22  24
ENDBRANCH   8  22
TORSDOF 4
