REMARK  Name = ZINC34826488
REMARK  9 active torsions:
REMARK  status: ('A' for Active; 'I' for Inactive)
REMARK    1  A    between atoms: C_1  and  C_2
REMARK    2  A    between atoms: C_6  and  C_33
REMARK    3  A    between atoms: C_15  and  C_29
REMARK    4  A    between atoms: C_18  and  O_28
REMARK    5  A    between atoms: C_20  and  O_27
REMARK    6  A    between atoms: C_31  and  C_32
REMARK    7  A    between atoms: C_33  and  C_34
REMARK    8  A    between atoms: C_34  and  C_35
REMARK    9  A    between atoms: C_34  and  C_36
REMARK                            x       y       z     vdW  Elec       q    Type
REMARK                         _______ _______ _______ _____ _____    ______ ____
ROOT
ATOM      1  C   UNL     1      -0.520   3.182  -0.461  0.00  0.00    +0.012 C 
ATOM      2  C   UNL     1      -0.323   1.833   0.216  0.00  0.00    +0.020 C 
ATOM      3  C   UNL     1      -1.561   1.053   0.555  0.00  0.00    +0.070 C 
ATOM      4  C   UNL     1      -2.506   0.507  -0.497  0.00  0.00    +0.081 C 
ATOM      5  N   UNL     1      -3.777   0.332   0.250  0.00  0.00    -0.309 N 
ATOM      6  C   UNL     1      -3.764   1.024   1.417  0.00  0.00    +0.259 C 
ATOM      7  O   UNL     1      -4.621   0.993   2.275  0.00  0.00    -0.271 OA
ATOM      8  C   UNL     1      -2.506   1.855   1.464  0.00  0.00    +0.203 C 
ATOM      9  C   UNL     1      -1.849   1.960   2.830  0.00  0.00    +0.088 C 
ATOM     10  C   UNL     1      -2.204   0.764   3.670  0.00  0.00    -0.016 C 
ATOM     11  C   UNL     1      -2.759   0.895   4.848  0.00  0.00    -0.076 C 
ATOM     12  C   UNL     1      -3.081   2.247   5.427  0.00  0.00    +0.033 C 
ATOM     13  C   UNL     1      -4.544   2.599   5.141  0.00  0.00    +0.038 C 
ATOM     14  C   UNL     1      -4.803   4.048   5.552  0.00  0.00    +0.147 C 
ATOM     15  C   UNL     1      -5.082   4.905   4.313  0.00  0.00    +0.166 C 
ATOM     16  C   UNL     1      -4.285   4.390   3.145  0.00  0.00    +0.013 C 
ATOM     17  C   UNL     1      -4.896   3.986   2.035  0.00  0.00    +0.090 C 
ATOM     18  C   UNL     1      -4.149   3.452   0.892  0.00  0.00    +0.333 C 
ATOM     19  O   UNL     1      -4.734   3.263  -0.160  0.00  0.00    -0.246 OA
ATOM     20  O   UNL     1      -2.835   3.157   0.988  0.00  0.00    -0.444 OA
ATOM     21  C   UNL     1      -3.083  -0.343   5.653  0.00  0.00    +0.039 C 
ATOM     22  C   UNL     1      -0.367   2.092   2.661  0.00  0.00    -0.016 C 
ATOM     23  C   UNL     1       0.341   2.044   1.580  0.00  0.00    -0.073 C 
ATOM     24  C   UNL     1       1.837   2.195   1.650  0.00  0.00    +0.039 C 
ATOM     25  H   UNL     1      -4.523  -0.210  -0.062  0.00  0.00    +0.149 HD
ENDROOT
BRANCH  15  26
ATOM     26  O   UNL     1      -6.477   4.865   4.010  0.00  0.00    -0.385 OA
ATOM     27  H   UNL     1      -6.727   5.387   3.236  0.00  0.00    +0.210 HD
ENDBRANCH  15  26
BRANCH  14  28
ATOM     28  O   UNL     1      -5.938   4.095   6.423  0.00  0.00    -0.389 OA
ATOM     29  H   UNL     1      -6.164   4.985   6.726  0.00  0.00    +0.210 HD
ENDBRANCH  14  28
BRANCH   4  30
ATOM     30  C   UNL     1      -2.715   1.390  -1.720  0.00  0.00    +0.025 C 
BRANCH  30  31
ATOM     31  C   UNL     1      -3.524   0.625  -2.769  0.00  0.00    -0.015 C 
ATOM     32  C   UNL     1      -4.945   0.397  -2.251  0.00  0.00    +0.007 C 
ATOM     33  C   UNL     1      -3.577   1.438  -4.064  0.00  0.00    +0.007 C 
ENDBRANCH  30  31
ENDBRANCH   4  30
TORSDOF 4
