REMARK  Name = ZINC21992771
REMARK  7 active torsions:
REMARK  status: ('A' for Active; 'I' for Inactive)
REMARK    1  A    between atoms: C_1  and  C_2
REMARK    2  A    between atoms: C_13  and  C_14
REMARK    3  A    between atoms: C_13  and  O_15
REMARK    4  A    between atoms: C_18  and  C_25
REMARK    5  A    between atoms: C_20  and  C_21
REMARK    6  A    between atoms: C_20  and  C_22
REMARK    7  A    between atoms: C_25  and  C_26
REMARK                            x       y       z     vdW  Elec       q    Type
REMARK                         _______ _______ _______ _____ _____    ______ ____
ROOT
ATOM      1  C   UNL     1      -0.876   1.430  -1.662  0.00  0.00    +0.014 C 
ATOM      2  C   UNL     1      -0.234   1.105  -0.287  0.00  0.00    -0.000 C 
ATOM      3  C   UNL     1       1.048   1.893  -0.234  0.00  0.00    +0.010 C 
ATOM      4  C   UNL     1       2.074   1.371   0.765  0.00  0.00    +0.005 C 
ATOM      5  C   UNL     1       2.332  -0.115   0.483  0.00  0.00    +0.009 C 
ATOM      6  C   UNL     1       1.028  -0.860   0.751  0.00  0.00    -0.003 C 
ATOM      7  C   UNL     1      -0.045  -0.416  -0.249  0.00  0.00    +0.001 C 
ATOM      8  C   UNL     1      -1.406  -0.941   0.289  0.00  0.00    +0.007 C 
ATOM      9  C   UNL     1      -1.829   0.131   1.316  0.00  0.00    +0.035 C 
ATOM     10  C   UNL     1      -1.280   1.466   0.767  0.00  0.00    +0.069 C 
ATOM     11  C   UNL     1      -0.721   2.305   1.912  0.00  0.00    +0.042 C 
ATOM     12  C   UNL     1       1.235  -2.368   0.583  0.00  0.00    +0.004 C 
ATOM     13  C   UNL     1       2.326  -2.855   1.531  0.00  0.00    +0.005 C 
ATOM     14  C   UNL     1       3.641  -2.140   1.248  0.00  0.00    +0.017 C 
ATOM     15  C   UNL     1       3.484  -0.624   1.335  0.00  0.00    +0.076 C 
ATOM     16  C   UNL     1       4.795   0.009   0.833  0.00  0.00    +0.023 C 
ENDROOT
BRANCH  15  17
ATOM     17  C   UNL     1       3.300  -0.233   2.781  0.00  0.00    +0.362 C 
ATOM     18  O   UNL     1       4.044   0.572   3.289  0.00  0.00    -0.246 OA
ATOM     19  O   UNL     1       2.309  -0.780   3.503  0.00  0.00    -0.246 OA
ENDBRANCH  15  17
BRANCH  10  20
ATOM     20  O   UNL     1      -2.355   2.186   0.140  0.00  0.00    -0.388 OA
ATOM     21  H   UNL     1      -3.208   2.533   0.741  0.00  0.00    +0.210 HD
ENDBRANCH  10  20
BRANCH  14  22
ATOM     22  C   UNL     1       4.184  -2.536  -0.125  0.00  0.00    +0.129 C 
BRANCH  22  23
ATOM     23  C   UNL     1       4.560  -3.995  -0.115  0.00  0.00    +0.356 C 
ATOM     24  O   UNL     1       4.410  -4.651   0.888  0.00  0.00    -0.246 OA
ATOM     25  O   UNL     1       5.063  -4.566  -1.221  0.00  0.00    -0.246 OA
ENDBRANCH  22  23
ENDBRANCH  14  22
TORSDOF 4
