REMARK  Name = ZINC04595720
REMARK  5 active torsions:
REMARK  status: ('A' for Active; 'I' for Inactive)
REMARK    1  A    between atoms: C_1  and  C_2
REMARK    2  A    between atoms: C_9  and  N_13
REMARK    3  A    between atoms: N_13  and  N_14
REMARK    4  A    between atoms: C_15  and  C_16
REMARK    5  A    between atoms: C_21  and  O_22
REMARK                            x       y       z     vdW  Elec       q    Type
REMARK                         _______ _______ _______ _____ _____    ______ ____
ROOT
ATOM      1  N   UNL     1       0.113  -6.890   1.211  0.00  0.00    -0.221 N 
ATOM      2  H   UNL     1       0.115  -7.023   0.250  0.00  0.00    +0.176 HD
ENDROOT
BRANCH   1  11
ATOM      3  C   UNL     1      -0.018   1.503   0.010  0.00  0.00    +0.047 C 
ATOM      4  C   UNL     1       0.002  -0.004   0.002  0.00  0.00    -0.013 A 
ATOM      5  C   UNL     1       0.009  -0.821  -1.135  0.00  0.00    +0.138 A 
ATOM      6  N   UNL     1       0.028  -2.069  -0.745  0.00  0.00    -0.173 NA
ATOM      7  N   UNL     1       0.034  -2.092   0.655  0.00  0.00    -0.221 N 
ATOM      8  C   UNL     1       0.023  -0.805   1.092  0.00  0.00    +0.119 A 
ATOM      9  C   UNL     1       0.053  -3.233   1.460  0.00  0.00    +0.159 A 
ATOM     10  C   UNL     1       0.074  -4.499   0.887  0.00  0.00    +0.093 A 
ATOM     11  C   UNL     1       0.092  -5.606   1.733  0.00  0.00    +0.143 A 
ATOM     12  N   UNL     1       0.089  -5.412   3.050  0.00  0.00    -0.219 NA
ATOM     13  C   UNL     1       0.069  -4.195   3.553  0.00  0.00    +0.225 A 
ATOM     14  N   UNL     1       0.057  -3.124   2.786  0.00  0.00    -0.216 NA
ENDBRANCH   1  11
BRANCH   1  15
ATOM     15  N   UNL     1       0.131  -7.995   2.071  0.00  0.00    -0.189 NA
ATOM     16  C   UNL     1       0.150  -9.198   1.582  0.00  0.00    +0.142 C 
BRANCH  16  17
ATOM     17  C   UNL     1       0.170 -10.361   2.487  0.00  0.00    +0.039 A 
ATOM     18  C   UNL     1       0.197 -11.656   1.965  0.00  0.00    +0.033 A 
ATOM     19  C   UNL     1       0.214 -12.742   2.817  0.00  0.00    +0.043 A 
ATOM     20  C   UNL     1       0.206 -12.552   4.189  0.00  0.00    +0.043 A 
ATOM     21  C   UNL     1       0.179 -11.274   4.718  0.00  0.00    +0.084 A 
ATOM     22  C   UNL     1       0.167 -10.173   3.875  0.00  0.00    +0.144 A 
ATOM     23 CL   UNL     1       0.167 -11.047   6.439  0.00  0.00    -0.080 Cl
ATOM     24 CL   UNL     1       0.247 -14.351   2.167  0.00  0.00    -0.083 Cl
BRANCH  22  25
ATOM     25  O   UNL     1       0.147  -8.918   4.394  0.00  0.00    -0.505 OA
ATOM     26  H   UNL     1      -0.742  -8.568   4.544  0.00  0.00    +0.292 HD
ENDBRANCH  22  25
ENDBRANCH  16  17
ENDBRANCH   1  15
TORSDOF 4
