REMARK  Name = ZINC11840224
REMARK  10 active torsions:
REMARK  status: ('A' for Active; 'I' for Inactive)
REMARK    1  A    between atoms: C_1  and  C_2
REMARK    2  A    between atoms: C_3  and  C_17
REMARK    3  A    between atoms: N_6  and  C_7
REMARK    4  A    between atoms: C_17  and  C_19
REMARK    5  A    between atoms: C_17  and  N_53
REMARK    6  A    between atoms: C_20  and  C_21
REMARK    7  A    between atoms: C_20  and  N_53
REMARK    8  A    between atoms: C_23  and  O_29
REMARK    9  A    between atoms: C_24  and  O_28
REMARK   10  A    between atoms: O_29  and  C_30
REMARK                            x       y       z     vdW  Elec       q    Type
REMARK                         _______ _______ _______ _____ _____    ______ ____
ROOT
ATOM      1  C   UNL     1      -7.303   2.875   0.230  0.00  0.00    -0.040 C 
ATOM      2  C   UNL     1      -7.703   3.063   1.695  0.00  0.00    -0.009 C 
ENDROOT
BRANCH   1   5
ATOM      3  C   UNL     1      -5.198   5.189   0.314  0.00  0.00    +0.066 C 
ATOM      4  C   UNL     1      -4.898   3.719   0.171  0.00  0.00    +0.043 A 
ATOM      5  C   UNL     1      -5.807   2.717   0.135  0.00  0.00    -0.021 A 
ATOM      6  C   UNL     1      -5.114   1.510  -0.000  0.00  0.00    +0.137 A 
ATOM      7  N   UNL     1      -3.833   1.773  -0.050  0.00  0.00    -0.174 NA
ATOM      8  N   UNL     1      -3.666   3.160   0.052  0.00  0.00    -0.236 N 
BRANCH   8   9
ATOM      9  C   UNL     1      -2.447   3.847   0.039  0.00  0.00    +0.073 A 
ATOM     10  C   UNL     1      -2.273   4.940  -0.781  0.00  0.00    +0.028 A 
ATOM     11  C   UNL     1      -1.065   5.630  -0.801  0.00  0.00    +0.003 A 
ATOM     12  C   UNL     1      -0.023   5.247  -0.013  0.00  0.00    +0.008 A 
ATOM     13  C   UNL     1      -0.160   4.137   0.839  0.00  0.00    -0.016 A 
ATOM     14  C   UNL     1      -1.385   3.427   0.867  0.00  0.00    +0.008 A 
ATOM     15  C   UNL     1      -1.517   2.314   1.713  0.00  0.00    +0.010 A 
ATOM     16  C   UNL     1      -0.473   1.940   2.502  0.00  0.00    +0.001 A 
ATOM     17  C   UNL     1       0.733   2.639   2.475  0.00  0.00    +0.001 A 
ATOM     18  C   UNL     1       0.899   3.718   1.663  0.00  0.00    +0.008 A 
ENDBRANCH   8   9
ENDBRANCH   1   5
BRANCH   1  19
ATOM     19  N   UNL     1      -7.952   1.663  -0.305  0.00  0.00    +0.386 N 
ATOM     20  H   UNL     1      -8.008   0.954   0.434  0.00  0.00    -0.085 HD
ATOM     21  H   UNL     1      -7.396   1.299  -1.088  0.00  0.00    -0.085 HD
BRANCH  19  22
ATOM     22  C   UNL     1      -9.312   1.979  -0.781  0.00  0.00    -0.044 C 
BRANCH  22  23
ATOM     23  C   UNL     1      -9.950   0.725  -1.322  0.00  0.00    -0.042 A 
ATOM     24  C   UNL     1     -10.918   0.069  -0.583  0.00  0.00    +0.052 A 
ATOM     25  C   UNL     1     -11.508  -1.081  -1.081  0.00  0.00    +0.162 A 
ATOM     26  C   UNL     1     -11.118  -1.580  -2.320  0.00  0.00    +0.160 A 
ATOM     27  C   UNL     1     -10.144  -0.922  -3.053  0.00  0.00    +0.069 A 
ATOM     28  C   UNL     1      -9.562   0.229  -2.553  0.00  0.00    +0.046 A 
ATOM     29 CL   UNL     1      -8.341   1.053  -3.473  0.00  0.00    -0.083 Cl
BRANCH  26  30
ATOM     30  O   UNL     1     -11.692  -2.711  -2.810  0.00  0.00    -0.503 OA
ATOM     31  H   UNL     1     -11.233  -3.525  -2.559  0.00  0.00    +0.292 HD
ENDBRANCH  26  30
BRANCH  25  32
ATOM     32  O   UNL     1     -12.464  -1.724  -0.357  0.00  0.00    -0.491 OA
ATOM     33  C   UNL     1     -12.814  -1.154   0.906  0.00  0.00    +0.277 C 
ENDBRANCH  25  32
ENDBRANCH  22  23
ENDBRANCH  19  22
ENDBRANCH   1  19
TORSDOF 7
