REMARK  Name = ZINC63426712
REMARK  11 active torsions:
REMARK  status: ('A' for Active; 'I' for Inactive)
REMARK    1  A    between atoms: C_1  and  C_2
REMARK    2  A    between atoms: C_2  and  C_3
REMARK    3  A    between atoms: C_2  and  C_4
REMARK    4  A    between atoms: C_2  and  O_5
REMARK    5  A    between atoms: O_5  and  C_6
REMARK    6  A    between atoms: N_8  and  C_9
REMARK    7  A    between atoms: C_9  and  C_11
REMARK    8  A    between atoms: C_9  and  C_21
REMARK    9  A    between atoms: C_11  and  C_12
REMARK   10  A    between atoms: N_23  and  N_24
REMARK   11  A    between atoms: C_25  and  C_26
REMARK                            x       y       z     vdW  Elec       q    Type
REMARK                         _______ _______ _______ _____ _____    ______ ____
ROOT
ATOM      1  C   UNL     1       4.035  -0.071  -2.601  0.00  0.00    +0.168 C 
ENDROOT
BRANCH   1   4
ATOM      2  C   UNL     1       1.952  -0.085  -1.337  0.00  0.00    +0.401 C 
ATOM      3  O   UNL     1       2.488   0.619  -0.503  0.00  0.00    -0.226 OA
ATOM      4  N   UNL     1       2.641  -0.485  -2.424  0.00  0.00    -0.269 N 
ATOM      5  H   UNL     1       2.213  -1.047  -3.089  0.00  0.00    +0.153 HD
BRANCH   2   6
ATOM      6  O   UNL     1       0.671  -0.465  -1.174  0.00  0.00    -0.445 OA
BRANCH   6   8
ATOM      7  C   UNL     1      -0.019   1.526   0.010  0.00  0.00    +0.055 C 
ATOM      8  C   UNL     1       0.002  -0.004   0.002  0.00  0.00    +0.107 C 
ATOM      9  C   UNL     1       0.742  -0.511   1.242  0.00  0.00    +0.055 C 
ATOM     10  C   UNL     1      -1.433  -0.534   0.013  0.00  0.00    +0.055 C 
ENDBRANCH   6   8
ENDBRANCH   2   6
ENDBRANCH   1   4
BRANCH   1  11
ATOM     11  C   UNL     1       4.859  -0.573  -1.444  0.00  0.00    +0.253 C 
ATOM     12  O   UNL     1       4.318  -0.883  -0.403  0.00  0.00    -0.272 OA
ATOM     13  N   UNL     1       6.197  -0.678  -1.564  0.00  0.00    -0.205 N 
ATOM     14  H   UNL     1       6.630  -0.430  -2.396  0.00  0.00    +0.177 HD
BRANCH  13  15
ATOM     15  N   UNL     1       6.963  -1.144  -0.488  0.00  0.00    -0.188 NA
ATOM     16  C   UNL     1       8.253  -1.245  -0.604  0.00  0.00    +0.140 C 
BRANCH  16  17
ATOM     17  C   UNL     1       9.058  -1.735   0.526  0.00  0.00    +0.022 A 
ATOM     18  C   UNL     1      10.439  -1.843   0.419  0.00  0.00    +0.012 A 
ATOM     19  C   UNL     1      11.195  -2.306   1.487  0.00  0.00    +0.003 A 
ATOM     20  C   UNL     1      10.624  -2.668   2.667  0.00  0.00    +0.030 A 
ATOM     21  C   UNL     1       9.232  -2.586   2.847  0.00  0.00    +0.090 A 
ATOM     22  C   UNL     1       8.421  -2.113   1.786  0.00  0.00    +0.098 A 
ATOM     23  N   UNL     1       7.101  -2.026   1.950  0.00  0.00    -0.251 NA
ATOM     24  C   UNL     1       6.562  -2.375   3.098  0.00  0.00    +0.131 A 
ATOM     25  C   UNL     1       7.360  -2.835   4.147  0.00  0.00    +0.131 A 
ATOM     26  N   UNL     1       8.662  -2.940   4.004  0.00  0.00    -0.252 NA
ENDBRANCH  16  17
ENDBRANCH  13  15
ENDBRANCH   1  11
BRANCH   1  27
ATOM     27  C   UNL     1       4.111   1.456  -2.657  0.00  0.00    +0.065 C 
BRANCH  27  28
ATOM     28  C   UNL     1       3.389   1.950  -3.884  0.00  0.00    -0.039 C 
ATOM     29  C   UNL     1       2.108   2.377  -3.958  0.00  0.00    -0.001 A 
ATOM     30  C   UNL     1       1.043   2.502  -2.955  0.00  0.00    +0.010 A 
ATOM     31  C   UNL     1      -0.167   2.972  -3.338  0.00  0.00    +0.001 A 
ATOM     32  C   UNL     1      -0.428   3.340  -4.665  0.00  0.00    +0.002 A 
ATOM     33  C   UNL     1       0.500   3.252  -5.642  0.00  0.00    +0.026 A 
ATOM     34  C   UNL     1       1.807   2.772  -5.352  0.00  0.00    +0.043 A 
ATOM     35  N   UNL     1       2.861   2.597  -6.111  0.00  0.00    -0.380 N 
ATOM     36  C   UNL     1       3.953   2.076  -5.282  0.00  0.00    +0.144 C 
ATOM     37  H   UNL     1       2.912   2.785  -7.061  0.00  0.00    +0.160 HD
ENDBRANCH  27  28
ENDBRANCH   1  27
TORSDOF 8
