REMARK  Name = ZINC14467389
REMARK  8 active torsions:
REMARK  status: ('A' for Active; 'I' for Inactive)
REMARK    1  A    between atoms: C_2  and  C_3
REMARK    2  A    between atoms: C_3  and  N_4
REMARK    3  A    between atoms: N_4  and  C_5
REMARK    4  A    between atoms: N_4  and  S_8
REMARK    5  A    between atoms: C_5  and  C_6
REMARK    6  A    between atoms: S_8  and  C_11
REMARK    7  A    between atoms: C_24  and  C_27
REMARK    8  A    between atoms: C_32  and  O_33
REMARK                            x       y       z     vdW  Elec       q    Type
REMARK                         _______ _______ _______ _____ _____    ______ ____
ROOT
ATOM      1  C   UNL     1      -1.245   3.129   0.030  0.00  0.00    +0.106 A 
ATOM      2  C   UNL     1      -1.218   1.746   0.017  0.00  0.00    +0.030 A 
ATOM      3  C   UNL     1      -0.013   1.076   0.008  0.00  0.00    +0.025 A 
ATOM      4  C   UNL     1       1.183   1.784   0.000  0.00  0.00    +0.031 A 
ATOM      5  C   UNL     1       1.149   3.182   0.020  0.00  0.00    -0.018 A 
ATOM      6  C   UNL     1      -0.061   3.842   0.028  0.00  0.00    +0.034 A 
ATOM      7  C   UNL     1       2.444   3.897   0.038  0.00  0.00    +0.049 C 
ATOM      8  C   UNL     1       2.588   5.278  -0.488  0.00  0.00    -0.023 C 
ATOM      9  C   UNL     1       3.817   5.422  -0.969  0.00  0.00    -0.030 C 
ATOM     10  C   UNL     1       4.592   4.110  -0.826  0.00  0.00    +0.033 C 
ATOM     11  C   UNL     1       3.455   3.079  -0.820  0.00  0.00    +0.029 C 
ATOM     12  C   UNL     1       3.692   1.792  -0.050  0.00  0.00    +0.109 C 
ATOM     13  N   UNL     1       2.394   1.082  -0.050  0.00  0.00    -0.336 N 
ATOM     14  H   UNL     1       2.382   0.113  -0.085  0.00  0.00    +0.147 HD
ENDROOT
BRANCH  12  15
ATOM     15  C   UNL     1       4.741   0.959  -0.740  0.00  0.00    +0.017 A 
ATOM     16  C   UNL     1       4.364  -0.036  -1.622  0.00  0.00    +0.029 A 
ATOM     17  C   UNL     1       5.326  -0.801  -2.256  0.00  0.00    +0.043 A 
ATOM     18  C   UNL     1       6.668  -0.574  -2.008  0.00  0.00    +0.043 A 
ATOM     19  C   UNL     1       7.050   0.420  -1.127  0.00  0.00    +0.084 A 
ATOM     20  C   UNL     1       6.085   1.193  -0.494  0.00  0.00    +0.140 A 
ATOM     21 CL   UNL     1       8.733   0.706  -0.816  0.00  0.00    -0.080 Cl
ATOM     22 CL   UNL     1       4.849  -2.050  -3.364  0.00  0.00    -0.083 Cl
BRANCH  20  23
ATOM     23  O   UNL     1       6.458   2.175   0.369  0.00  0.00    -0.505 OA
ATOM     24  H   UNL     1       6.545   1.880   1.286  0.00  0.00    +0.292 HD
ENDBRANCH  20  23
ENDBRANCH  12  15
BRANCH   1  25
ATOM     25  S   UNL     1      -2.787   3.981   0.040  0.00  0.00    +0.061 S 
ATOM     26  O   UNL     1      -3.743   3.084   0.590  0.00  0.00    -0.153 OA
ATOM     27  O   UNL     1      -2.538   5.264   0.596  0.00  0.00    -0.153 OA
BRANCH  25  28
ATOM     28  N   UNL     1      -3.222   4.225  -1.539  0.00  0.00    -0.169 NA
BRANCH  28  29
ATOM     29  C   UNL     1      -4.028   3.222  -2.240  0.00  0.00    +0.136 C 
BRANCH  29  31
ATOM     30  C   UNL     1      -6.194   3.720  -3.251  0.00  0.00    +0.005 C 
ATOM     31  C   UNL     1      -5.484   3.600  -2.157  0.00  0.00    -0.018 C 
ENDBRANCH  29  31
ENDBRANCH  28  29
BRANCH  28  32
ATOM     32  C   UNL     1      -2.801   5.443  -2.235  0.00  0.00    +0.136 C 
BRANCH  32  33
ATOM     33  C   UNL     1      -1.533   5.171  -3.002  0.00  0.00    -0.018 C 
ATOM     34  C   UNL     1      -1.479   5.418  -4.288  0.00  0.00    +0.005 C 
ENDBRANCH  32  33
ENDBRANCH  28  32
ENDBRANCH  25  28
ENDBRANCH   1  25
TORSDOF 8
