REMARK  Name = ZINC16231611
REMARK  10 active torsions:
REMARK  status: ('A' for Active; 'I' for Inactive)
REMARK    1  A    between atoms: C_1  and  C_2
REMARK    2  A    between atoms: C_2  and  C_3
REMARK    3  A    between atoms: C_3  and  N_4
REMARK    4  A    between atoms: N_11  and  C_14
REMARK    5  A    between atoms: C_14  and  C_15
REMARK    6  A    between atoms: C_15  and  C_16
REMARK    7  A    between atoms: N_18  and  N_19
REMARK    8  A    between atoms: C_20  and  C_22
REMARK    9  A    between atoms: C_25  and  S_28
REMARK   10  A    between atoms: S_28  and  N_31
REMARK                            x       y       z     vdW  Elec       q    Type
REMARK                         _______ _______ _______ _____ _____    ______ ____
ROOT
ATOM      1  C   UNL     1       3.524   1.907  -0.021  0.00  0.00    +0.231 C 
ATOM      2  O   UNL     1       3.508   3.119  -0.015  0.00  0.00    -0.274 OA
ATOM      3  N   UNL     1       2.366   1.217  -0.014  0.00  0.00    -0.234 N 
ATOM      4  H   UNL     1       2.379   0.247  -0.019  0.00  0.00    +0.173 HD
ENDROOT
BRANCH   3   5
ATOM      5  N   UNL     1       1.143   1.901   0.001  0.00  0.00    -0.230 N 
ATOM      6  C   UNL     1      -0.014   1.211   0.009  0.00  0.00    +0.260 C 
ATOM      7  O   UNL     1       0.002  -0.004   0.002  0.00  0.00    -0.269 OA
ATOM      8  H   UNL     1       1.130   2.871   0.007  0.00  0.00    +0.173 HD
BRANCH   6   9
ATOM      9  C   UNL     1      -1.305   1.933   0.019  0.00  0.00    +0.038 A 
ATOM     10  C   UNL     1      -1.327   3.329   0.032  0.00  0.00    +0.015 A 
ATOM     11  C   UNL     1      -2.534   3.996   0.035  0.00  0.00    +0.029 A 
ATOM     12  C   UNL     1      -3.721   3.285   0.037  0.00  0.00    +0.106 A 
ATOM     13  C   UNL     1      -3.706   1.901   0.030  0.00  0.00    +0.029 A 
ATOM     14  C   UNL     1      -2.506   1.222   0.021  0.00  0.00    +0.015 A 
BRANCH  12  15
ATOM     15  S   UNL     1      -5.259   4.145   0.049  0.00  0.00    +0.061 S 
ATOM     16  O   UNL     1      -5.008   5.433  -0.496  0.00  0.00    -0.153 OA
ATOM     17  O   UNL     1      -6.224   3.260  -0.502  0.00  0.00    -0.153 OA
BRANCH  15  18
ATOM     18  N   UNL     1      -5.679   4.376   1.635  0.00  0.00    -0.177 NA
ATOM     19  C   UNL     1      -6.485   3.455   2.450  0.00  0.00    +0.109 C 
ATOM     20  C   UNL     1      -6.637   4.094   3.847  0.00  0.00    +0.018 C 
ATOM     21  C   UNL     1      -6.395   5.601   3.566  0.00  0.00    +0.018 C 
ATOM     22  C   UNL     1      -5.312   5.541   2.460  0.00  0.00    +0.109 C 
ENDBRANCH  15  18
ENDBRANCH  12  15
ENDBRANCH   6   9
ENDBRANCH   3   5
BRANCH   1  23
ATOM     23  C   UNL     1       4.839   1.171  -0.038  0.00  0.00    +0.119 C 
BRANCH  23  24
ATOM     24  C   UNL     1       5.988   2.181  -0.043  0.00  0.00    +0.136 C 
BRANCH  24  32
ATOM     25  N   UNL     1       9.076   0.454  -0.800  0.00  0.00    -0.292 N 
ATOM     26  C   UNL     1       9.137   0.420   0.592  0.00  0.00    +0.070 A 
ATOM     27  C   UNL     1      10.057  -0.095   1.492  0.00  0.00    +0.028 A 
ATOM     28  C   UNL     1       9.834   0.029   2.849  0.00  0.00    +0.002 A 
ATOM     29  C   UNL     1       8.697   0.666   3.315  0.00  0.00    +0.002 A 
ATOM     30  C   UNL     1       7.774   1.182   2.426  0.00  0.00    +0.028 A 
ATOM     31  C   UNL     1       7.992   1.067   1.061  0.00  0.00    +0.070 A 
ATOM     32  N   UNL     1       7.267   1.466  -0.059  0.00  0.00    -0.292 N 
ATOM     33  C   UNL     1       7.944   1.088  -1.160  0.00  0.00    +0.330 A 
ATOM     34  O   UNL     1       7.588   1.288  -2.306  0.00  0.00    -0.246 OA
BRANCH  25  35
ATOM     35  C   UNL     1      10.075  -0.103  -1.715  0.00  0.00    +0.127 C 
BRANCH  35  37
ATOM     36  C   UNL     1      12.170   0.380  -2.988  0.00  0.00    +0.005 C 
ATOM     37  C   UNL     1      11.127   0.962  -2.033  0.00  0.00    +0.018 C 
ENDBRANCH  35  37
ENDBRANCH  25  35
ENDBRANCH  24  32
ENDBRANCH  23  24
ENDBRANCH   1  23
TORSDOF 9
