REMARK  Name = ZINC18023595
REMARK  4 active torsions:
REMARK  status: ('A' for Active; 'I' for Inactive)
REMARK    1  A    between atoms: C_1  and  C_2
REMARK    2  A    between atoms: N_10  and  N_14
REMARK    3  A    between atoms: C_15  and  C_17
REMARK    4  A    between atoms: C_17  and  C_18
REMARK                            x       y       z     vdW  Elec       q    Type
REMARK                         _______ _______ _______ _____ _____    ______ ____
ROOT
ATOM      1  C   UNL     1       0.237  -6.513  -0.594  0.00  0.00    +0.007 C 
ATOM      2  C   UNL     1       0.345  -5.067  -1.084  0.00  0.00    -0.014 C 
ATOM      3  C   UNL     1      -1.002  -4.364  -0.900  0.00  0.00    +0.006 C 
ATOM      4  C   UNL     1      -0.896  -2.922  -1.401  0.00  0.00    +0.035 C 
ATOM      5  C   UNL     1       0.190  -2.188  -0.621  0.00  0.00    +0.114 C 
ATOM      6  C   UNL     1       1.534  -2.892  -0.775  0.00  0.00    +0.035 C 
ATOM      7  C   UNL     1       1.418  -4.334  -0.276  0.00  0.00    +0.006 C 
ATOM      8  C   UNL     1       0.291  -0.752  -1.083  0.00  0.00    +0.263 C 
ATOM      9  O   UNL     1       0.573  -0.357  -2.193  0.00  0.00    -0.271 OA
ATOM     10  N   UNL     1       0.002  -0.004   0.002  0.00  0.00    -0.137 N 
ATOM     11  C   UNL     1      -0.258  -0.766   1.071  0.00  0.00    +0.326 C 
ATOM     12  O   UNL     1      -0.540  -0.320   2.167  0.00  0.00    -0.251 OA
ATOM     13  N   UNL     1      -0.177  -2.082   0.797  0.00  0.00    -0.284 N 
ATOM     14  H   UNL     1      -0.326  -2.815   1.415  0.00  0.00    +0.151 HD
ENDROOT
BRANCH  10  15
ATOM     15  N   UNL     1      -0.017   1.397   0.010  0.00  0.00    -0.223 N 
ATOM     16  C   UNL     1      -1.193   2.055   0.019  0.00  0.00    +0.234 C 
ATOM     17  O   UNL     1      -2.235   1.434   0.020  0.00  0.00    -0.274 OA
ATOM     18  H   UNL     1       0.816   1.893   0.004  0.00  0.00    +0.174 HD
BRANCH  16  19
ATOM     19  C   UNL     1      -1.214   3.562   0.027  0.00  0.00    +0.132 C 
BRANCH  19  20
ATOM     20  C   UNL     1      -2.641   4.045   0.037  0.00  0.00    -0.037 A 
ATOM     21  C   UNL     1      -3.299   4.278  -1.157  0.00  0.00    +0.005 A 
ATOM     22  C   UNL     1      -4.610   4.715  -1.149  0.00  0.00    +0.022 A 
ATOM     23  C   UNL     1      -5.261   4.931   0.052  0.00  0.00    +0.059 A 
ATOM     24  C   UNL     1      -4.600   4.703   1.247  0.00  0.00    +0.060 A 
ATOM     25  C   UNL     1      -3.290   4.259   1.238  0.00  0.00    +0.025 A 
ATOM     26 CL   UNL     1      -5.415   4.972   2.756  0.00  0.00    -0.082 Cl
ATOM     27 CL   UNL     1      -6.906   5.487   0.062  0.00  0.00    -0.082 Cl
ENDBRANCH  19  20
ENDBRANCH  16  19
ENDBRANCH  10  15
TORSDOF 3
