REMARK  Name = ZINC54318753
REMARK  5 active torsions:
REMARK  status: ('A' for Active; 'I' for Inactive)
REMARK    1  A    between atoms: C_3  and  C_6
REMARK    2  A    between atoms: C_12  and  C_14
REMARK    3  A    between atoms: C_14  and  N_15
REMARK    4  A    between atoms: N_19  and  C_22
REMARK    5  A    between atoms: C_22  and  C_23
REMARK                            x       y       z     vdW  Elec       q    Type
REMARK                         _______ _______ _______ _____ _____    ______ ____
ROOT
ATOM      1  N   UNL     1       4.896  -0.018  -4.451  0.00  0.00    +0.386 N 
ATOM      2  C   UNL     1       3.529  -0.574  -4.544  0.00  0.00    -0.077 C 
ATOM      3  C   UNL     1       2.901  -0.107  -5.833  0.00  0.00    -0.003 C 
ATOM      4  C   UNL     1       3.103  -1.121  -6.972  0.00  0.00    +0.082 C 
ATOM      5  N   UNL     1       4.466  -1.700  -6.973  0.00  0.00    -0.304 NA
ATOM      6  C   UNL     1       5.506  -0.732  -6.706  0.00  0.00    +0.066 C 
ATOM      7  C   UNL     1       5.826  -0.748  -5.199  0.00  0.00    -0.063 C 
ATOM      8  H   UNL     1       4.883   0.933  -4.787  0.00  0.00    -0.081 HD
ENDROOT
BRANCH   1   9
ATOM      9  C   UNL     1       5.314  -0.019  -3.043  0.00  0.00    +0.019 C 
BRANCH   9  15
ATOM     10  C   UNL     1       3.761   1.845  -0.024  0.00  0.00    +0.113 C 
ATOM     11  C   UNL     1       4.368   1.738   1.390  0.00  0.00    +0.029 C 
ATOM     12  C   UNL     1       5.831   1.306   1.108  0.00  0.00    +0.021 C 
ATOM     13  C   UNL     1       5.651   0.382  -0.122  0.00  0.00    +0.108 C 
ATOM     14  N   UNL     1       4.582   1.018  -0.919  0.00  0.00    -0.295 N 
ATOM     15  C   UNL     1       4.390   0.865  -2.245  0.00  0.00    +0.199 C 
ATOM     16  O   UNL     1       3.474   1.438  -2.795  0.00  0.00    -0.278 OA
BRANCH  10  19
ATOM     17  C   UNL     1      -0.016   1.351   0.009  0.00  0.00    +0.008 A 
ATOM     18  C   UNL     1       1.183   2.038   0.002  0.00  0.00    +0.013 A 
ATOM     19  C   UNL     1       2.343   1.336  -0.013  0.00  0.00    +0.010 A 
ATOM     20  S   UNL     1       1.754  -0.349  -0.017  0.00  0.00    -0.100 S 
ATOM     21  C   UNL     1       0.002  -0.004   0.002  0.00  0.00    +0.045 A 
ENDBRANCH  10  19
ENDBRANCH   9  15
ENDBRANCH   1   9
BRANCH   5  22
ATOM     22  C   UNL     1       4.730  -2.424  -8.224  0.00  0.00    +0.087 C 
BRANCH  22  23
ATOM     23  C   UNL     1       3.815  -3.647  -8.308  0.00  0.00    +0.003 C 
ATOM     24  C   UNL     1       4.172  -4.629  -7.189  0.00  0.00    +0.005 C 
ATOM     25  C   UNL     1       3.257  -5.852  -7.273  0.00  0.00    +0.000 C 
ATOM     26  C   UNL     1       3.442  -6.535  -8.630  0.00  0.00    +0.000 C 
ATOM     27  C   UNL     1       3.086  -5.554  -9.748  0.00  0.00    +0.000 C 
ATOM     28  C   UNL     1       4.000  -4.331  -9.664  0.00  0.00    +0.005 C 
ENDBRANCH  22  23
ENDBRANCH   5  22
TORSDOF 5
