REMARK  Name = ZINC55314548
REMARK  9 active torsions:
REMARK  status: ('A' for Active; 'I' for Inactive)
REMARK    1  A    between atoms: C_1  and  C_2
REMARK    2  A    between atoms: C_2  and  C_3
REMARK    3  A    between atoms: C_3  and  S_4
REMARK    4  A    between atoms: S_4  and  N_7
REMARK    5  A    between atoms: C_12  and  C_14
REMARK    6  A    between atoms: N_16  and  N_17
REMARK    7  A    between atoms: C_18  and  C_20
REMARK    8  A    between atoms: C_23  and  C_27
REMARK    9  A    between atoms: C_25  and  O_26
REMARK                            x       y       z     vdW  Elec       q    Type
REMARK                         _______ _______ _______ _____ _____    ______ ____
ROOT
ATOM      1  C   UNL     1       3.551  -2.599  -1.307  0.00  0.00    +0.248 C 
ATOM      2  O   UNL     1       3.319  -3.425  -0.449  0.00  0.00    -0.273 OA
ATOM      3  N   UNL     1       4.298  -1.516  -1.015  0.00  0.00    -0.233 N 
ATOM      4  H   UNL     1       4.483  -0.856  -1.701  0.00  0.00    +0.173 HD
ENDROOT
BRANCH   1  10
ATOM      5  N   UNL     1       1.553  -3.012  -2.631  0.00  0.00    -0.169 NA
ATOM      6  C   UNL     1       0.834  -3.358  -3.864  0.00  0.00    +0.110 C 
ATOM      7  C   UNL     1       1.513  -4.570  -4.508  0.00  0.00    +0.017 C 
ATOM      8  C   UNL     1       3.000  -4.269  -4.710  0.00  0.00    +0.003 C 
ATOM      9  C   UNL     1       3.659  -4.009  -3.354  0.00  0.00    +0.030 C 
ATOM     10  C   UNL     1       3.003  -2.784  -2.698  0.00  0.00    +0.166 C 
BRANCH   5  11
ATOM     11  S   UNL     1       0.744  -2.874  -1.192  0.00  0.00    +0.032 S 
ATOM     12  O   UNL     1      -0.604  -2.611  -1.558  0.00  0.00    -0.158 OA
ATOM     13  O   UNL     1       1.490  -1.923  -0.446  0.00  0.00    -0.158 OA
BRANCH  11  14
ATOM     14  C   UNL     1       0.874  -4.512  -0.425  0.00  0.00    +0.185 C 
BRANCH  14  16
ATOM     15  C   UNL     1       0.264  -5.884   1.572  0.00  0.00    +0.005 C 
ATOM     16  C   UNL     1       0.154  -4.502   0.925  0.00  0.00    +0.021 C 
ENDBRANCH  14  16
ENDBRANCH  11  14
ENDBRANCH   5  11
ENDBRANCH   1  10
BRANCH   3  17
ATOM     17  N   UNL     1       4.807  -1.344   0.279  0.00  0.00    -0.230 N 
ATOM     18  C   UNL     1       5.555  -0.261   0.570  0.00  0.00    +0.264 C 
ATOM     19  O   UNL     1       5.787   0.567  -0.289  0.00  0.00    -0.269 OA
ATOM     20  H   UNL     1       4.622  -2.005   0.965  0.00  0.00    +0.173 HD
BRANCH  18  21
ATOM     21  C   UNL     1       6.091  -0.080   1.933  0.00  0.00    +0.079 A 
ATOM     22  C   UNL     1       5.832  -1.032   2.922  0.00  0.00    +0.017 A 
ATOM     23  C   UNL     1       6.336  -0.857   4.192  0.00  0.00    +0.004 A 
ATOM     24  C   UNL     1       7.099   0.259   4.494  0.00  0.00    -0.047 A 
ATOM     25  C   UNL     1       7.363   1.208   3.526  0.00  0.00    +0.049 A 
ATOM     26  C   UNL     1       6.869   1.044   2.240  0.00  0.00    +0.129 A 
ATOM     27  C   UNL     1       7.645   0.439   5.887  0.00  0.00    +0.044 C 
BRANCH  26  28
ATOM     28  O   UNL     1       7.132   1.972   1.286  0.00  0.00    -0.506 OA
ATOM     29  H   UNL     1       6.479   2.683   1.238  0.00  0.00    +0.292 HD
ENDBRANCH  26  28
ENDBRANCH  18  21
ENDBRANCH   3  17
TORSDOF 7
