REMARK  Name = ZINC34786572
REMARK  5 active torsions:
REMARK  status: ('A' for Active; 'I' for Inactive)
REMARK    1  A    between atoms: C_1  and  C_2
REMARK    2  A    between atoms: C_4  and  C_34
REMARK    3  A    between atoms: N_20  and  N_21
REMARK    4  A    between atoms: N_20  and  N_28
REMARK    5  A    between atoms: N_21  and  C_22
REMARK                            x       y       z     vdW  Elec       q    Type
REMARK                         _______ _______ _______ _____ _____    ______ ____
ROOT
ATOM      1  C   UNL     1      -0.485   2.782   2.006  0.00  0.00    +0.067 C 
ATOM      2  C   UNL     1      -0.159   1.387   1.540  0.00  0.00    +0.061 A 
ATOM      3  C   UNL     1       0.158   1.014   0.229  0.00  0.00    +0.048 A 
ATOM      4  C   UNL     1       0.385  -0.319   0.217  0.00  0.00    +0.045 A 
ATOM      5  N   UNL     1       0.217  -0.776   1.486  0.00  0.00    -0.202 N 
ATOM      6  N   UNL     1      -0.119   0.318   2.294  0.00  0.00    -0.169 NA
ATOM      7  C   UNL     1       0.357  -2.098   1.909  0.00  0.00    +0.254 A 
ATOM      8  N   UNL     1       0.155  -2.397   3.185  0.00  0.00    -0.192 NA
ATOM      9  C   UNL     1       0.273  -3.631   3.646  0.00  0.00    +0.167 A 
ATOM     10  C   UNL     1       0.629  -4.676   2.748  0.00  0.00    +0.054 A 
ATOM     11  C   UNL     1       0.817  -6.101   3.030  0.00  0.00    -0.025 A 
ATOM     12  C   UNL     1       1.157  -6.890   1.992  0.00  0.00    -0.004 A 
ATOM     13  S   UNL     1       1.246  -5.803   0.594  0.00  0.00    -0.073 S 
ATOM     14  C   UNL     1       0.827  -4.285   1.409  0.00  0.00    +0.116 A 
ATOM     15  N   UNL     1       0.684  -3.031   1.028  0.00  0.00    -0.203 NA
ATOM     16  C   UNL     1       1.406  -8.368   2.018  0.00  0.00    +0.043 C 
ATOM     17  C   UNL     1       1.582  -8.803   3.479  0.00  0.00    +0.005 C 
ATOM     18  C   UNL     1       0.449  -8.197   4.312  0.00  0.00    +0.005 C 
ATOM     19  C   UNL     1       0.642  -6.685   4.429  0.00  0.00    +0.037 C 
ATOM     20  N   UNL     1       0.053  -3.902   4.984  0.00  0.00    -0.164 N 
ATOM     21  C   UNL     1       0.758  -1.148  -0.985  0.00  0.00    +0.066 C 
ENDROOT
BRANCH  20  22
ATOM     22  N   UNL     1      -1.153  -3.606   5.553  0.00  0.00    -0.204 NA
ATOM     23  C   UNL     1      -1.005  -2.586   6.601  0.00  0.00    +0.135 C 
ATOM     24  C   UNL     1      -2.385  -2.242   7.168  0.00  0.00    +0.177 C 
ATOM     25  O   UNL     1      -3.006  -3.434   7.656  0.00  0.00    -0.377 OA
ATOM     26  C   UNL     1      -3.166  -4.449   6.661  0.00  0.00    +0.177 C 
ATOM     27  C   UNL     1      -1.794  -4.816   6.089  0.00  0.00    +0.135 C 
ENDBRANCH  20  22
BRANCH  20  28
ATOM     28  N   UNL     1       1.069  -4.481   5.757  0.00  0.00    -0.249 N 
ATOM     29  H   UNL     1       0.986  -5.399   6.059  0.00  0.00    +0.172 HD
BRANCH  28  30
ATOM     30  C   UNL     1       2.201  -3.735   6.094  0.00  0.00    +0.046 A 
ATOM     31  C   UNL     1       2.284  -2.395   5.736  0.00  0.00    +0.024 A 
ATOM     32  C   UNL     1       3.405  -1.661   6.071  0.00  0.00    +0.002 A 
ATOM     33  C   UNL     1       4.443  -2.258   6.761  0.00  0.00    +0.000 A 
ATOM     34  C   UNL     1       4.364  -3.591   7.119  0.00  0.00    +0.002 A 
ATOM     35  C   UNL     1       3.244  -4.330   6.793  0.00  0.00    +0.024 A 
ENDBRANCH  28  30
ENDBRANCH  20  28
TORSDOF 3
