REMARK  Name = ZINC08636915
REMARK  8 active torsions:
REMARK  status: ('A' for Active; 'I' for Inactive)
REMARK    1  A    between atoms: C_1  and  C_2
REMARK    2  A    between atoms: C_9  and  N_13
REMARK    3  A    between atoms: C_10  and  C_11
REMARK    4  A    between atoms: C_14  and  C_16
REMARK    5  A    between atoms: C_16  and  S_17
REMARK    6  A    between atoms: S_17  and  C_18
REMARK    7  A    between atoms: C_21  and  C_24
REMARK    8  A    between atoms: N_22  and  C_23
REMARK                            x       y       z     vdW  Elec       q    Type
REMARK                         _______ _______ _______ _____ _____    ______ ____
ROOT
ATOM      1  N   UNL     1       0.914  -5.798  -2.429  0.00  0.00    -0.278 N 
ATOM      2  C   UNL     1       1.410  -6.126  -3.639  0.00  0.00    +0.228 C 
ATOM      3  O   UNL     1       1.387  -5.318  -4.543  0.00  0.00    -0.275 OA
ATOM      4  H   UNL     1       0.933  -6.445  -1.706  0.00  0.00    +0.155 HD
ENDROOT
BRANCH   1  12
ATOM      5  C   UNL     1      -2.111   1.377  -1.676  0.00  0.00    +0.008 C 
ATOM      6  C   UNL     1      -1.908  -0.133  -1.530  0.00  0.00    -0.009 C 
ATOM      7  C   UNL     1      -1.285  -0.437  -0.165  0.00  0.00    +0.008 C 
ATOM      8  C   UNL     1      -1.306  -1.945   0.092  0.00  0.00    +0.037 C 
ATOM      9  C   UNL     1      -0.673  -2.654  -1.098  0.00  0.00    -0.018 A 
ATOM     10  C   UNL     1      -0.540  -2.030  -2.290  0.00  0.00    -0.004 A 
ATOM     11  S   UNL     1       0.233  -3.226  -3.342  0.00  0.00    -0.077 S 
ATOM     12  C   UNL     1       0.377  -4.536  -2.218  0.00  0.00    +0.090 A 
ATOM     13  C   UNL     1      -0.176  -4.018  -1.056  0.00  0.00    +0.084 A 
ATOM     14  C   UNL     1      -0.960  -0.634  -2.630  0.00  0.00    +0.046 C 
BRANCH  13  15
ATOM     15  C   UNL     1      -0.253  -4.800   0.141  0.00  0.00    +0.102 C 
ATOM     16  N   UNL     1      -0.315  -5.420   1.091  0.00  0.00    -0.191 NA
ENDBRANCH  13  15
ENDBRANCH   1  12
BRANCH   2  17
ATOM     17  C   UNL     1       1.994  -7.496  -3.868  0.00  0.00    +0.173 C 
BRANCH  17  18
ATOM     18  S   UNL     1       2.571  -7.628  -5.578  0.00  0.00    -0.077 S 
BRANCH  18  19
ATOM     19  C   UNL     1       3.186  -9.279  -5.567  0.00  0.00    +0.192 A 
ATOM     20  N   UNL     1       3.185 -10.105  -4.544  0.00  0.00    -0.122 NA
ATOM     21  N   UNL     1       3.706 -11.230  -4.884  0.00  0.00    -0.128 NA
ATOM     22  C   UNL     1       4.078 -11.188  -6.143  0.00  0.00    +0.165 A 
ATOM     23  N   UNL     1       3.756  -9.937  -6.618  0.00  0.00    -0.305 N 
ATOM     24  C   UNL     1       3.979  -9.420  -7.971  0.00  0.00    +0.153 C 
BRANCH  22  25
ATOM     25  C   UNL     1       4.721 -12.279  -6.905  0.00  0.00    +0.022 A 
ATOM     26  C   UNL     1       4.686 -13.599  -6.441  0.00  0.00    +0.031 A 
ATOM     27  C   UNL     1       5.294 -14.586  -7.187  0.00  0.00    +0.111 A 
ATOM     28  N   UNL     1       5.913 -14.298  -8.317  0.00  0.00    -0.263 NA
ATOM     29  C   UNL     1       5.975 -13.067  -8.787  0.00  0.00    +0.111 A 
ATOM     30  C   UNL     1       5.389 -12.019  -8.108  0.00  0.00    +0.031 A 
ENDBRANCH  22  25
ENDBRANCH  18  19
ENDBRANCH  17  18
ENDBRANCH   2  17
TORSDOF 6
