REMARK  Name = ZINC12864135
REMARK  8 active torsions:
REMARK  status: ('A' for Active; 'I' for Inactive)
REMARK    1  A    between atoms: C_1  and  C_2
REMARK    2  A    between atoms: C_5  and  C_8
REMARK    3  A    between atoms: C_10  and  C_13
REMARK    4  A    between atoms: N_15  and  C_16
REMARK    5  A    between atoms: C_16  and  C_17
REMARK    6  A    between atoms: C_17  and  C_19
REMARK    7  A    between atoms: C_17  and  O_28
REMARK    8  A    between atoms: C_22  and  N_25
REMARK                            x       y       z     vdW  Elec       q    Type
REMARK                         _______ _______ _______ _____ _____    ______ ____
ROOT
ATOM      1  C   UNL     1      -2.462   1.399   0.019  0.00  0.00    +0.263 C 
ATOM      2  O   UNL     1      -2.650   0.198   0.013  0.00  0.00    -0.269 OA
ATOM      3  N   UNL     1      -3.511   2.245   0.028  0.00  0.00    -0.307 N 
ATOM      4  H   UNL     1      -3.361   3.204   0.032  0.00  0.00    +0.149 HD
ENDROOT
BRANCH   1   7
ATOM      5  C   UNL     1       0.363   3.701   0.018  0.00  0.00    +0.109 A 
ATOM      6  N   UNL     1      -0.873   3.237   0.027  0.00  0.00    -0.234 NA
ATOM      7  C   UNL     1      -1.088   1.930   0.017  0.00  0.00    +0.133 A 
ATOM      8  C   UNL     1      -0.013   1.076   0.008  0.00  0.00    +0.080 A 
ATOM      9  S   UNL     1       1.317   2.192   0.001  0.00  0.00    -0.075 S 
BRANCH   5  14
ATOM     10  C   UNL     1       2.192   9.158   0.030  0.00  0.00    +0.044 C 
ATOM     11  C   UNL     1       1.713   7.729   0.026  0.00  0.00    -0.050 A 
ATOM     12  C   UNL     1       2.632   6.695   0.011  0.00  0.00    +0.004 A 
ATOM     13  C   UNL     1       2.200   5.385   0.009  0.00  0.00    +0.011 A 
ATOM     14  C   UNL     1       0.833   5.104   0.021  0.00  0.00    +0.007 A 
ATOM     15  C   UNL     1      -0.088   6.152   0.029  0.00  0.00    +0.011 A 
ATOM     16  C   UNL     1       0.357   7.457   0.038  0.00  0.00    +0.004 A 
ENDBRANCH   5  14
ENDBRANCH   1   7
BRANCH   3  17
ATOM     17  C   UNL     1      -4.878   1.718   0.030  0.00  0.00    +0.140 C 
BRANCH  17  18
ATOM     18  C   UNL     1      -5.873   2.880   0.040  0.00  0.00    +0.162 C 
BRANCH  18  19
ATOM     19  C   UNL     1      -7.279   2.337   0.043  0.00  0.00    -0.018 A 
ATOM     20  C   UNL     1      -7.880   1.979   1.235  0.00  0.00    +0.008 A 
ATOM     21  C   UNL     1      -9.171   1.486   1.238  0.00  0.00    +0.033 A 
ATOM     22  C   UNL     1      -9.858   1.341   0.047  0.00  0.00    +0.126 A 
ATOM     23  C   UNL     1      -9.255   1.694  -1.146  0.00  0.00    +0.033 A 
ATOM     24  C   UNL     1      -7.966   2.192  -1.148  0.00  0.00    +0.008 A 
BRANCH  22  25
ATOM     25  N   UNL     1     -11.239   0.808   0.049  0.00  0.00    +0.056 N 
ATOM     26  O   UNL     1     -11.844   0.680  -1.000  0.00  0.00    -0.126 OA
ATOM     27  O   UNL     1     -11.770   0.497   1.101  0.00  0.00    -0.126 OA
ENDBRANCH  22  25
ENDBRANCH  18  19
BRANCH  18  28
ATOM     28  O   UNL     1      -5.667   3.673   1.210  0.00  0.00    -0.386 OA
ATOM     29  H   UNL     1      -5.785   3.190   2.039  0.00  0.00    +0.210 HD
ENDBRANCH  18  28
ENDBRANCH  17  18
ENDBRANCH   3  17
TORSDOF 7
