REMARK  Name = ZINC08748665
REMARK  7 active torsions:
REMARK  status: ('A' for Active; 'I' for Inactive)
REMARK    1  A    between atoms: C_1  and  O_2
REMARK    2  A    between atoms: O_2  and  C_3
REMARK    3  A    between atoms: C_5  and  C_15
REMARK    4  A    between atoms: C_8  and  O_9
REMARK    5  A    between atoms: O_9  and  C_10
REMARK    6  A    between atoms: C_29  and  N_33
REMARK    7  A    between atoms: C_30  and  C_31
REMARK                            x       y       z     vdW  Elec       q    Type
REMARK                         _______ _______ _______ _____ _____    ______ ____
ROOT
ATOM      1  C   UNL     1      -5.125  -1.498   2.889  0.00  0.00    +0.102 C 
ATOM      2  C   UNL     1      -6.091  -1.687   1.735  0.00  0.00    +0.062 A 
ATOM      3  C   UNL     1      -6.078  -2.824   1.006  0.00  0.00    +0.147 A 
ATOM      4  C   UNL     1      -6.934  -3.188  -0.132  0.00  0.00    +0.032 A 
ATOM      5  C   UNL     1      -6.753  -4.442  -0.745  0.00  0.00    +0.012 A 
ATOM      6  C   UNL     1      -7.534  -4.803  -1.803  0.00  0.00    +0.001 A 
ATOM      7  C   UNL     1      -8.517  -3.959  -2.301  0.00  0.00    +0.001 A 
ATOM      8  C   UNL     1      -8.721  -2.721  -1.720  0.00  0.00    +0.016 A 
ATOM      9  C   UNL     1      -7.936  -2.350  -0.650  0.00  0.00    +0.026 A 
ATOM     10  S   UNL     1      -8.119  -0.786   0.169  0.00  0.00    -0.047 S 
ATOM     11  C   UNL     1      -6.970  -0.589   1.516  0.00  0.00    +0.225 A 
ATOM     12  O   UNL     1      -6.938   0.418   2.203  0.00  0.00    -0.280 OA
ATOM     13  O   UNL     1      -5.166  -3.797   1.324  0.00  0.00    -0.440 OA
ATOM     14  C   UNL     1      -4.690  -3.910   2.570  0.00  0.00    +0.199 C 
ATOM     15  C   UNL     1      -4.636  -2.829   3.382  0.00  0.00    +0.098 C 
ENDROOT
BRANCH   1  18
ATOM     16  C   UNL     1      -2.592   1.290   2.607  0.00  0.00    +0.162 A 
ATOM     17  C   UNL     1      -3.675   0.536   3.029  0.00  0.00    +0.054 A 
ATOM     18  C   UNL     1      -3.950  -0.676   2.425  0.00  0.00    -0.031 A 
ATOM     19  C   UNL     1      -3.150  -1.137   1.395  0.00  0.00    +0.008 A 
ATOM     20  C   UNL     1      -2.071  -0.387   0.966  0.00  0.00    +0.050 A 
ATOM     21  C   UNL     1      -1.790   0.830   1.568  0.00  0.00    +0.162 A 
BRANCH  16  23
ATOM     22  C   UNL     1      -3.182   2.890   4.265  0.00  0.00    +0.277 C 
ATOM     23  O   UNL     1      -2.316   2.480   3.205  0.00  0.00    -0.491 OA
ENDBRANCH  16  23
BRANCH  21  24
ATOM     24  O   UNL     1      -0.729   1.569   1.146  0.00  0.00    -0.485 OA
BRANCH  24  25
ATOM     25  C   UNL     1       0.125   0.978   0.165  0.00  0.00    +0.174 C 
ATOM     26  C   UNL     1      -0.411   1.255  -1.262  0.00  0.00    +0.044 C 
ATOM     27  C   UNL     1       0.858   1.113  -2.138  0.00  0.00    +0.004 C 
ATOM     28  C   UNL     1       1.980   1.734  -1.280  0.00  0.00    +0.004 C 
ATOM     29  C   UNL     1       1.514   1.648   0.183  0.00  0.00    +0.044 C 
ENDBRANCH  24  25
ENDBRANCH  21  24
ENDBRANCH   1  18
BRANCH  14  30
ATOM     30  N   UNL     1      -4.252  -5.129   3.024  0.00  0.00    -0.328 N 
ATOM     31  H   UNL     1      -4.288  -5.905   2.442  0.00  0.00    +0.145 HD
ATOM     32  H   UNL     1      -3.906  -5.215   3.926  0.00  0.00    +0.145 HD
ENDBRANCH  14  30
BRANCH  15  33
ATOM     33  C   UNL     1      -4.115  -2.958   4.709  0.00  0.00    +0.101 C 
ATOM     34  N   UNL     1      -3.700  -3.061   5.762  0.00  0.00    -0.191 NA
ENDBRANCH  15  33
TORSDOF 6
