REMARK  Name = ZINC15729888
REMARK  5 active torsions:
REMARK  status: ('A' for Active; 'I' for Inactive)
REMARK    1  A    between atoms: C_1  and  C_2
REMARK    2  A    between atoms: C_2  and  C_3
REMARK    3  A    between atoms: C_8  and  N_9
REMARK    4  A    between atoms: C_10  and  C_12
REMARK    5  A    between atoms: C_12  and  N_13
REMARK                            x       y       z     vdW  Elec       q    Type
REMARK                         _______ _______ _______ _____ _____    ______ ____
ROOT
ATOM      1  N   UNL     1      -0.025   1.335   0.007  0.00  0.00    -0.146 N 
ATOM      2  C   UNL     1      -0.009  -0.018   0.009  0.00  0.00    +0.326 C 
ATOM      3  O   UNL     1      -1.087  -0.580   0.025  0.00  0.00    -0.251 OA
ATOM      4  N   UNL     1       1.066  -0.791  -0.006  0.00  0.00    -0.266 N 
ATOM      5  C   UNL     1       2.413  -0.461  -0.025  0.00  0.00    +0.062 A 
ATOM      6  C   UNL     1       3.398  -1.442  -0.038  0.00  0.00    +0.025 A 
ATOM      7  C   UNL     1       4.730  -1.079  -0.058  0.00  0.00    +0.002 A 
ATOM      8  C   UNL     1       5.104   0.252  -0.065  0.00  0.00    +0.002 A 
ATOM      9  C   UNL     1       4.129   1.241  -0.051  0.00  0.00    +0.031 A 
ATOM     10  C   UNL     1       2.813   0.877  -0.032  0.00  0.00    +0.130 A 
ATOM     11  S   UNL     1       1.491   2.060  -0.015  0.00  0.00    +0.080 S 
ATOM     12  O   UNL     1       1.571   2.746  -1.257  0.00  0.00    -0.150 OA
ATOM     13  O   UNL     1       1.606   2.749   1.222  0.00  0.00    -0.150 OA
ATOM     14  H   UNL     1       0.881  -1.743  -0.002  0.00  0.00    +0.156 HD
ENDROOT
BRANCH   1  15
ATOM     15  C   UNL     1      -1.270   2.109   0.018  0.00  0.00    +0.232 C 
BRANCH  15  17
ATOM     16  N   UNL     1      -2.882   2.953   1.693  0.00  0.00    -0.284 N 
ATOM     17  C   UNL     1      -1.748   2.271   1.438  0.00  0.00    +0.237 C 
ATOM     18  O   UNL     1      -1.113   1.788   2.351  0.00  0.00    -0.274 OA
ATOM     19  H   UNL     1      -3.348   3.407   0.973  0.00  0.00    +0.155 HD
BRANCH  16  25
ATOM     20  C   UNL     1      -4.207   4.059   3.383  0.00  0.00    -0.026 A 
ATOM     21  C   UNL     1      -4.705   4.107   4.670  0.00  0.00    +0.005 A 
ATOM     22  C   UNL     1      -4.391   3.109   5.573  0.00  0.00    +0.000 A 
ATOM     23  C   UNL     1      -3.577   2.058   5.191  0.00  0.00    +0.002 A 
ATOM     24  C   UNL     1      -3.079   2.001   3.904  0.00  0.00    +0.023 A 
ATOM     25  C   UNL     1      -3.389   3.005   2.996  0.00  0.00    +0.037 A 
BRANCH  20  27
ATOM     26  C   UNL     1      -5.754   4.714   1.559  0.00  0.00    +0.009 C 
ATOM     27  C   UNL     1      -4.551   5.147   2.399  0.00  0.00    +0.033 C 
ENDBRANCH  20  27
ENDBRANCH  16  25
ENDBRANCH  15  17
ENDBRANCH   1  15
TORSDOF 4
