REMARK  Name = ZINC08309536
REMARK  9 active torsions:
REMARK  status: ('A' for Active; 'I' for Inactive)
REMARK    1  A    between atoms: C_1  and  C_2
REMARK    2  A    between atoms: C_2  and  N_3
REMARK    3  A    between atoms: C_4  and  C_6
REMARK    4  A    between atoms: C_6  and  N_7
REMARK    5  A    between atoms: N_7  and  C_8
REMARK    6  A    between atoms: N_7  and  C_10
REMARK    7  A    between atoms: C_8  and  C_9
REMARK    8  A    between atoms: C_10  and  C_11
REMARK    9  A    between atoms: N_16  and  C_17
REMARK                            x       y       z     vdW  Elec       q    Type
REMARK                         _______ _______ _______ _____ _____    ______ ____
ROOT
ATOM      1  C   UNL     1       2.316  -5.896   3.185  0.00  0.00    +0.204 C 
ATOM      2  O   UNL     1       1.831  -6.416   2.204  0.00  0.00    -0.277 OA
ATOM      3  N   UNL     1       2.957  -6.650   4.100  0.00  0.00    -0.242 N 
ATOM      4  C   UNL     1       3.057  -7.982   3.924  0.00  0.00    +0.306 C 
ATOM      5  O   UNL     1       2.570  -8.504   2.940  0.00  0.00    -0.252 OA
ATOM      6  N   UNL     1       3.698  -8.736   4.839  0.00  0.00    -0.294 N 
ATOM      7  H   UNL     1       3.346  -6.234   4.885  0.00  0.00    +0.159 HD
ATOM      8  H   UNL     1       4.087  -8.320   5.625  0.00  0.00    +0.151 HD
ENDROOT
BRANCH   6   9
ATOM      9  C   UNL     1       3.807 -10.185   4.648  0.00  0.00    +0.037 C 
ATOM     10  C   UNL     1       2.407 -10.797   4.579  0.00  0.00    +0.029 C 
ATOM     11  C   UNL     1       2.521 -12.310   4.380  0.00  0.00    -0.008 C 
ATOM     12  C   UNL     1       3.288 -12.922   5.553  0.00  0.00    +0.007 C 
ATOM     13  C   UNL     1       4.689 -12.310   5.621  0.00  0.00    -0.008 C 
ATOM     14  C   UNL     1       4.575 -10.797   5.821  0.00  0.00    +0.029 C 
ATOM     15  C   UNL     1       5.436 -12.598   4.317  0.00  0.00    +0.007 C 
ATOM     16  C   UNL     1       4.668 -11.985   3.144  0.00  0.00    -0.008 C 
ATOM     17  C   UNL     1       3.268 -12.597   3.075  0.00  0.00    +0.007 C 
ATOM     18  C   UNL     1       4.554 -10.472   3.344  0.00  0.00    +0.029 C 
ENDBRANCH   6   9
BRANCH   1  19
ATOM     19  C   UNL     1       2.204  -4.406   3.382  0.00  0.00    +0.020 C 
BRANCH  19  20
ATOM     20  N   UNL     1       1.345  -3.837   2.335  0.00  0.00    +0.391 N 
ATOM     21  H   UNL     1       1.685  -4.122   1.429  0.00  0.00    -0.080 HD
BRANCH  20  22
ATOM     22  C   UNL     1       1.365  -2.371   2.427  0.00  0.00    -0.081 C 
ATOM     23  C   UNL     1       2.772  -1.860   2.107  0.00  0.00    -0.017 C 
ENDBRANCH  20  22
BRANCH  20  24
ATOM     24  C   UNL     1      -0.031  -4.319   2.516  0.00  0.00    +0.019 C 
BRANCH  24  26
ATOM     25  N   UNL     1      -2.195  -4.159   1.327  0.00  0.00    -0.317 N 
ATOM     26  C   UNL     1      -0.887  -3.836   1.373  0.00  0.00    +0.196 C 
ATOM     27  O   UNL     1      -0.399  -3.156   0.495  0.00  0.00    -0.278 OA
ATOM     28  H   UNL     1      -2.585  -4.702   2.030  0.00  0.00    +0.149 HD
BRANCH  25  30
ATOM     29  C   UNL     1      -4.460  -4.191   0.405  0.00  0.00    +0.024 C 
ATOM     30  C   UNL     1      -3.027  -3.688   0.217  0.00  0.00    +0.101 C 
ENDBRANCH  25  30
ENDBRANCH  24  26
ENDBRANCH  20  24
ENDBRANCH  19  20
ENDBRANCH   1  19
TORSDOF 7
