REMARK  Name = ZINC09269114
REMARK  12 active torsions:
REMARK  status: ('A' for Active; 'I' for Inactive)
REMARK    1  A    between atoms: C_1  and  C_2
REMARK    2  A    between atoms: C_2  and  C_3
REMARK    3  A    between atoms: C_2  and  C_4
REMARK    4  A    between atoms: C_2  and  C_5
REMARK    5  A    between atoms: C_10  and  O_11
REMARK    6  A    between atoms: O_11  and  C_12
REMARK    7  A    between atoms: C_12  and  C_13
REMARK    8  A    between atoms: N_15  and  C_16
REMARK    9  A    between atoms: C_19  and  S_22
REMARK   10  A    between atoms: S_22  and  N_25
REMARK   11  A    between atoms: N_25  and  C_26
REMARK   12  A    between atoms: C_26  and  C_27
REMARK                            x       y       z     vdW  Elec       q    Type
REMARK                         _______ _______ _______ _____ _____    ______ ____
ROOT
ATOM      1  C   UNL     1       3.569   3.468  -0.114  0.00  0.00    +0.255 C 
ATOM      2  O   UNL     1       2.513   4.065  -0.102  0.00  0.00    -0.272 OA
ATOM      3  N   UNL     1       3.584   2.123  -0.019  0.00  0.00    -0.283 N 
ATOM      4  H   UNL     1       4.429   1.652   0.048  0.00  0.00    +0.155 HD
ENDROOT
BRANCH   3   5
ATOM      5  C   UNL     1       2.381   1.409  -0.018  0.00  0.00    +0.034 A 
ATOM      6  C   UNL     1       2.268   0.238   0.720  0.00  0.00    +0.025 A 
ATOM      7  C   UNL     1       1.080  -0.466   0.718  0.00  0.00    +0.030 A 
ATOM      8  C   UNL     1       0.003  -0.006  -0.018  0.00  0.00    +0.105 A 
ATOM      9  C   UNL     1       0.113   1.159  -0.754  0.00  0.00    +0.030 A 
ATOM     10  C   UNL     1       1.298   1.867  -0.757  0.00  0.00    +0.025 A 
BRANCH   8  11
ATOM     11  S   UNL     1      -1.511  -0.907  -0.018  0.00  0.00    +0.058 S 
ATOM     12  O   UNL     1      -2.190  -0.561  -1.217  0.00  0.00    -0.153 OA
ATOM     13  O   UNL     1      -1.185  -2.250   0.313  0.00  0.00    -0.153 OA
BRANCH  11  14
ATOM     14  N   UNL     1      -2.429  -0.322   1.231  0.00  0.00    -0.187 NA
ATOM     15  H   UNL     1      -2.648  -0.896   1.982  0.00  0.00    +0.148 HD
BRANCH  14  16
ATOM     16  C   UNL     1      -2.908   1.062   1.202  0.00  0.00    +0.137 C 
BRANCH  16  17
ATOM     17  C   UNL     1      -4.013   1.241   2.245  0.00  0.00    +0.134 C 
ATOM     18  C   UNL     1      -4.620   2.658   2.148  0.00  0.00    +0.035 C 
ATOM     19  C   UNL     1      -4.902   3.047   3.616  0.00  0.00    +0.031 C 
ATOM     20  C   UNL     1      -4.431   1.819   4.427  0.00  0.00    +0.160 C 
ATOM     21  O   UNL     1      -3.463   1.166   3.579  0.00  0.00    -0.375 OA
ENDBRANCH  16  17
ENDBRANCH  14  16
ENDBRANCH  11  14
ENDBRANCH   8  11
ENDBRANCH   3   5
BRANCH   1  22
ATOM     22  C   UNL     1       4.864   4.229  -0.235  0.00  0.00    +0.324 C 
BRANCH  22  23
ATOM     23  O   UNL     1       4.587   5.629  -0.320  0.00  0.00    -0.482 OA
BRANCH  23  29
ATOM     24  C   UNL     1       5.458   7.833  -0.527  0.00  0.00    +0.001 A 
ATOM     25  C   UNL     1       6.544   8.679  -0.638  0.00  0.00    +0.023 A 
ATOM     26  C   UNL     1       7.826   8.161  -0.667  0.00  0.00    +0.018 A 
ATOM     27  C   UNL     1       8.024   6.794  -0.580  0.00  0.00    +0.019 A 
ATOM     28  C   UNL     1       6.941   5.945  -0.464  0.00  0.00    +0.047 A 
ATOM     29  C   UNL     1       5.654   6.463  -0.434  0.00  0.00    +0.125 A 
ATOM     30 BR   UNL     1       9.311   9.321  -0.826  0.00  0.00    -0.050 Br
BRANCH  24  32
ATOM     31  C   UNL     1       4.125   9.922  -0.620  0.00  0.00    +0.015 C 
ATOM     32  C   UNL     1       4.061   8.398  -0.503  0.00  0.00    -0.009 C 
ATOM     33  C   UNL     1       3.260   7.830  -1.676  0.00  0.00    +0.015 C 
ATOM     34  C   UNL     1       3.380   8.016   0.813  0.00  0.00    +0.015 C 
ENDBRANCH  24  32
ENDBRANCH  23  29
ENDBRANCH  22  23
ENDBRANCH   1  22
TORSDOF 9
