REMARK  Name = ZINC24270813
REMARK  10 active torsions:
REMARK  status: ('A' for Active; 'I' for Inactive)
REMARK    1  A    between atoms: C_1  and  C_2
REMARK    2  A    between atoms: C_6  and  N_9
REMARK    3  A    between atoms: C_7  and  C_8
REMARK    4  A    between atoms: C_10  and  S_14
REMARK    5  A    between atoms: S_14  and  C_15
REMARK    6  A    between atoms: C_15  and  C_17
REMARK    7  A    between atoms: C_15  and  C_18
REMARK    8  A    between atoms: N_20  and  C_21
REMARK    9  A    between atoms: C_21  and  C_23
REMARK   10  A    between atoms: C_21  and  C_24
REMARK                            x       y       z     vdW  Elec       q    Type
REMARK                         _______ _______ _______ _____ _____    ______ ____
ROOT
ATOM      1  C   UNL     1      -1.838  -4.078   1.796  0.00  0.00    +0.137 C 
ATOM      2  C   UNL     1      -1.845  -5.093   0.652  0.00  0.00    +0.029 C 
ENDROOT
BRANCH   1   3
ATOM      3  C   UNL     1      -2.057  -2.694   1.241  0.00  0.00    +0.227 C 
ATOM      4  O   UNL     1      -3.156  -2.185   1.296  0.00  0.00    -0.275 OA
ATOM      5  N   UNL     1      -1.031  -2.022   0.683  0.00  0.00    -0.308 N 
ATOM      6  H   UNL     1      -0.033  -2.483   0.633  0.00  0.00    +0.149 HD
BRANCH   5   7
ATOM      7  C   UNL     1      -1.243  -0.676   0.143  0.00  0.00    +0.102 C 
ATOM      8  C   UNL     1      -1.764  -0.779  -1.292  0.00  0.00    +0.033 C 
BRANCH   7   9
ATOM      9  C   UNL     1       0.060   0.080   0.151  0.00  0.00    -0.009 A 
ATOM     10  C   UNL     1       1.259  -0.608   0.117  0.00  0.00    +0.008 A 
ATOM     11  C   UNL     1       2.454   0.085   0.125  0.00  0.00    +0.020 A 
ATOM     12  C   UNL     1       2.452   1.468   0.167  0.00  0.00    +0.042 A 
ATOM     13  C   UNL     1       1.253   2.157   0.202  0.00  0.00    +0.040 A 
ATOM     14  C   UNL     1       0.057   1.463   0.194  0.00  0.00    +0.047 A 
ATOM     15 CL   UNL     1      -1.448   2.327   0.232  0.00  0.00    -0.083 Cl
ATOM     16 CL   UNL     1       3.954   2.339   0.178  0.00  0.00    -0.083 Cl
ENDBRANCH   7   9
ENDBRANCH   5   7
ENDBRANCH   1   3
BRANCH   1  17
ATOM     17  S   UNL     1      -3.163  -4.476   2.964  0.00  0.00    -0.072 S 
BRANCH  17  19
ATOM     18  N   UNL     1      -3.200  -6.818   4.480  0.00  0.00    -0.187 N 
ATOM     19  C   UNL     1      -2.591  -6.034   3.555  0.00  0.00    +0.215 A 
ATOM     20  N   UNL     1      -1.490  -6.654   3.188  0.00  0.00    -0.101 NA
ATOM     21  N   UNL     1      -1.372  -7.769   3.813  0.00  0.00    -0.022 NA
ATOM     22  N   UNL     1      -2.368  -7.944   4.613  0.00  0.00    -0.038 NA
BRANCH  18  28
ATOM     23  C   UNL     1      -7.624  -8.353   5.985  0.00  0.00    +0.044 C 
ATOM     24  C   UNL     1      -6.561  -7.288   5.901  0.00  0.00    -0.046 A 
ATOM     25  C   UNL     1      -6.770  -6.055   6.493  0.00  0.00    +0.004 A 
ATOM     26  C   UNL     1      -5.797  -5.075   6.418  0.00  0.00    +0.002 A 
ATOM     27  C   UNL     1      -4.611  -5.328   5.757  0.00  0.00    +0.028 A 
ATOM     28  C   UNL     1      -4.400  -6.562   5.157  0.00  0.00    +0.073 A 
ATOM     29  C   UNL     1      -5.379  -7.543   5.234  0.00  0.00    -0.022 A 
ATOM     30  C   UNL     1      -5.153  -8.886   4.589  0.00  0.00    +0.046 C 
ENDBRANCH  18  28
ENDBRANCH  17  19
ENDBRANCH   1  17
TORSDOF 6
