REMARK  Name = ZINC14271402
REMARK  6 active torsions:
REMARK  status: ('A' for Active; 'I' for Inactive)
REMARK    1  A    between atoms: C_3  and  N_26
REMARK    2  A    between atoms: C_4  and  N_23
REMARK    3  A    between atoms: C_6  and  C_7
REMARK    4  A    between atoms: N_9  and  C_10
REMARK    5  A    between atoms: C_10  and  N_12
REMARK    6  A    between atoms: N_12  and  C_13
REMARK                            x       y       z     vdW  Elec       q    Type
REMARK                         _______ _______ _______ _____ _____    ______ ____
ROOT
ATOM      1  C   UNL     1       2.408   3.940  -0.001  0.00  0.00    +0.250 C 
ATOM      2  O   UNL     1       2.385   5.155   0.006  0.00  0.00    -0.270 OA
ATOM      3  N   UNL     1       3.587   3.288  -0.015  0.00  0.00    -0.264 N 
ATOM      4  H   UNL     1       3.606   2.318  -0.021  0.00  0.00    +0.157 HD
ENDROOT
BRANCH   1  10
ATOM      5  C   UNL     1       1.170   1.781   0.001  0.00  0.00    +0.015 A 
ATOM      6  C   UNL     1      -0.013   1.076   0.008  0.00  0.00    +0.026 A 
ATOM      7  C   UNL     1      -1.227   1.756   0.017  0.00  0.00    +0.060 A 
ATOM      8  C   UNL     1      -1.249   3.148   0.029  0.00  0.00    +0.148 A 
ATOM      9  C   UNL     1      -0.080   3.854   0.022  0.00  0.00    +0.047 A 
ATOM     10  C   UNL     1       1.145   3.179   0.008  0.00  0.00    +0.039 A 
BRANCH   7  11
ATOM     11  N   UNL     1      -2.421   1.044   0.020  0.00  0.00    -0.328 N 
ATOM     12  C   UNL     1      -2.562   0.256   1.251  0.00  0.00    +0.105 C 
ATOM     13  C   UNL     1      -3.945  -0.398   1.285  0.00  0.00    +0.019 C 
ATOM     14  C   UNL     1      -4.109  -1.299   0.058  0.00  0.00    +0.003 C 
ATOM     15  C   UNL     1      -3.910  -0.464  -1.210  0.00  0.00    +0.019 C 
ATOM     16  C   UNL     1      -2.528   0.192  -1.171  0.00  0.00    +0.105 C 
ENDBRANCH   7  11
BRANCH   8  17
ATOM     17  N   UNL     1      -2.543   3.866   0.045  0.00  0.00    +0.058 N 
ATOM     18  O   UNL     1      -2.565   5.084   0.052  0.00  0.00    -0.126 OA
ATOM     19  O   UNL     1      -3.588   3.239   0.051  0.00  0.00    -0.126 OA
ENDBRANCH   8  17
ENDBRANCH   1  10
BRANCH   3  20
ATOM     20  C   UNL     1       4.742   3.984  -0.023  0.00  0.00    +0.137 C 
ATOM     21  S   UNL     1       4.710   5.696  -0.014  0.00  0.00    -0.018 S 
BRANCH  20  22
ATOM     22  N   UNL     1       5.921   3.332  -0.038  0.00  0.00    -0.323 N 
ATOM     23  H   UNL     1       5.940   2.362  -0.043  0.00  0.00    +0.148 HD
BRANCH  22  24
ATOM     24  C   UNL     1       7.176   4.088  -0.046  0.00  0.00    +0.078 C 
ATOM     25  C   UNL     1       7.534   4.466  -1.485  0.00  0.00    +0.010 C 
ATOM     26  C   UNL     1       8.844   5.256  -1.494  0.00  0.00    +0.009 C 
ATOM     27  C   UNL     1       9.962   4.397  -0.899  0.00  0.00    -0.010 C 
ATOM     28  C   UNL     1      10.127   3.126  -1.735  0.00  0.00    +0.007 C 
ATOM     29  C   UNL     1       8.817   2.336  -1.726  0.00  0.00    -0.010 C 
ATOM     30  C   UNL     1       7.699   3.195  -2.321  0.00  0.00    +0.009 C 
ATOM     31  C   UNL     1       8.459   1.958  -0.287  0.00  0.00    +0.009 C 
ATOM     32  C   UNL     1       8.294   3.229   0.548  0.00  0.00    +0.010 C 
ATOM     33  C   UNL     1       9.604   4.019   0.539  0.00  0.00    +0.009 C 
ENDBRANCH  22  24
ENDBRANCH  20  22
ENDBRANCH   3  20
TORSDOF 6
