REMARK  Name = ZINC09201885
REMARK  11 active torsions:
REMARK  status: ('A' for Active; 'I' for Inactive)
REMARK    1  A    between atoms: C_1  and  C_2
REMARK    2  A    between atoms: C_2  and  N_3
REMARK    3  A    between atoms: C_7  and  S_24
REMARK    4  A    between atoms: C_11  and  C_12
REMARK    5  A    between atoms: C_12  and  N_57
REMARK    6  A    between atoms: C_13  and  C_14
REMARK    7  A    between atoms: C_13  and  N_57
REMARK    8  A    between atoms: C_21  and  N_57
REMARK    9  A    between atoms: S_24  and  N_27
REMARK   10  A    between atoms: N_27  and  C_28
REMARK   11  A    between atoms: N_27  and  C_29
REMARK                            x       y       z     vdW  Elec       q    Type
REMARK                         _______ _______ _______ _____ _____    ______ ____
ROOT
ATOM      1  N   UNL     1      -2.027   0.988   1.181  0.00  0.00    -0.329 N 
ATOM      2  C   UNL     1      -3.145   1.440   0.510  0.00  0.00    +0.069 A 
ATOM      3  C   UNL     1      -3.443   2.592  -0.206  0.00  0.00    +0.030 A 
ATOM      4  C   UNL     1      -4.692   2.742  -0.770  0.00  0.00    +0.030 A 
ATOM      5  C   UNL     1      -5.652   1.750  -0.625  0.00  0.00    +0.108 A 
ATOM      6  C   UNL     1      -5.374   0.607   0.069  0.00  0.00    +0.058 A 
ATOM      7  C   UNL     1      -4.116   0.435   0.653  0.00  0.00    +0.091 A 
ATOM      8  N   UNL     1      -3.556  -0.553   1.396  0.00  0.00    -0.234 NA
ATOM      9  C   UNL     1      -2.334  -0.230   1.704  0.00  0.00    +0.094 A 
ENDROOT
BRANCH   5  10
ATOM     10  S   UNL     1      -7.242   1.964  -1.354  0.00  0.00    +0.060 S 
ATOM     11  O   UNL     1      -8.139   1.144  -0.618  0.00  0.00    -0.153 OA
ATOM     12  O   UNL     1      -7.436   3.363  -1.503  0.00  0.00    -0.153 OA
BRANCH  10  13
ATOM     13  N   UNL     1      -7.169   1.331  -2.883  0.00  0.00    -0.183 NA
ATOM     14  C   UNL     1      -7.495  -0.079  -3.108  0.00  0.00    +0.131 C 
ATOM     15  C   UNL     1      -6.778   2.182  -4.010  0.00  0.00    +0.131 C 
ENDBRANCH  10  13
ENDBRANCH   5  10
BRANCH   1  17
ATOM     16  C   UNL     1       0.170   1.299   0.151  0.00  0.00    +0.027 C 
ATOM     17  C   UNL     1      -0.748   1.691   1.311  0.00  0.00    +0.120 C 
ENDBRANCH   1  17
BRANCH   9  18
ATOM     18  C   UNL     1      -1.396  -1.080   2.521  0.00  0.00    -0.002 C 
BRANCH  18  19
ATOM     19  N   UNL     1      -1.542  -0.717   3.946  0.00  0.00    +0.389 N 
ATOM     20  H   UNL     1      -1.446   0.301   4.042  0.00  0.00    -0.080 HD
BRANCH  19  21
ATOM     21  C   UNL     1      -2.876  -1.121   4.437  0.00  0.00    -0.068 C 
ATOM     22  C   UNL     1      -3.951  -0.032   4.470  0.00  0.00    -0.017 C 
ATOM     23  C   UNL     1      -3.326  -0.532   5.775  0.00  0.00    -0.017 C 
ENDBRANCH  19  21
BRANCH  19  24
ATOM     24  C   UNL     1      -0.488  -1.376   4.746  0.00  0.00    -0.042 C 
BRANCH  24  25
ATOM     25  C   UNL     1      -0.415  -0.707   6.095  0.00  0.00    -0.064 A 
ATOM     26  C   UNL     1       0.306   0.462   6.248  0.00  0.00    +0.004 A 
ATOM     27  C   UNL     1       0.369   1.079   7.483  0.00  0.00    +0.038 A 
ATOM     28  C   UNL     1      -0.280   0.519   8.570  0.00  0.00    +0.123 A 
ATOM     29  C   UNL     1      -0.997  -0.655   8.417  0.00  0.00    +0.038 A 
ATOM     30  C   UNL     1      -1.064  -1.268   7.180  0.00  0.00    +0.004 A 
ATOM     31  F   UNL     1      -0.214   1.118   9.779  0.00  0.00    -0.205 F 
ENDBRANCH  24  25
ENDBRANCH  19  24
ENDBRANCH  18  19
ENDBRANCH   9  18
TORSDOF 8
