REMARK  Name = ZINC29787610
REMARK  11 active torsions:
REMARK  status: ('A' for Active; 'I' for Inactive)
REMARK    1  A    between atoms: C_1  and  C_2
REMARK    2  A    between atoms: C_2  and  C_3
REMARK    3  A    between atoms: C_2  and  C_4
REMARK    4  A    between atoms: C_4  and  C_6
REMARK    5  A    between atoms: C_4  and  N_19
REMARK    6  A    between atoms: N_8  and  C_9
REMARK    7  A    between atoms: C_11  and  C_17
REMARK    8  A    between atoms: C_11  and  C_18
REMARK    9  A    between atoms: C_13  and  C_15
REMARK   10  A    between atoms: C_13  and  C_16
REMARK   11  A    between atoms: C_20  and  C_22
REMARK                            x       y       z     vdW  Elec       q    Type
REMARK                         _______ _______ _______ _____ _____    ______ ____
ROOT
ATOM      1  C   UNL     1       0.746   4.092  -4.162  0.00  0.00    +0.234 C 
ATOM      2  O   UNL     1       0.025   4.812  -3.505  0.00  0.00    -0.274 OA
ATOM      3  N   UNL     1       1.056   2.859  -3.715  0.00  0.00    -0.311 N 
ATOM      4  H   UNL     1       1.646   2.177  -4.345  0.00  0.00    +0.149 HD
ENDROOT
BRANCH   3   5
ATOM      5  C   UNL     1       0.605   2.425  -2.386  0.00  0.00    +0.070 C 
ATOM      6  C   UNL     1       1.543   1.336  -1.868  0.00  0.00    +0.009 C 
ATOM      7  C   UNL     1       1.086   0.851  -0.494  0.00  0.00    -0.072 C 
ATOM      8  N   UNL     1      -0.324   0.523  -0.452  0.00  0.00    +0.386 N 
ATOM      9  C   UNL     1      -1.289   1.360  -1.133  0.00  0.00    -0.072 C 
ATOM     10  C   UNL     1      -0.803   1.841  -2.498  0.00  0.00    +0.009 C 
ATOM     11  C   UNL     1      -2.572   0.530  -1.363  0.00  0.00    -0.010 C 
ATOM     12  C   UNL     1      -1.679   2.568  -0.273  0.00  0.00    -0.010 C 
ATOM     13  C   UNL     1       1.442   1.900   0.565  0.00  0.00    -0.010 C 
ATOM     14  C   UNL     1       1.888  -0.427  -0.161  0.00  0.00    -0.010 C 
ATOM     15  H   UNL     1      -0.482  -0.473  -0.893  0.00  0.00    -0.084 HD
ATOM     16  H   UNL     1      -0.669   0.520   0.592  0.00  0.00    -0.084 HD
ENDBRANCH   3   5
BRANCH   1  17
ATOM     17  C   UNL     1       1.296   4.576  -5.479  0.00  0.00    +0.162 C 
BRANCH  17  18
ATOM     18  N   UNL     1       0.377   5.558  -6.061  0.00  0.00    -0.300 N 
ATOM     19  C   UNL     1       0.359   5.756  -7.394  0.00  0.00    +0.245 C 
ATOM     20  O   UNL     1       1.105   5.121  -8.113  0.00  0.00    -0.270 OA
ATOM     21  H   UNL     1      -0.298   6.132  -5.410  0.00  0.00    +0.150 HD
BRANCH  19  22
ATOM     22  C   UNL     1      -0.568   6.746  -7.981  0.00  0.00    +0.037 A 
ATOM     23  C   UNL     1      -1.430   7.473  -7.158  0.00  0.00    +0.014 A 
ATOM     24  C   UNL     1      -2.288   8.400  -7.711  0.00  0.00    +0.021 A 
ATOM     25  C   UNL     1      -2.305   8.602  -9.081  0.00  0.00    +0.041 A 
ATOM     26  C   UNL     1      -1.456   7.879  -9.903  0.00  0.00    +0.021 A 
ATOM     27  C   UNL     1      -0.589   6.954  -9.361  0.00  0.00    +0.014 A 
ATOM     28 CL   UNL     1      -3.393   9.765  -9.771  0.00  0.00    -0.084 Cl
ENDBRANCH  19  22
ENDBRANCH  17  18
BRANCH  17  30
ATOM     29  C   UNL     1       3.636   4.189  -4.694  0.00  0.00    +0.009 C 
ATOM     30  C   UNL     1       2.662   5.228  -5.253  0.00  0.00    +0.012 C 
ATOM     31  C   UNL     1       3.197   5.766  -6.582  0.00  0.00    +0.009 C 
ENDBRANCH  17  30
ENDBRANCH   1  17
TORSDOF 5
