REMARK  Name = ZINC21775541
REMARK  12 active torsions:
REMARK  status: ('A' for Active; 'I' for Inactive)
REMARK    1  A    between atoms: C_1  and  C_2
REMARK    2  A    between atoms: C_2  and  O_3
REMARK    3  A    between atoms: O_3  and  C_4
REMARK    4  A    between atoms: C_7  and  C_35
REMARK    5  A    between atoms: C_9  and  S_10
REMARK    6  A    between atoms: S_10  and  N_13
REMARK    7  A    between atoms: N_13  and  C_14
REMARK    8  A    between atoms: C_14  and  C_15
REMARK    9  A    between atoms: C_15  and  C_17
REMARK   10  A    between atoms: C_15  and  N_28
REMARK   11  A    between atoms: N_26  and  C_27
REMARK   12  A    between atoms: N_31  and  C_34
REMARK                            x       y       z     vdW  Elec       q    Type
REMARK                         _______ _______ _______ _____ _____    ______ ____
ROOT
ATOM      1  C   UNL     1       5.489   2.879   3.957  0.00  0.00    +0.102 C 
ENDROOT
BRANCH   1   2
ATOM      2  C   UNL     1       5.923   1.444   3.806  0.00  0.00    -0.029 A 
ATOM      3  C   UNL     1       6.486   1.012   2.618  0.00  0.00    +0.007 A 
ATOM      4  C   UNL     1       6.886  -0.300   2.483  0.00  0.00    +0.024 A 
ATOM      5  C   UNL     1       6.715  -1.203   3.535  0.00  0.00    +0.033 A 
ATOM      6  C   UNL     1       6.150  -0.766   4.720  0.00  0.00    -0.026 A 
ATOM      7  C   UNL     1       5.755   0.556   4.850  0.00  0.00    +0.010 A 
ATOM      8  C   UNL     1       5.948  -1.687   5.897  0.00  0.00    +0.038 C 
ATOM      9  C   UNL     1       6.079  -3.142   5.440  0.00  0.00    +0.024 C 
ATOM     10  C   UNL     1       7.343  -3.254   4.578  0.00  0.00    +0.105 C 
ATOM     11  N   UNL     1       7.125  -2.519   3.330  0.00  0.00    -0.333 N 
ATOM     12  C   UNL     1       8.318  -2.572   2.474  0.00  0.00    +0.129 C 
ENDBRANCH   1   2
BRANCH   1  13
ATOM     13  N   UNL     1       6.673   3.747   4.002  0.00  0.00    -0.298 NA
ATOM     14  C   UNL     1       7.462   3.627   2.768  0.00  0.00    +0.066 C 
ATOM     15  C   UNL     1       8.639   4.603   2.821  0.00  0.00    -0.064 C 
ATOM     16  N   UNL     1       9.465   4.306   4.000  0.00  0.00    +0.379 N 
ATOM     17  C   UNL     1       8.677   4.426   5.235  0.00  0.00    -0.064 C 
ATOM     18  C   UNL     1       7.499   3.450   5.181  0.00  0.00    +0.066 C 
ATOM     19  C   UNL     1      10.649   5.174   4.046  0.00  0.00    -0.096 C 
ATOM     20  H   UNL     1       9.812   3.266   3.919  0.00  0.00    -0.082 HD
ENDBRANCH   1  13
BRANCH   1  21
ATOM     21  C   UNL     1       4.612   3.274   2.767  0.00  0.00    +0.129 C 
BRANCH  21  22
ATOM     22  N   UNL     1       4.288   4.700   2.852  0.00  0.00    -0.188 NA
ATOM     23  H   UNL     1       4.294   5.209   3.828  0.00  0.00    +0.148 HD
BRANCH  22  24
ATOM     24  S   UNL     1       3.675   5.490   1.532  0.00  0.00    +0.062 S 
ATOM     25  O   UNL     1       4.514   5.158   0.434  0.00  0.00    -0.153 OA
ATOM     26  O   UNL     1       3.443   6.833   1.934  0.00  0.00    -0.153 OA
BRANCH  24  32
ATOM     27  C   UNL     1       1.998   3.461   0.794  0.00  0.00    +0.147 A 
ATOM     28  C   UNL     1       0.753   2.910   0.526  0.00  0.00    +0.048 A 
ATOM     29  C   UNL     1      -0.384   3.683   0.650  0.00  0.00    +0.007 A 
ATOM     30  C   UNL     1      -0.284   5.003   1.051  0.00  0.00    -0.048 A 
ATOM     31  C   UNL     1       0.955   5.555   1.318  0.00  0.00    +0.035 A 
ATOM     32  C   UNL     1       2.096   4.787   1.190  0.00  0.00    +0.147 A 
ATOM     33  C   UNL     1      -1.528   5.843   1.191  0.00  0.00    +0.044 C 
BRANCH  27  34
ATOM     34  O   UNL     1       3.119   2.704   0.667  0.00  0.00    -0.490 OA
BRANCH  34  36
ATOM     35  C   UNL     1       4.306   0.659   0.168  0.00  0.00    +0.048 C 
ATOM     36  C   UNL     1       2.943   1.347   0.254  0.00  0.00    +0.226 C 
ENDBRANCH  34  36
ENDBRANCH  27  34
ENDBRANCH  24  32
ENDBRANCH  22  24
ENDBRANCH  21  22
ENDBRANCH   1  21
TORSDOF 8
