REMARK  Name = ZINC16039437
REMARK  4 active torsions:
REMARK  status: ('A' for Active; 'I' for Inactive)
REMARK    1  A    between atoms: C_16  and  C_18
REMARK    2  A    between atoms: C_18  and  C_20
REMARK    3  A    between atoms: N_29  and  C_32
REMARK    4  A    between atoms: C_36  and  N_38
REMARK                            x       y       z     vdW  Elec       q    Type
REMARK                         _______ _______ _______ _____ _____    ______ ____
ROOT
ATOM      1  C   UNL     1       1.205  -0.677   0.005  0.00  0.00    +0.001 A 
ATOM      2  C   UNL     1       2.395   0.029   0.016  0.00  0.00    +0.000 A 
ATOM      3  C   UNL     1       2.385   1.412   0.015  0.00  0.00    +0.006 A 
ATOM      4  C   UNL     1       1.189   2.101   0.002  0.00  0.00    -0.021 A 
ATOM      5  C   UNL     1      -0.017   1.392   0.010  0.00  0.00    -0.019 A 
ATOM      6  C   UNL     1       0.002  -0.004   0.002  0.00  0.00    +0.008 A 
ATOM      7  C   UNL     1      -1.307   2.108   0.020  0.00  0.00    +0.022 C 
ATOM      8  C   UNL     1      -1.335   3.433   0.233  0.00  0.00    +0.054 C 
ATOM      9  N   UNL     1      -0.141   4.088   0.444  0.00  0.00    -0.384 NA
ATOM     10  C   UNL     1       1.180   3.599  -0.048  0.00  0.00    +0.100 C 
ATOM     11  C   UNL     1       2.128   4.271   0.843  0.00  0.00    +0.113 C 
ATOM     12  C   UNL     1       1.525   5.726   0.933  0.00  0.00    +0.116 C 
ATOM     13  C   UNL     1       0.071   5.354   1.186  0.00  0.00    +0.141 C 
ATOM     14  C   UNL     1       2.404   6.231   2.033  0.00  0.00    +0.232 C 
ATOM     15  O   UNL     1       2.105   7.022   2.901  0.00  0.00    -0.274 OA
ATOM     16  N   UNL     1       3.613   5.619   1.857  0.00  0.00    -0.210 N 
ATOM     17  C   UNL     1       3.543   4.542   1.009  0.00  0.00    +0.232 C 
ATOM     18  O   UNL     1       4.467   3.946   0.496  0.00  0.00    -0.274 OA
ATOM     19  H   UNL     1      -1.170   3.717   0.321  0.00  0.00    +0.127 HD
ENDROOT
BRANCH  16  20
ATOM     20  C   UNL     1       4.797   6.045   2.475  0.00  0.00    +0.046 A 
ATOM     21  C   UNL     1       5.986   5.367   2.242  0.00  0.00    +0.024 A 
ATOM     22  C   UNL     1       7.151   5.790   2.852  0.00  0.00    +0.004 A 
ATOM     23  C   UNL     1       7.134   6.887   3.694  0.00  0.00    +0.033 A 
ATOM     24  C   UNL     1       5.951   7.564   3.927  0.00  0.00    +0.128 A 
ATOM     25  C   UNL     1       4.784   7.149   3.316  0.00  0.00    +0.056 A 
BRANCH  24  26
ATOM     26  N   UNL     1       5.936   8.738   4.829  0.00  0.00    +0.056 N 
ATOM     27  O   UNL     1       6.966   9.107   5.364  0.00  0.00    -0.126 OA
ATOM     28  O   UNL     1       4.895   9.335   5.035  0.00  0.00    -0.126 OA
ENDBRANCH  24  26
ENDBRANCH  16  20
BRANCH  13  29
ATOM     29  C   UNL     1      -0.169   5.143   2.659  0.00  0.00    +0.183 C 
ATOM     30  O   UNL     1      -0.153   4.021   3.121  0.00  0.00    -0.290 OA
BRANCH  29  31
ATOM     31  C   UNL     1      -0.421   6.296   3.535  0.00  0.00    +0.019 A 
ATOM     32  C   UNL     1      -0.433   7.591   3.006  0.00  0.00    +0.013 A 
ATOM     33  C   UNL     1      -0.674   8.667   3.833  0.00  0.00    +0.020 A 
ATOM     34  C   UNL     1      -0.894   8.470   5.187  0.00  0.00    +0.041 A 
ATOM     35  C   UNL     1      -0.879   7.190   5.718  0.00  0.00    +0.020 A 
ATOM     36  C   UNL     1      -0.643   6.104   4.903  0.00  0.00    +0.013 A 
ATOM     37 CL   UNL     1      -1.190   9.831   6.222  0.00  0.00    -0.084 Cl
ENDBRANCH  29  31
ENDBRANCH  13  29
TORSDOF 4
