REMARK  Name = ZINC16021929
REMARK  7 active torsions:
REMARK  status: ('A' for Active; 'I' for Inactive)
REMARK    1  A    between atoms: C_1  and  C_2
REMARK    2  A    between atoms: C_2  and  C_3
REMARK    3  A    between atoms: C_2  and  C_4
REMARK    4  A    between atoms: C_4  and  C_5
REMARK    5  A    between atoms: N_13  and  C_16
REMARK    6  A    between atoms: C_16  and  C_17
REMARK    7  A    between atoms: C_17  and  C_18
REMARK                            x       y       z     vdW  Elec       q    Type
REMARK                         _______ _______ _______ _____ _____    ______ ____
ROOT
ATOM      1  C   UNL     1      -0.042  -0.124   2.497  0.00  0.00    -0.057 C 
ATOM      2  C   UNL     1       0.730  -0.549   3.764  0.00  0.00    +0.073 C 
ATOM      3  C   UNL     1      -0.365  -1.030   4.757  0.00  0.00    +0.088 C 
ATOM      4  C   UNL     1      -0.062  -2.502   4.921  0.00  0.00    +0.225 C 
ATOM      5  O   UNL     1      -0.680  -3.270   5.628  0.00  0.00    -0.275 OA
ATOM      6  N   UNL     1       0.994  -2.826   4.166  0.00  0.00    -0.241 N 
ATOM      7  C   UNL     1       1.528  -1.798   3.468  0.00  0.00    +0.224 C 
ATOM      8  O   UNL     1       2.485  -1.859   2.726  0.00  0.00    -0.275 OA
ATOM      9  C   UNL     1      -1.683  -0.842   3.996  0.00  0.00    +0.050 C 
ATOM     10  N   UNL     1      -1.324  -0.874   2.559  0.00  0.00    +0.394 N 
ATOM     11  C   UNL     1      -2.366   0.439   4.385  0.00  0.00    -0.026 A 
ATOM     12  C   UNL     1      -1.995   1.764   4.332  0.00  0.00    +0.004 A 
ATOM     13  C   UNL     1      -2.863   2.745   4.778  0.00  0.00    +0.002 A 
ATOM     14  C   UNL     1      -4.104   2.391   5.275  0.00  0.00    +0.022 A 
ATOM     15  C   UNL     1      -4.481   1.064   5.329  0.00  0.00    +0.062 A 
ATOM     16  C   UNL     1      -3.611   0.070   4.883  0.00  0.00    +0.054 A 
ATOM     17  N   UNL     1      -3.759  -1.318   4.835  0.00  0.00    -0.285 N 
ATOM     18  C   UNL     1      -2.670  -1.928   4.327  0.00  0.00    +0.211 C 
ATOM     19  O   UNL     1      -2.515  -3.120   4.168  0.00  0.00    -0.277 OA
ATOM     20 CL   UNL     1      -6.041   0.632   5.955  0.00  0.00    -0.082 Cl
ATOM     21  H   UNL     1      -2.032  -0.409   2.010  0.00  0.00    -0.083 HD
ATOM     22  H   UNL     1      -4.553  -1.789   5.134  0.00  0.00    +0.155 HD
ATOM     23  H   UNL     1      -1.194  -1.822   2.240  0.00  0.00    -0.083 HD
ENDROOT
BRANCH   1  24
ATOM     24  C   UNL     1       0.742  -0.511   1.242  0.00  0.00    -0.012 C 
BRANCH  24  26
ATOM     25  C   UNL     1      -0.019   1.526   0.010  0.00  0.00    +0.007 C 
ATOM     26  C   UNL     1       0.002  -0.004   0.002  0.00  0.00    -0.019 C 
ATOM     27  C   UNL     1       0.718  -0.497  -1.257  0.00  0.00    +0.007 C 
ENDBRANCH  24  26
ENDBRANCH   1  24
BRANCH   6  28
ATOM     28  C   UNL     1       1.535  -4.186   4.103  0.00  0.00    +0.121 C 
BRANCH  28  29
ATOM     29  C   UNL     1       0.842  -4.959   2.978  0.00  0.00    +0.054 C 
BRANCH  29  30
ATOM     30  C   UNL     1       1.399  -6.358   2.913  0.00  0.00    -0.046 A 
ATOM     31  C   UNL     1       2.497  -6.628   2.117  0.00  0.00    +0.004 A 
ATOM     32  C   UNL     1       3.007  -7.912   2.058  0.00  0.00    +0.000 A 
ATOM     33  C   UNL     1       2.421  -8.924   2.794  0.00  0.00    +0.000 A 
ATOM     34  C   UNL     1       1.324  -8.653   3.590  0.00  0.00    +0.000 A 
ATOM     35  C   UNL     1       0.816  -7.369   3.653  0.00  0.00    +0.004 A 
ENDBRANCH  29  30
ENDBRANCH  28  29
ENDBRANCH   6  28
TORSDOF 5
