REMARK  Name = ZINC38556266
REMARK  8 active torsions:
REMARK  status: ('A' for Active; 'I' for Inactive)
REMARK    1  A    between atoms: C_1  and  C_2
REMARK    2  A    between atoms: C_4  and  C_8
REMARK    3  A    between atoms: C_12  and  S_16
REMARK    4  A    between atoms: N_14  and  N_15
REMARK    5  A    between atoms: S_16  and  C_17
REMARK    6  A    between atoms: C_17  and  C_18
REMARK    7  A    between atoms: C_18  and  C_20
REMARK    8  A    between atoms: C_23  and  C_26
REMARK                            x       y       z     vdW  Elec       q    Type
REMARK                         _______ _______ _______ _____ _____    ______ ____
ROOT
ATOM      1  C   UNL     1      -0.976  -2.937  -1.266  0.00  0.00    +0.185 C 
ATOM      2  N   UNL     1      -0.331  -2.354  -2.472  0.00  0.00    -0.234 NA
ATOM      3  N   UNL     1      -0.366  -3.464  -3.437  0.00  0.00    -0.228 NA
ATOM      4  C   UNL     1      -0.103  -4.671  -2.622  0.00  0.00    +0.214 C 
ATOM      5  N   UNL     1      -0.495  -4.338  -1.235  0.00  0.00    -0.197 NA
ATOM      6  H   UNL     1      -0.854  -1.561  -2.814  0.00  0.00    +0.143 HD
ATOM      7  H   UNL     1       0.339  -3.346  -4.149  0.00  0.00    +0.143 HD
ENDROOT
BRANCH   1  11
ATOM      8  C   UNL     1      -0.018   1.503   0.010  0.00  0.00    +0.067 C 
ATOM      9  C   UNL     1       0.002  -0.004   0.002  0.00  0.00    +0.058 C 
ATOM     10  C   UNL     1      -1.086  -0.777   0.003  0.00  0.00    +0.029 C 
ATOM     11  C   UNL     1      -0.531  -2.190  -0.007  0.00  0.00    +0.186 C 
ATOM     12  N   UNL     1       0.926  -1.973  -0.013  0.00  0.00    -0.177 NA
ATOM     13  N   UNL     1       1.125  -0.756  -0.013  0.00  0.00    -0.159 NA
ENDBRANCH   1  11
BRANCH   5  14
ATOM     14  N   UNL     1       0.630  -4.482  -0.326  0.00  0.00    -0.264 NA
ATOM     15  H   UNL     1       0.958  -5.436  -0.305  0.00  0.00    +0.137 HD
ATOM     16  H   UNL     1       1.377  -3.849  -0.572  0.00  0.00    +0.137 HD
ENDBRANCH   5  14
BRANCH   4  17
ATOM     17  S   UNL     1      -1.096  -6.061  -3.231  0.00  0.00    -0.116 S 
BRANCH  17  18
ATOM     18  C   UNL     1      -2.806  -5.471  -3.096  0.00  0.00    +0.151 C 
BRANCH  18  19
ATOM     19  C   UNL     1      -3.748  -6.545  -3.576  0.00  0.00    +0.173 C 
ATOM     20  O   UNL     1      -3.309  -7.604  -3.970  0.00  0.00    -0.291 OA
BRANCH  19  21
ATOM     21  C   UNL     1      -5.199  -6.308  -3.567  0.00  0.00    +0.018 A 
ATOM     22  C   UNL     1      -5.706  -5.083  -3.117  0.00  0.00    +0.012 A 
ATOM     23  C   UNL     1      -7.060  -4.864  -3.110  0.00  0.00    +0.009 A 
ATOM     24  C   UNL     1      -7.931  -5.862  -3.549  0.00  0.00    -0.018 A 
ATOM     25  C   UNL     1      -7.428  -7.084  -3.997  0.00  0.00    +0.009 A 
ATOM     26  C   UNL     1      -6.075  -7.305  -4.013  0.00  0.00    +0.012 A 
BRANCH  24  27
ATOM     27  C   UNL     1      -9.394  -5.623  -3.539  0.00  0.00    -0.018 A 
ATOM     28  C   UNL     1      -9.901  -4.402  -3.097  0.00  0.00    +0.008 A 
ATOM     29  C   UNL     1     -11.264  -4.186  -3.090  0.00  0.00    +0.001 A 
ATOM     30  C   UNL     1     -12.127  -5.178  -3.519  0.00  0.00    +0.000 A 
ATOM     31  C   UNL     1     -11.630  -6.392  -3.959  0.00  0.00    +0.001 A 
ATOM     32  C   UNL     1     -10.269  -6.617  -3.977  0.00  0.00    +0.008 A 
ENDBRANCH  24  27
ENDBRANCH  19  21
ENDBRANCH  18  19
ENDBRANCH  17  18
ENDBRANCH   4  17
TORSDOF 7
