REMARK  Name = ZINC23857932
REMARK  7 active torsions:
REMARK  status: ('A' for Active; 'I' for Inactive)
REMARK    1  A    between atoms: C_1  and  N_2
REMARK    2  A    between atoms: C_9  and  C_11
REMARK    3  A    between atoms: C_11  and  C_13
REMARK    4  A    between atoms: C_11  and  N_26
REMARK    5  A    between atoms: C_13  and  N_14
REMARK    6  A    between atoms: C_15  and  C_17
REMARK    7  A    between atoms: C_22  and  N_23
REMARK                            x       y       z     vdW  Elec       q    Type
REMARK                         _______ _______ _______ _____ _____    ______ ____
ROOT
ATOM      1  C   UNL     1      -2.130   5.950   0.448  0.00  0.00    -0.020 C 
ENDROOT
BRANCH   1  10
ATOM      2  C   UNL     1       3.055   3.997   3.788  0.00  0.00    +0.129 C 
ATOM      3  N   UNL     1       2.044   3.177   3.107  0.00  0.00    -0.332 N 
ATOM      4  C   UNL     1       2.642   2.421   1.986  0.00  0.00    +0.109 C 
ATOM      5  C   UNL     1       1.472   2.317   0.981  0.00  0.00    +0.056 C 
ATOM      6  C   UNL     1       0.617   3.518   1.333  0.00  0.00    -0.025 A 
ATOM      7  C   UNL     1       1.013   3.973   2.585  0.00  0.00    +0.033 A 
ATOM      8  C   UNL     1       0.378   5.085   3.134  0.00  0.00    +0.023 A 
ATOM      9  C   UNL     1      -0.633   5.719   2.442  0.00  0.00    +0.004 A 
ATOM     10  C   UNL     1      -1.023   5.256   1.199  0.00  0.00    -0.059 A 
ATOM     11  C   UNL     1      -0.396   4.154   0.646  0.00  0.00    +0.007 A 
ENDBRANCH   1  10
BRANCH   1  12
ATOM     12  N   UNL     1      -3.193   6.334   1.387  0.00  0.00    +0.385 N 
ATOM     13  C   UNL     1      -3.721   5.160   2.093  0.00  0.00    -0.078 C 
ATOM     14  C   UNL     1      -4.718   5.613   3.163  0.00  0.00    -0.019 C 
ATOM     15  C   UNL     1      -5.859   6.386   2.495  0.00  0.00    -0.004 C 
ATOM     16  C   UNL     1      -5.277   7.576   1.726  0.00  0.00    -0.019 C 
ATOM     17  C   UNL     1      -4.264   7.066   0.698  0.00  0.00    -0.078 C 
ATOM     18  H   UNL     1      -2.755   7.009   2.137  0.00  0.00    -0.081 HD
ENDBRANCH   1  12
BRANCH   1  19
ATOM     19  C   UNL     1      -1.576   7.201  -0.236  0.00  0.00    +0.094 C 
BRANCH  19  20
ATOM     20  N   UNL     1      -0.572   6.811  -1.228  0.00  0.00    -0.313 N 
ATOM     21  C   UNL     1       0.132   7.756  -1.882  0.00  0.00    +0.246 C 
ATOM     22  O   UNL     1      -0.067   8.932  -1.649  0.00  0.00    -0.270 OA
ATOM     23  H   UNL     1      -0.391   5.747  -1.440  0.00  0.00    +0.149 HD
BRANCH  21  24
ATOM     24  C   UNL     1       1.146   7.363  -2.884  0.00  0.00    +0.067 A 
ATOM     25  C   UNL     1       1.280   6.024  -3.257  0.00  0.00    +0.015 A 
ATOM     26  C   UNL     1       2.224   5.665  -4.196  0.00  0.00    +0.001 A 
ATOM     27  C   UNL     1       3.045   6.625  -4.759  0.00  0.00    +0.002 A 
ATOM     28  C   UNL     1       2.922   7.953  -4.389  0.00  0.00    +0.033 A 
ATOM     29  C   UNL     1       1.978   8.327  -3.455  0.00  0.00    +0.138 A 
BRANCH  29  30
ATOM     30  N   UNL     1       1.847   9.747  -3.060  0.00  0.00    +0.057 N 
ATOM     31  O   UNL     1       1.734  10.609  -3.914  0.00  0.00    -0.126 OA
ATOM     32  O   UNL     1       1.853  10.055  -1.882  0.00  0.00    -0.126 OA
ENDBRANCH  29  30
ENDBRANCH  21  24
ENDBRANCH  19  20
ENDBRANCH   1  19
TORSDOF 6
