REMARK  Name = ZINC16328142
REMARK  8 active torsions:
REMARK  status: ('A' for Active; 'I' for Inactive)
REMARK    1  A    between atoms: C_1  and  C_2
REMARK    2  A    between atoms: C_2  and  C_3
REMARK    3  A    between atoms: C_7  and  C_25
REMARK    4  A    between atoms: C_8  and  N_9
REMARK    5  A    between atoms: C_13  and  S_15
REMARK    6  A    between atoms: S_15  and  C_16
REMARK    7  A    between atoms: C_16  and  C_18
REMARK    8  A    between atoms: C_16  and  C_19
REMARK                            x       y       z     vdW  Elec       q    Type
REMARK                         _______ _______ _______ _____ _____    ______ ____
ROOT
ATOM      1  N   UNL     1      -1.270  -0.856   2.289  0.00  0.00    -0.292 N 
ATOM      2  C   UNL     1      -1.480  -1.909   3.172  0.00  0.00    +0.187 A 
ATOM      3  N   UNL     1      -2.615  -2.434   3.593  0.00  0.00    -0.125 NA
ATOM      4  N   UNL     1      -2.595  -3.489   4.475  0.00  0.00    -0.133 NA
ATOM      5  C   UNL     1      -1.442  -3.964   4.906  0.00  0.00    +0.161 A 
ATOM      6  S   UNL     1      -0.285  -2.909   4.046  0.00  0.00    -0.024 S 
ATOM      7  H   UNL     1      -0.368  -0.614   2.028  0.00  0.00    +0.154 HD
ENDROOT
BRANCH   1  13
ATOM      8  C   UNL     1      -2.557   1.181   2.140  0.00  0.00    -0.026 A 
ATOM      9  C   UNL     1      -3.638   1.879   1.637  0.00  0.00    +0.005 A 
ATOM     10  C   UNL     1      -4.516   1.262   0.765  0.00  0.00    +0.001 A 
ATOM     11  C   UNL     1      -4.322  -0.059   0.403  0.00  0.00    +0.005 A 
ATOM     12  C   UNL     1      -3.247  -0.764   0.906  0.00  0.00    -0.029 A 
ATOM     13  C   UNL     1      -2.359  -0.145   1.778  0.00  0.00    +0.039 A 
ATOM     14  C   UNL     1      -3.037  -2.203   0.510  0.00  0.00    +0.045 C 
BRANCH   8  16
ATOM     15  C   UNL     1      -0.405   2.402   2.297  0.00  0.00    +0.009 C 
ATOM     16  C   UNL     1      -1.597   1.856   3.085  0.00  0.00    +0.033 C 
ENDBRANCH   8  16
ENDBRANCH   1  13
BRANCH   5  17
ATOM     17  S   UNL     1      -1.127  -5.285   6.027  0.00  0.00    -0.084 S 
BRANCH  17  18
ATOM     18  C   UNL     1      -2.780  -5.877   6.484  0.00  0.00    +0.136 C 
ATOM     19  C   UNL     1      -3.521  -4.779   7.250  0.00  0.00    +0.029 C 
BRANCH  18  20
ATOM     20  C   UNL     1      -2.653  -7.099   7.356  0.00  0.00    +0.233 C 
ATOM     21  O   UNL     1      -1.647  -7.277   8.008  0.00  0.00    -0.274 OA
ATOM     22  N   UNL     1      -3.659  -7.995   7.410  0.00  0.00    -0.239 N 
ATOM     23  C   UNL     1      -3.545  -9.089   8.190  0.00  0.00    +0.303 C 
ATOM     24  O   UNL     1      -2.536  -9.267   8.844  0.00  0.00    -0.253 OA
ATOM     25  N   UNL     1      -4.551  -9.985   8.244  0.00  0.00    -0.313 N 
ATOM     26  H   UNL     1      -4.464  -7.853   6.888  0.00  0.00    +0.159 HD
ATOM     27  H   UNL     1      -5.356  -9.843   7.723  0.00  0.00    +0.146 HD
ATOM     28  H   UNL     1      -4.469 -10.772   8.806  0.00  0.00    +0.146 HD
ENDBRANCH  18  20
ENDBRANCH  17  18
ENDBRANCH   5  17
TORSDOF 5
