REMARK  Name = ZINC37205619
REMARK  7 active torsions:
REMARK  status: ('A' for Active; 'I' for Inactive)
REMARK    1  A    between atoms: C_1  and  C_2
REMARK    2  A    between atoms: C_2  and  C_4
REMARK    3  A    between atoms: C_2  and  N_9
REMARK    4  A    between atoms: C_10  and  C_12
REMARK    5  A    between atoms: C_12  and  S_13
REMARK    6  A    between atoms: S_13  and  C_14
REMARK    7  A    between atoms: C_19  and  N_20
REMARK                            x       y       z     vdW  Elec       q    Type
REMARK                         _______ _______ _______ _____ _____    ______ ____
ROOT
ATOM      1  C   UNL     1       0.712  -1.094  -3.598  0.00  0.00    +0.170 C 
ENDROOT
BRANCH   1   3
ATOM      2  N   UNL     1       0.688  -0.476  -1.203  0.00  0.00    -0.305 N 
ATOM      3  C   UNL     1       0.006  -0.608  -2.358  0.00  0.00    +0.224 C 
ATOM      4  O   UNL     1      -1.175  -0.336  -2.400  0.00  0.00    -0.275 OA
ATOM      5  H   UNL     1       1.632  -0.695  -1.170  0.00  0.00    +0.149 HD
BRANCH   2   7
ATOM      6  C   UNL     1      -0.019   1.526   0.010  0.00  0.00    +0.036 C 
ATOM      7  C   UNL     1       0.002  -0.004   0.002  0.00  0.00    +0.136 C 
BRANCH   7   8
ATOM      8  C   UNL     1       0.731  -0.503   1.223  0.00  0.00    +0.125 A 
ATOM      9  C   UNL     1       0.156  -0.963   2.349  0.00  0.00    +0.046 A 
ATOM     10  C   UNL     1       1.205  -1.322   3.227  0.00  0.00    +0.041 A 
ATOM     11  C   UNL     1       2.358  -1.060   2.584  0.00  0.00    +0.195 A 
ATOM     12  O   UNL     1       2.064  -0.570   1.369  0.00  0.00    -0.466 OA
ENDBRANCH   7   8
ENDBRANCH   2   7
ENDBRANCH   1   3
BRANCH   1  13
ATOM     13  S   UNL     1      -0.466  -1.164  -4.976  0.00  0.00    -0.114 S 
BRANCH  13  14
ATOM     14  C   UNL     1       0.498  -1.742  -6.333  0.00  0.00    +0.029 A 
ATOM     15  C   UNL     1       1.845  -2.026  -6.158  0.00  0.00    +0.017 A 
ATOM     16  C   UNL     1       2.600  -2.479  -7.223  0.00  0.00    +0.016 A 
ATOM     17  C   UNL     1       2.016  -2.651  -8.466  0.00  0.00    +0.020 A 
ATOM     18  C   UNL     1       0.674  -2.370  -8.649  0.00  0.00    +0.039 A 
ATOM     19  C   UNL     1      -0.091  -1.920  -7.585  0.00  0.00    +0.039 A 
ATOM     20 BR   UNL     1       3.057  -3.271  -9.918  0.00  0.00    -0.050 Br
BRANCH  19  21
ATOM     21  N   UNL     1      -1.451  -1.640  -7.766  0.00  0.00    -0.357 N 
ATOM     22  H   UNL     1      -1.984  -1.321  -7.022  0.00  0.00    +0.142 HD
ATOM     23  H   UNL     1      -1.860  -1.764  -8.637  0.00  0.00    +0.142 HD
ENDBRANCH  19  21
ENDBRANCH  13  14
ENDBRANCH   1  13
TORSDOF 6
