REMARK  Name = ZINC67401377
REMARK  6 active torsions:
REMARK  status: ('A' for Active; 'I' for Inactive)
REMARK    1  A    between atoms: C_1  and  C_2
REMARK    2  A    between atoms: C_2  and  C_4
REMARK    3  A    between atoms: C_2  and  N_10
REMARK    4  A    between atoms: C_13  and  C_16
REMARK    5  A    between atoms: C_16  and  C_18
REMARK    6  A    between atoms: C_16  and  O_25
REMARK                            x       y       z     vdW  Elec       q    Type
REMARK                         _______ _______ _______ _____ _____    ______ ____
ROOT
ATOM      1  N   UNL     1       0.324  -0.924   1.101  0.00  0.00    +0.387 N 
ATOM      2  C   UNL     1      -0.449  -0.551   2.292  0.00  0.00    -0.077 C 
ATOM      3  C   UNL     1      -0.058  -1.456   3.462  0.00  0.00    -0.012 C 
ATOM      4  C   UNL     1      -0.354  -2.913   3.096  0.00  0.00    +0.019 C 
ATOM      5  C   UNL     1       0.399  -3.268   1.811  0.00  0.00    -0.012 C 
ATOM      6  C   UNL     1      -0.009  -2.297   0.701  0.00  0.00    -0.077 C 
ATOM      7  H   UNL     1       1.309  -0.866   1.310  0.00  0.00    -0.081 HD
ENDROOT
BRANCH   1   9
ATOM      8  C   UNL     1       0.361   1.425   0.412  0.00  0.00    -0.004 C 
ATOM      9  C   UNL     1       0.002  -0.004   0.002  0.00  0.00    +0.017 C 
BRANCH   9  10
ATOM     10  C   UNL     1       0.792  -0.388  -1.223  0.00  0.00    +0.207 C 
ATOM     11  O   UNL     1       1.867  -0.935  -1.103  0.00  0.00    -0.277 OA
ATOM     12  N   UNL     1       0.302  -0.124  -2.450  0.00  0.00    -0.242 N 
ATOM     13  C   UNL     1       1.009  -0.468  -3.546  0.00  0.00    +0.303 C 
ATOM     14  O   UNL     1       2.087  -1.016  -3.426  0.00  0.00    -0.253 OA
ATOM     15  N   UNL     1       0.519  -0.203  -4.773  0.00  0.00    -0.313 N 
ATOM     16  H   UNL     1      -0.558   0.314  -2.546  0.00  0.00    +0.159 HD
ATOM     17  H   UNL     1      -0.341   0.234  -4.869  0.00  0.00    +0.146 HD
ATOM     18  H   UNL     1       1.028  -0.451  -5.561  0.00  0.00    +0.146 HD
ENDBRANCH   9  10
ENDBRANCH   1   9
BRANCH   4  19
ATOM     19  C   UNL     1       0.108  -3.830   4.230  0.00  0.00    +0.147 C 
BRANCH  19  20
ATOM     20  C   UNL     1      -0.184  -5.263   3.868  0.00  0.00    -0.019 A 
ATOM     21  C   UNL     1       0.718  -5.981   3.105  0.00  0.00    +0.007 A 
ATOM     22  C   UNL     1       0.451  -7.295   2.772  0.00  0.00    +0.020 A 
ATOM     23  C   UNL     1      -0.720  -7.893   3.203  0.00  0.00    +0.041 A 
ATOM     24  C   UNL     1      -1.623  -7.174   3.966  0.00  0.00    +0.020 A 
ATOM     25  C   UNL     1      -1.352  -5.861   4.303  0.00  0.00    +0.007 A 
ATOM     26 CL   UNL     1      -1.057  -9.544   2.785  0.00  0.00    -0.084 Cl
ENDBRANCH  19  20
BRANCH  19  27
ATOM     27  O   UNL     1       1.513  -3.666   4.432  0.00  0.00    -0.387 OA
ATOM     28  H   UNL     1       2.050  -3.880   3.656  0.00  0.00    +0.210 HD
ENDBRANCH  19  27
ENDBRANCH   4  19
TORSDOF 5
