REMARK  Name = ZINC09593358
REMARK  10 active torsions:
REMARK  status: ('A' for Active; 'I' for Inactive)
REMARK    1  A    between atoms: C_1  and  C_2
REMARK    2  A    between atoms: C_5  and  S_8
REMARK    3  A    between atoms: S_8  and  N_11
REMARK    4  A    between atoms: N_11  and  C_12
REMARK    5  A    between atoms: N_11  and  C_13
REMARK    6  A    between atoms: C_16  and  C_19
REMARK    7  A    between atoms: N_21  and  C_22
REMARK    8  A    between atoms: C_22  and  C_23
REMARK    9  A    between atoms: C_23  and  C_25
REMARK   10  A    between atoms: C_23  and  N_65
REMARK                            x       y       z     vdW  Elec       q    Type
REMARK                         _______ _______ _______ _____ _____    ______ ____
ROOT
ATOM      1  C   UNL     1      -2.213   2.046   1.469  0.00  0.00    +0.051 A 
ATOM      2  C   UNL     1      -2.765   3.025   2.290  0.00  0.00    +0.025 A 
ATOM      3  C   UNL     1      -4.128   3.212   2.319  0.00  0.00    +0.015 A 
ATOM      4  C   UNL     1      -4.959   2.410   1.531  0.00  0.00    +0.037 A 
ATOM      5  C   UNL     1      -4.402   1.424   0.712  0.00  0.00    +0.015 A 
ATOM      6  C   UNL     1      -3.038   1.245   0.684  0.00  0.00    +0.025 A 
ENDROOT
BRANCH   4   7
ATOM      7  C   UNL     1      -6.421   2.604   1.563  0.00  0.00    +0.244 C 
ATOM      8  O   UNL     1      -7.143   1.906   0.877  0.00  0.00    -0.270 OA
ATOM      9  N   UNL     1      -6.957   3.556   2.353  0.00  0.00    -0.313 N 
ATOM     10  H   UNL     1      -6.382   4.113   2.901  0.00  0.00    +0.149 HD
BRANCH   9  11
ATOM     11  C   UNL     1      -8.409   3.749   2.385  0.00  0.00    +0.094 C 
BRANCH  11  12
ATOM     12  C   UNL     1      -8.752   4.882   3.355  0.00  0.00    -0.020 C 
BRANCH  12  13
ATOM     13  C   UNL     1     -10.231   5.163   3.296  0.00  0.00    -0.059 A 
ATOM     14  C   UNL     1     -10.918   5.491   4.450  0.00  0.00    +0.002 A 
ATOM     15  C   UNL     1     -12.274   5.753   4.396  0.00  0.00    +0.000 A 
ATOM     16  C   UNL     1     -12.945   5.678   3.189  0.00  0.00    +0.000 A 
ATOM     17  C   UNL     1     -12.259   5.346   2.036  0.00  0.00    +0.000 A 
ATOM     18  C   UNL     1     -10.902   5.088   2.090  0.00  0.00    +0.002 A 
ENDBRANCH  12  13
BRANCH  12  23
ATOM     19  C   UNL     1      -8.503   6.639   1.688  0.00  0.00    -0.078 C 
ATOM     20  C   UNL     1      -8.020   8.111   1.719  0.00  0.00    -0.020 C 
ATOM     21  C   UNL     1      -8.197   8.501   3.205  0.00  0.00    -0.020 C 
ATOM     22  C   UNL     1      -8.203   7.167   3.973  0.00  0.00    -0.078 C 
ATOM     23  N   UNL     1      -8.006   6.119   2.971  0.00  0.00    +0.385 N 
ATOM     24  H   UNL     1      -7.006   5.898   2.892  0.00  0.00    -0.081 HD
ENDBRANCH  12  23
ENDBRANCH  11  12
ENDBRANCH   9  11
ENDBRANCH   4   7
BRANCH   1  25
ATOM     25  N   UNL     1      -0.835   1.863   1.438  0.00  0.00    -0.206 N 
ATOM     26  C   UNL     1      -0.108   1.983   0.172  0.00  0.00    +0.157 C 
BRANCH  25  27
ATOM     27  S   UNL     1      -0.015   1.508   2.833  0.00  0.00    +0.074 S 
ATOM     28  O   UNL     1      -0.983   1.050   3.767  0.00  0.00    -0.150 OA
ATOM     29  O   UNL     1       1.109   0.726   2.455  0.00  0.00    -0.150 OA
BRANCH  27  34
ATOM     30  C   UNL     1       2.150   6.707   5.000  0.00  0.00    +0.044 C 
ATOM     31  C   UNL     1       1.609   5.408   4.459  0.00  0.00    -0.050 A 
ATOM     32  C   UNL     1       0.386   4.934   4.895  0.00  0.00    +0.005 A 
ATOM     33  C   UNL     1      -0.110   3.743   4.398  0.00  0.00    +0.029 A 
ATOM     34  C   UNL     1       0.617   3.026   3.466  0.00  0.00    +0.109 A 
ATOM     35  C   UNL     1       1.842   3.499   3.033  0.00  0.00    +0.029 A 
ATOM     36  C   UNL     1       2.336   4.692   3.526  0.00  0.00    +0.005 A 
ENDBRANCH  27  34
ENDBRANCH  25  27
ENDBRANCH   1  25
TORSDOF 8
