REMARK  Name = ZINC13499639
REMARK  11 active torsions:
REMARK  status: ('A' for Active; 'I' for Inactive)
REMARK    1  A    between atoms: C_1  and  C_2
REMARK    2  A    between atoms: C_2  and  C_3
REMARK    3  A    between atoms: C_3  and  C_4
REMARK    4  A    between atoms: C_4  and  C_6
REMARK    5  A    between atoms: C_4  and  N_75
REMARK    6  A    between atoms: N_10  and  C_11
REMARK    7  A    between atoms: C_17  and  C_18
REMARK    8  A    between atoms: C_17  and  N_75
REMARK    9  A    between atoms: C_23  and  C_31
REMARK   10  A    between atoms: C_24  and  C_30
REMARK   11  A    between atoms: C_32  and  N_75
REMARK                            x       y       z     vdW  Elec       q    Type
REMARK                         _______ _______ _______ _____ _____    ______ ____
ROOT
ATOM      1  N   UNL     1      -0.883  -2.504   1.121  0.00  0.00    +0.391 N 
ATOM      2  H   UNL     1      -0.631  -3.496   1.201  0.00  0.00    -0.080 HD
ENDROOT
BRANCH   1   3
ATOM      3  C   UNL     1      -1.788  -2.147   2.234  0.00  0.00    -0.067 C 
ATOM      4  C   UNL     1      -2.959  -3.151   2.284  0.00  0.00    -0.015 C 
ATOM      5  C   UNL     1      -4.178  -2.290   2.702  0.00  0.00    -0.002 C 
ATOM      6  C   UNL     1      -3.936  -0.962   1.944  0.00  0.00    -0.002 C 
ATOM      7  C   UNL     1      -2.409  -0.756   2.018  0.00  0.00    -0.015 C 
ENDBRANCH   1   3
BRANCH   1   8
ATOM      8  C   UNL     1      -1.564  -2.285  -0.173  0.00  0.00    +0.003 C 
BRANCH   8   9
ATOM      9  C   UNL     1      -1.325  -0.879  -0.661  0.00  0.00    +0.138 A 
ATOM     10  N   UNL     1      -0.199  -0.211  -0.603  0.00  0.00    -0.115 NA
ATOM     11  N   UNL     1      -0.399   0.952  -1.120  0.00  0.00    -0.023 NA
ATOM     12  N   UNL     1      -1.624   1.042  -1.507  0.00  0.00    -0.044 NA
ATOM     13  N   UNL     1      -2.226  -0.068  -1.246  0.00  0.00    -0.228 N 
BRANCH  13  14
ATOM     14  C   UNL     1      -3.628  -0.386  -1.530  0.00  0.00    +0.111 C 
ATOM     15  C   UNL     1      -3.879  -0.285  -3.035  0.00  0.00    +0.027 C 
ATOM     16  C   UNL     1      -5.343  -0.616  -3.332  0.00  0.00    +0.002 C 
ATOM     17  C   UNL     1      -6.249   0.373  -2.596  0.00  0.00    +0.000 C 
ATOM     18  C   UNL     1      -5.998   0.273  -1.090  0.00  0.00    +0.002 C 
ATOM     19  C   UNL     1      -4.534   0.604  -0.794  0.00  0.00    +0.027 C 
ENDBRANCH  13  14
ENDBRANCH   8   9
BRANCH   8  20
ATOM     20  C   UNL     1      -1.004  -3.280  -1.192  0.00  0.00    -0.008 C 
BRANCH  20  22
ATOM     21  C   UNL     1      -0.913  -5.690  -1.844  0.00  0.00    +0.004 C 
ATOM     22  C   UNL     1      -1.364  -4.705  -0.764  0.00  0.00    -0.005 C 
ENDBRANCH  20  22
ENDBRANCH   8  20
ENDBRANCH   1   8
BRANCH   1  23
ATOM     23  C   UNL     1       0.347  -1.688   1.188  0.00  0.00    -0.036 C 
BRANCH  23  24
ATOM     24  C   UNL     1       1.208  -2.203   2.313  0.00  0.00    +0.001 A 
ATOM     25  C   UNL     1       2.170  -3.124   2.061  0.00  0.00    +0.017 A 
ATOM     26  C   UNL     1       2.989  -3.604   3.175  0.00  0.00    -0.001 A 
ATOM     27  C   UNL     1       3.997  -4.553   2.976  0.00  0.00    +0.010 A 
ATOM     28  C   UNL     1       4.744  -4.980   4.037  0.00  0.00    +0.004 A 
ATOM     29  C   UNL     1       4.512  -4.480   5.312  0.00  0.00    -0.046 A 
ATOM     30  C   UNL     1       3.524  -3.545   5.531  0.00  0.00    -0.024 A 
ATOM     31  C   UNL     1       2.751  -3.095   4.466  0.00  0.00    +0.052 A 
ATOM     32  N   UNL     1       1.756  -2.159   4.656  0.00  0.00    -0.322 N 
ATOM     33  H   UNL     1       1.593  -1.809   5.546  0.00  0.00    +0.169 HD
ATOM     34  C   UNL     1       1.013  -1.720   3.625  0.00  0.00    +0.251 A 
ATOM     35  O   UNL     1       0.146  -0.888   3.830  0.00  0.00    -0.268 OA
ATOM     36  C   UNL     1       3.282  -3.012   6.920  0.00  0.00    +0.046 C 
ATOM     37  C   UNL     1       5.348  -4.966   6.467  0.00  0.00    +0.044 C 
ENDBRANCH  23  24
ENDBRANCH   1  23
TORSDOF 8
