REMARK  Name = ZINC43473600
REMARK  3 active torsions:
REMARK  status: ('A' for Active; 'I' for Inactive)
REMARK    1  A    between atoms: C_3  and  N_11
REMARK    2  A    between atoms: C_6  and  N_7
REMARK    3  A    between atoms: N_11  and  C_12
REMARK                            x       y       z     vdW  Elec       q    Type
REMARK                         _______ _______ _______ _____ _____    ______ ____
ROOT
ATOM      1  C   UNL     1      -0.017   1.378   0.010  0.00  0.00    +0.035 A 
ATOM      2  C   UNL     1       1.169   2.088   0.002  0.00  0.00    +0.028 A 
ATOM      3  C   UNL     1       2.381   1.411  -0.013  0.00  0.00    +0.063 A 
ATOM      4  C   UNL     1       2.398   0.020  -0.021  0.00  0.00    +0.146 A 
ATOM      5  C   UNL     1       1.207  -0.683  -0.013  0.00  0.00    +0.073 A 
ATOM      6  C   UNL     1       0.002  -0.004   0.002  0.00  0.00    +0.129 A 
ATOM      7  F   UNL     1       3.575  -0.642  -0.036  0.00  0.00    -0.203 F 
ENDROOT
BRANCH   6   8
ATOM      8  N   UNL     1      -1.270  -0.760   0.011  0.00  0.00    +0.057 N 
ATOM      9  O   UNL     1      -2.325  -0.168   0.024  0.00  0.00    -0.126 OA
ATOM     10  O   UNL     1      -1.256  -1.969   0.004  0.00  0.00    -0.126 OA
ENDBRANCH   6   8
BRANCH   3  11
ATOM     11  N   UNL     1       3.583   2.127  -0.021  0.00  0.00    -0.338 N 
ATOM     12  H   UNL     1       4.429   1.653  -0.032  0.00  0.00    +0.146 HD
BRANCH  11  13
ATOM     13  C   UNL     1       3.563   3.591  -0.014  0.00  0.00    +0.081 C 
ATOM     14  C   UNL     1       4.833   4.101  -0.694  0.00  0.00    +0.033 C 
ATOM     15  C   UNL     1       5.226   5.494  -0.127  0.00  0.00    +0.071 C 
ATOM     16  S   UNL     1       4.834   5.222   1.657  0.00  0.00    -0.159 S 
ATOM     17  C   UNL     1       3.413   4.076   1.442  0.00  0.00    +0.091 C 
ENDBRANCH  11  13
ENDBRANCH   3  11
TORSDOF 3
