REMARK  Name = ZINC51101505
REMARK  12 active torsions:
REMARK  status: ('A' for Active; 'I' for Inactive)
REMARK    1  A    between atoms: C_1  and  C_2
REMARK    2  A    between atoms: C_7  and  N_12
REMARK    3  A    between atoms: C_9  and  C_11
REMARK    4  A    between atoms: C_13  and  C_15
REMARK    5  A    between atoms: C_15  and  C_17
REMARK    6  A    between atoms: C_15  and  N_18
REMARK    7  A    between atoms: C_22  and  C_25
REMARK    8  A    between atoms: C_25  and  N_26
REMARK    9  A    between atoms: N_26  and  S_27
REMARK   10  A    between atoms: S_27  and  C_30
REMARK   11  A    between atoms: C_30  and  C_31
REMARK   12  A    between atoms: C_30  and  C_32
REMARK                            x       y       z     vdW  Elec       q    Type
REMARK                         _______ _______ _______ _____ _____    ______ ____
ROOT
ATOM      1  N   UNL     1      -2.291  -5.691   2.210  0.00  0.00    +0.387 N 
ATOM      2  C   UNL     1      -3.649  -6.238   2.098  0.00  0.00    -0.078 C 
ATOM      3  C   UNL     1      -3.643  -7.713   2.506  0.00  0.00    -0.018 C 
ATOM      4  C   UNL     1      -3.159  -7.835   3.954  0.00  0.00    +0.001 C 
ATOM      5  C   UNL     1      -1.774  -7.194   4.074  0.00  0.00    -0.012 C 
ATOM      6  C   UNL     1      -1.848  -5.739   3.608  0.00  0.00    -0.073 C 
ATOM      7  H   UNL     1      -1.663  -6.237   1.640  0.00  0.00    -0.081 HD
ENDROOT
BRANCH   1   8
ATOM      8  C   UNL     1      -2.287  -4.298   1.743  0.00  0.00    +0.016 C 
ATOM      9  C   UNL     1      -2.803  -4.240   0.304  0.00  0.00    -0.004 C 
BRANCH   8  11
ATOM     10  N   UNL     1      -0.676  -2.433   1.954  0.00  0.00    -0.314 N 
ATOM     11  C   UNL     1      -0.882  -3.755   1.796  0.00  0.00    +0.199 C 
ATOM     12  O   UNL     1       0.063  -4.508   1.695  0.00  0.00    -0.278 OA
ATOM     13  H   UNL     1      -1.432  -1.830   2.035  0.00  0.00    +0.149 HD
BRANCH  10  19
ATOM     14  C   UNL     1      -0.203   1.743   2.851  0.00  0.00    +0.008 C 
ATOM     15  C   UNL     1      -0.212   0.424   2.077  0.00  0.00    -0.009 C 
ATOM     16  C   UNL     1       0.295   0.664   0.654  0.00  0.00    +0.003 C 
ATOM     17  C   UNL     1       0.286  -0.655  -0.121  0.00  0.00    +0.002 C 
ATOM     18  C   UNL     1       1.197  -1.665   0.581  0.00  0.00    +0.022 C 
ATOM     19  C   UNL     1       0.690  -1.905   2.005  0.00  0.00    +0.076 C 
ATOM     20  C   UNL     1       0.699  -0.586   2.779  0.00  0.00    +0.009 C 
ATOM     21  C   UNL     1       0.192  -0.826   4.202  0.00  0.00    +0.009 C 
ENDBRANCH  10  19
ENDBRANCH   8  11
ENDBRANCH   1   8
BRANCH   5  22
ATOM     22  C   UNL     1      -1.314  -7.242   5.533  0.00  0.00    +0.107 C 
BRANCH  22  23
ATOM     23  N   UNL     1      -1.132  -8.636   5.942  0.00  0.00    -0.194 NA
ATOM     24  H   UNL     1      -1.503  -9.352   5.403  0.00  0.00    +0.148 HD
BRANCH  23  25
ATOM     25  S   UNL     1      -0.295  -8.991   7.327  0.00  0.00    +0.032 S 
ATOM     26  O   UNL     1      -0.295 -10.410   7.397  0.00  0.00    -0.158 OA
ATOM     27  O   UNL     1       0.925  -8.272   7.206  0.00  0.00    -0.158 OA
BRANCH  25  28
ATOM     28  C   UNL     1      -1.299  -8.298   8.669  0.00  0.00    +0.142 C 
ATOM     29  C   UNL     1      -2.682  -8.952   8.661  0.00  0.00    +0.033 C 
ATOM     30  C   UNL     1      -0.614  -8.569  10.010  0.00  0.00    +0.033 C 
ENDBRANCH  25  28
ENDBRANCH  23  25
ENDBRANCH  22  23
ENDBRANCH   5  22
TORSDOF 7
