REMARK  Name = ZINC17918696
REMARK  9 active torsions:
REMARK  status: ('A' for Active; 'I' for Inactive)
REMARK    1  A    between atoms: C_1  and  C_2
REMARK    2  A    between atoms: C_2  and  C_4
REMARK    3  A    between atoms: C_7  and  N_10
REMARK    4  A    between atoms: C_11  and  C_13
REMARK    5  A    between atoms: C_13  and  C_15
REMARK    6  A    between atoms: C_13  and  N_19
REMARK    7  A    between atoms: C_15  and  C_16
REMARK    8  A    between atoms: C_16  and  S_17
REMARK    9  A    between atoms: S_17  and  C_18
REMARK                            x       y       z     vdW  Elec       q    Type
REMARK                         _______ _______ _______ _____ _____    ______ ____
ROOT
ATOM      1  N   UNL     1      -5.936  -6.439   0.373  0.00  0.00    -0.230 N 
ATOM      2  C   UNL     1      -5.230  -7.004   1.361  0.00  0.00    +0.227 C 
ATOM      3  O   UNL     1      -4.666  -6.407   2.252  0.00  0.00    -0.275 OA
ATOM      4  C   UNL     1      -5.251  -8.508   1.189  0.00  0.00    +0.100 C 
ATOM      5  C   UNL     1      -6.096  -8.716  -0.080  0.00  0.00    +0.100 C 
ATOM      6  C   UNL     1      -6.472  -7.309  -0.493  0.00  0.00    +0.227 C 
ATOM      7  O   UNL     1      -7.149  -7.016  -1.455  0.00  0.00    -0.275 OA
ATOM      8  C   UNL     1      -7.382  -9.510   0.232  0.00  0.00    +0.062 C 
ATOM      9  C   UNL     1      -6.913 -10.796   0.894  0.00  0.00    -0.035 A 
ATOM     10  C   UNL     1      -7.189 -12.054   0.438  0.00  0.00    +0.004 A 
ATOM     11  C   UNL     1      -6.696 -13.144   1.142  0.00  0.00    +0.000 A 
ATOM     12  C   UNL     1      -5.939 -12.957   2.284  0.00  0.00    +0.000 A 
ATOM     13  C   UNL     1      -5.661 -11.675   2.741  0.00  0.00    +0.004 A 
ATOM     14  C   UNL     1      -6.149 -10.607   2.043  0.00  0.00    -0.035 A 
ATOM     15  C   UNL     1      -5.921  -9.139   2.428  0.00  0.00    +0.062 C 
ATOM     16  C   UNL     1      -7.307  -8.518   2.499  0.00  0.00    -0.035 A 
ATOM     17  C   UNL     1      -8.083  -8.729   1.332  0.00  0.00    -0.035 A 
ATOM     18  C   UNL     1      -9.353  -8.234   1.249  0.00  0.00    +0.004 A 
ATOM     19  C   UNL     1      -9.871  -7.536   2.332  0.00  0.00    +0.000 A 
ATOM     20  C   UNL     1      -9.112  -7.348   3.472  0.00  0.00    +0.000 A 
ATOM     21  C   UNL     1      -7.796  -7.822   3.568  0.00  0.00    +0.004 A 
ENDROOT
BRANCH   1  22
ATOM     22  C   UNL     1      -6.112  -4.990   0.253  0.00  0.00    +0.171 C 
BRANCH  22  24
ATOM     23  N   UNL     1      -7.981  -3.370   0.253  0.00  0.00    -0.284 N 
ATOM     24  C   UNL     1      -7.578  -4.653   0.339  0.00  0.00    +0.238 C 
ATOM     25  O   UNL     1      -8.396  -5.536   0.487  0.00  0.00    -0.273 OA
ATOM     26  H   UNL     1      -7.336  -2.671   0.063  0.00  0.00    +0.155 HD
BRANCH  23  30
ATOM     27  C   UNL     1     -11.991  -2.407   0.799  0.00  0.00    +0.017 A 
ATOM     28  C   UNL     1     -11.417  -3.462   1.520  0.00  0.00    +0.013 A 
ATOM     29  C   UNL     1     -10.096  -3.775   1.337  0.00  0.00    +0.024 A 
ATOM     30  C   UNL     1      -9.324  -3.047   0.436  0.00  0.00    +0.033 A 
ATOM     31  C   UNL     1      -9.889  -1.998  -0.283  0.00  0.00    +0.024 A 
ATOM     32  C   UNL     1     -11.212  -1.680  -0.110  0.00  0.00    +0.013 A 
BRANCH  27  34
ATOM     33  C   UNL     1     -14.243  -2.850   1.971  0.00  0.00    +0.091 C 
ATOM     34  C   UNL     1     -13.407  -2.067   0.992  0.00  0.00    +0.160 C 
ATOM     35  O   UNL     1     -13.903  -1.156   0.363  0.00  0.00    -0.292 OA
ENDBRANCH  27  34
ENDBRANCH  23  30
ENDBRANCH  22  24
BRANCH  22  36
ATOM     36  C   UNL     1      -5.559  -4.519  -1.094  0.00  0.00    +0.043 C 
BRANCH  36  37
ATOM     37  C   UNL     1      -4.050  -4.769  -1.142  0.00  0.00    +0.071 C 
BRANCH  37  38
ATOM     38  S   UNL     1      -3.371  -4.076  -2.674  0.00  0.00    -0.164 S 
ATOM     39  C   UNL     1      -1.629  -4.582  -2.650  0.00  0.00    +0.084 C 
ENDBRANCH  37  38
ENDBRANCH  36  37
ENDBRANCH  22  36
ENDBRANCH   1  22
TORSDOF 7
