REMARK  Name = ZINC00651126
REMARK  12 active torsions:
REMARK  status: ('A' for Active; 'I' for Inactive)
REMARK    1  A    between atoms: C_1  and  C_2
REMARK    2  A    between atoms: C_5  and  C_8
REMARK    3  A    between atoms: N_10  and  N_11
REMARK    4  A    between atoms: C_12  and  C_14
REMARK    5  A    between atoms: C_14  and  C_16
REMARK    6  A    between atoms: C_14  and  S_17
REMARK    7  A    between atoms: S_17  and  C_18
REMARK    8  A    between atoms: C_21  and  C_29
REMARK    9  A    between atoms: N_22  and  C_23
REMARK   10  A    between atoms: C_29  and  O_30
REMARK   11  A    between atoms: O_30  and  C_31
REMARK   12  A    between atoms: C_34  and  C_37
REMARK                            x       y       z     vdW  Elec       q    Type
REMARK                         _______ _______ _______ _____ _____    ______ ____
ROOT
ATOM      1  C   UNL     1       6.288   1.945  -0.784  0.00  0.00    +0.197 A 
ATOM      2  N   UNL     1       6.242   3.186  -0.358  0.00  0.00    -0.122 NA
ATOM      3  N   UNL     1       7.385   3.749  -0.525  0.00  0.00    -0.130 NA
ATOM      4  C   UNL     1       8.224   2.910  -1.063  0.00  0.00    +0.176 A 
ATOM      5  N   UNL     1       7.558   1.727  -1.243  0.00  0.00    -0.271 N 
ENDROOT
BRANCH   5   6
ATOM      6  C   UNL     1       8.070   0.540  -1.787  0.00  0.00    +0.050 A 
ATOM      7  C   UNL     1       9.082  -0.147  -1.130  0.00  0.00    +0.026 A 
ATOM      8  C   UNL     1       9.579  -1.319  -1.665  0.00  0.00    +0.002 A 
ATOM      9  C   UNL     1       9.080  -1.802  -2.860  0.00  0.00    +0.000 A 
ATOM     10  C   UNL     1       8.076  -1.117  -3.520  0.00  0.00    +0.002 A 
ATOM     11  C   UNL     1       7.570   0.052  -2.987  0.00  0.00    +0.026 A 
ENDBRANCH   5   6
BRANCH   1  12
ATOM     12  S   UNL     1       4.966   0.780  -0.762  0.00  0.00    -0.073 S 
BRANCH  12  13
ATOM     13  C   UNL     1       3.663   1.796  -0.023  0.00  0.00    +0.138 C 
ATOM     14  C   UNL     1       4.051   2.157   1.412  0.00  0.00    +0.029 C 
BRANCH  13  16
ATOM     15  N   UNL     1       1.193   1.683  -0.000  0.00  0.00    -0.233 N 
ATOM     16  C   UNL     1       2.369   1.025  -0.015  0.00  0.00    +0.242 C 
ATOM     17  O   UNL     1       2.385  -0.188  -0.022  0.00  0.00    -0.273 OA
ATOM     18  H   UNL     1       1.179   2.653   0.005  0.00  0.00    +0.173 HD
BRANCH  15  21
ATOM     19  C   UNL     1      -1.187   1.624   0.017  0.00  0.00    +0.260 C 
ATOM     20  O   UNL     1      -1.204   2.839   0.023  0.00  0.00    -0.269 OA
ATOM     21  N   UNL     1      -0.011   0.966   0.007  0.00  0.00    -0.230 N 
ATOM     22  H   UNL     1       0.002  -0.004   0.002  0.00  0.00    +0.173 HD
BRANCH  19  27
ATOM     23  C   UNL     1      -6.131  -1.321   0.022  0.00  0.00    +0.044 C 
ATOM     24  C   UNL     1      -4.837  -0.550   0.021  0.00  0.00    -0.050 A 
ATOM     25  C   UNL     1      -4.859   0.834   0.029  0.00  0.00    +0.004 A 
ATOM     26  C   UNL     1      -3.677   1.546   0.028  0.00  0.00    +0.013 A 
ATOM     27  C   UNL     1      -2.458   0.867   0.018  0.00  0.00    +0.038 A 
ATOM     28  C   UNL     1      -2.442  -0.528   0.005  0.00  0.00    +0.013 A 
ATOM     29  C   UNL     1      -3.631  -1.228   0.011  0.00  0.00    +0.004 A 
ENDBRANCH  19  27
ENDBRANCH  15  21
ENDBRANCH  13  16
ENDBRANCH  12  13
ENDBRANCH   1  12
BRANCH   4  30
ATOM     30  C   UNL     1       9.663   3.187  -1.415  0.00  0.00    +0.305 C 
BRANCH  30  31
ATOM     31  O   UNL     1      10.497   2.868  -0.299  0.00  0.00    -0.484 OA
BRANCH  31  32
ATOM     32  C   UNL     1      11.833   3.062  -0.452  0.00  0.00    +0.121 A 
ATOM     33  C   UNL     1      12.332   3.545  -1.653  0.00  0.00    +0.046 A 
ATOM     34  C   UNL     1      13.691   3.747  -1.804  0.00  0.00    +0.007 A 
ATOM     35  C   UNL     1      14.553   3.458  -0.763  0.00  0.00    -0.050 A 
ATOM     36  C   UNL     1      14.059   2.971   0.433  0.00  0.00    +0.007 A 
ATOM     37  C   UNL     1      12.701   2.773   0.591  0.00  0.00    +0.046 A 
ATOM     38  C   UNL     1      16.035   3.673  -0.932  0.00  0.00    +0.044 C 
ENDBRANCH  31  32
ENDBRANCH  30  31
ENDBRANCH   4  30
TORSDOF 9
