REMARK  Name = ZINC36346700
REMARK  18 active torsions:
REMARK  status: ('A' for Active; 'I' for Inactive)
REMARK    1  A    between atoms: C_1  and  C_2
REMARK    2  A    between atoms: C_3  and  C_22
REMARK    3  A    between atoms: C_4  and  O_14
REMARK    4  A    between atoms: N_5  and  C_7
REMARK    5  A    between atoms: O_14  and  C_15
REMARK    6  A    between atoms: C_22  and  N_23
REMARK    7  A    between atoms: N_23  and  C_24
REMARK    8  A    between atoms: N_23  and  C_34
REMARK    9  A    between atoms: C_24  and  C_25
REMARK   10  A    between atoms: C_25  and  C_27
REMARK   11  A    between atoms: C_25  and  O_33
REMARK   12  A    between atoms: C_27  and  O_28
REMARK   13  A    between atoms: O_28  and  C_29
REMARK   14  A    between atoms: C_29  and  C_30
REMARK   15  A    between atoms: C_30  and  C_31
REMARK   16  A    between atoms: C_30  and  C_32
REMARK   17  A    between atoms: C_34  and  C_35
REMARK   18  A    between atoms: C_34  and  C_36
REMARK                            x       y       z     vdW  Elec       q    Type
REMARK                         _______ _______ _______ _____ _____    ______ ____
ROOT
ATOM      1  C   UNL     1       2.497   2.914  -0.689  0.00  0.00    +0.068 C 
ATOM      2  C   UNL     1       1.641   1.758  -0.240  0.00  0.00    +0.065 A 
ATOM      3  C   UNL     1       0.959   0.872  -1.079  0.00  0.00    +0.021 A 
ATOM      4  C   UNL     1       0.303  -0.026  -0.295  0.00  0.00    +0.225 A 
ATOM      5  N   UNL     1       0.570   0.292   1.000  0.00  0.00    -0.200 N 
ATOM      6  N   UNL     1       1.415   1.410   1.001  0.00  0.00    -0.168 NA
ENDROOT
BRANCH   5   7
ATOM      7  C   UNL     1       0.090  -0.382   2.132  0.00  0.00    +0.069 A 
ATOM      8  C   UNL     1      -1.226  -0.823   2.172  0.00  0.00    +0.031 A 
ATOM      9  C   UNL     1      -1.698  -1.486   3.287  0.00  0.00    +0.040 A 
ATOM     10  C   UNL     1      -0.859  -1.712   4.366  0.00  0.00    +0.124 A 
ATOM     11  C   UNL     1       0.454  -1.273   4.328  0.00  0.00    +0.040 A 
ATOM     12  C   UNL     1       0.931  -0.615   3.211  0.00  0.00    +0.031 A 
ATOM     13  F   UNL     1      -1.322  -2.362   5.456  0.00  0.00    -0.205 F 
ENDBRANCH   5   7
BRANCH   4  14
ATOM     14  O   UNL     1      -0.474  -1.051  -0.727  0.00  0.00    -0.438 OA
BRANCH  14  15
ATOM     15  C   UNL     1      -1.780  -0.791  -0.998  0.00  0.00    +0.131 A 
ATOM     16  C   UNL     1      -2.299   0.475  -0.768  0.00  0.00    +0.049 A 
ATOM     17  C   UNL     1      -3.626   0.738  -1.044  0.00  0.00    +0.042 A 
ATOM     18  C   UNL     1      -4.440  -0.261  -1.550  0.00  0.00    +0.124 A 
ATOM     19  C   UNL     1      -3.925  -1.525  -1.780  0.00  0.00    +0.042 A 
ATOM     20  C   UNL     1      -2.596  -1.790  -1.510  0.00  0.00    +0.049 A 
ATOM     21  F   UNL     1      -5.739  -0.003  -1.819  0.00  0.00    -0.205 F 
ENDBRANCH  14  15
ENDBRANCH   4  14
BRANCH   3  22
ATOM     22  C   UNL     1       0.950   0.906  -2.586  0.00  0.00    -0.035 C 
BRANCH  22  23
ATOM     23  N   UNL     1       2.314   0.696  -3.088  0.00  0.00    +0.386 N 
ATOM     24  H   UNL     1       2.948   1.320  -2.612  0.00  0.00    -0.081 HD
BRANCH  23  25
ATOM     25  C   UNL     1       2.718  -0.695  -2.841  0.00  0.00    -0.074 C 
ATOM     26  C   UNL     1       2.868  -0.922  -1.335  0.00  0.00    -0.014 C 
ATOM     27  C   UNL     1       1.653  -1.642  -3.396  0.00  0.00    -0.014 C 
ENDBRANCH  23  25
BRANCH  23  28
ATOM     28  C   UNL     1       2.352   0.967  -4.532  0.00  0.00    -0.044 C 
BRANCH  28  29
ATOM     29  C   UNL     1       3.803   0.941  -5.018  0.00  0.00    +0.124 C 
BRANCH  29  30
ATOM     30  O   UNL     1       4.309  -0.393  -4.933  0.00  0.00    -0.391 OA
ATOM     31  H   UNL     1       3.870  -1.019  -5.525  0.00  0.00    +0.210 HD
ENDBRANCH  29  30
BRANCH  29  32
ATOM     32  C   UNL     1       3.862   1.417  -6.470  0.00  0.00    +0.189 C 
BRANCH  32  33
ATOM     33  O   UNL     1       5.226   1.504  -6.888  0.00  0.00    -0.377 OA
BRANCH  33  34
ATOM     34  C   UNL     1       5.395   1.942  -8.237  0.00  0.00    +0.163 C 
BRANCH  34  35
ATOM     35  C   UNL     1       6.886   1.997  -8.573  0.00  0.00    +0.009 C 
ATOM     36  C   UNL     1       7.471   0.584  -8.531  0.00  0.00    +0.009 C 
ATOM     37  C   UNL     1       7.072   2.584  -9.974  0.00  0.00    +0.009 C 
ENDBRANCH  34  35
ENDBRANCH  33  34
ENDBRANCH  32  33
ENDBRANCH  29  32
ENDBRANCH  28  29
ENDBRANCH  23  28
ENDBRANCH  22  23
ENDBRANCH   3  22
TORSDOF 13
