REMARK  Name = ZINC39448868
REMARK  5 active torsions:
REMARK  status: ('A' for Active; 'I' for Inactive)
REMARK    1  A    between atoms: C_16  and  C_18
REMARK    2  A    between atoms: C_18  and  S_19
REMARK    3  A    between atoms: S_19  and  C_20
REMARK    4  A    between atoms: C_22  and  C_28
REMARK    5  A    between atoms: C_33  and  N_34
REMARK                            x       y       z     vdW  Elec       q    Type
REMARK                         _______ _______ _______ _____ _____    ______ ____
ROOT
ATOM      1  S   UNL     1       8.090  -0.479   2.585  0.00  0.00    -0.077 S 
ENDROOT
BRANCH   1   2
ATOM      2  C   UNL     1       9.412  -1.480   1.989  0.00  0.00    +0.189 C 
ATOM      3  N   UNL     1       9.207  -2.250   0.953  0.00  0.00    -0.230 NA
ATOM      4  C   UNL     1      10.301  -3.059   0.403  0.00  0.00    +0.248 C 
ATOM      5  N   UNL     1      11.255  -3.343   1.485  0.00  0.00    -0.188 NA
ATOM      6  C   UNL     1      11.534  -2.330   2.371  0.00  0.00    +0.202 C 
ATOM      7  N   UNL     1      10.603  -1.424   2.610  0.00  0.00    -0.192 NA
ATOM      8  N   UNL     1      12.752  -2.259   2.989  0.00  0.00    -0.330 N 
ATOM      9  H   UNL     1      13.430  -2.927   2.804  0.00  0.00    +0.145 HD
ATOM     10  H   UNL     1      12.938  -1.540   3.613  0.00  0.00    +0.145 HD
BRANCH   4  11
ATOM     11  C   UNL     1       9.752  -4.351  -0.144  0.00  0.00    +0.026 A 
ATOM     12  C   UNL     1       9.768  -5.494   0.635  0.00  0.00    +0.009 A 
ATOM     13  C   UNL     1       9.264  -6.679   0.134  0.00  0.00    +0.001 A 
ATOM     14  C   UNL     1       8.744  -6.723  -1.146  0.00  0.00    +0.002 A 
ATOM     15  C   UNL     1       8.727  -5.581  -1.925  0.00  0.00    +0.033 A 
ATOM     16  C   UNL     1       9.227  -4.394  -1.422  0.00  0.00    +0.133 A 
BRANCH  16  17
ATOM     17  N   UNL     1       9.204  -3.170  -2.254  0.00  0.00    +0.057 N 
ATOM     18  O   UNL     1       8.856  -3.231  -3.410  0.00  0.00    -0.126 OA
ATOM     19  O   UNL     1       9.533  -2.109  -1.777  0.00  0.00    -0.126 OA
ENDBRANCH  16  17
ENDBRANCH   4  11
ENDBRANCH   1   2
BRANCH   1  20
ATOM     20  C   UNL     1       6.710  -0.867   1.474  0.00  0.00    +0.174 C 
BRANCH  20  36
ATOM     21  C   UNL     1       1.008   2.095   2.155  0.00  0.00    +0.000 A 
ATOM     22  C   UNL     1       2.217   2.708   1.883  0.00  0.00    +0.002 A 
ATOM     23  C   UNL     1       3.312   1.927   1.576  0.00  0.00    +0.024 A 
ATOM     24  C   UNL     1       3.206   0.540   1.548  0.00  0.00    +0.044 A 
ATOM     25  C   UNL     1       2.006  -0.086   1.845  0.00  0.00    -0.025 A 
ATOM     26  C   UNL     1       0.905   0.723   2.134  0.00  0.00    +0.005 A 
ATOM     27  C   UNL     1       1.740  -1.572   1.935  0.00  0.00    +0.042 C 
ATOM     28  C   UNL     1       2.975  -2.416   1.679  0.00  0.00    +0.042 C 
ATOM     29  C   UNL     1       3.508  -2.198   0.287  0.00  0.00    -0.025 A 
ATOM     30  C   UNL     1       3.280  -3.078  -0.746  0.00  0.00    +0.005 A 
ATOM     31  C   UNL     1       3.835  -2.807  -1.988  0.00  0.00    +0.000 A 
ATOM     32  C   UNL     1       4.606  -1.675  -2.180  0.00  0.00    +0.002 A 
ATOM     33  C   UNL     1       4.822  -0.789  -1.137  0.00  0.00    +0.024 A 
ATOM     34  C   UNL     1       4.252  -1.063   0.093  0.00  0.00    +0.044 A 
ATOM     35  N   UNL     1       4.347  -0.194   1.190  0.00  0.00    -0.239 N 
ATOM     36  C   UNL     1       5.498  -0.068   1.879  0.00  0.00    +0.234 C 
ATOM     37  O   UNL     1       5.560   0.690   2.824  0.00  0.00    -0.274 OA
ENDBRANCH  20  36
ENDBRANCH   1  20
TORSDOF 5
