REMARK  Name = ZINC03341439
REMARK  9 active torsions:
REMARK  status: ('A' for Active; 'I' for Inactive)
REMARK    1  A    between atoms: C_1  and  C_2
REMARK    2  A    between atoms: C_7  and  N_8
REMARK    3  A    between atoms: C_18  and  S_19
REMARK    4  A    between atoms: S_19  and  C_20
REMARK    5  A    between atoms: C_20  and  C_21
REMARK    6  A    between atoms: C_21  and  C_23
REMARK    7  A    between atoms: C_24  and  N_33
REMARK    8  A    between atoms: N_25  and  C_32
REMARK    9  A    between atoms: N_28  and  C_31
REMARK                            x       y       z     vdW  Elec       q    Type
REMARK                         _______ _______ _______ _____ _____    ______ ____
ROOT
ATOM      1  N   UNL     1      -1.187   2.172   0.020  0.00  0.00    -0.255 N 
ATOM      2  C   UNL     1      -1.756   2.514   1.199  0.00  0.00    +0.267 A 
ATOM      3  O   UNL     1      -1.233   2.227   2.260  0.00  0.00    -0.267 OA
ATOM      4  C   UNL     1      -3.027   3.249   1.152  0.00  0.00    +0.065 A 
ATOM      5  C   UNL     1      -3.689   3.651   2.311  0.00  0.00    +0.015 A 
ATOM      6  C   UNL     1      -4.874   4.328   2.211  0.00  0.00    +0.001 A 
ATOM      7  C   UNL     1      -5.421   4.619   0.968  0.00  0.00    +0.002 A 
ATOM      8  C   UNL     1      -4.794   4.238  -0.184  0.00  0.00    +0.028 A 
ATOM      9  C   UNL     1      -3.582   3.544  -0.115  0.00  0.00    +0.079 A 
ATOM     10  N   UNL     1      -2.926   3.147  -1.230  0.00  0.00    -0.223 NA
ATOM     11  C   UNL     1      -1.791   2.497  -1.163  0.00  0.00    +0.177 A 
ENDROOT
BRANCH   1  18
ATOM     12  C   UNL     1      -1.270  -0.673   0.059  0.00  0.00    +0.046 C 
ATOM     13  C   UNL     1       0.032   0.085   0.027  0.00  0.00    -0.026 A 
ATOM     14  C   UNL     1       1.231  -0.601   0.013  0.00  0.00    +0.005 A 
ATOM     15  C   UNL     1       2.426   0.094  -0.016  0.00  0.00    +0.000 A 
ATOM     16  C   UNL     1       2.425   1.477  -0.032  0.00  0.00    +0.002 A 
ATOM     17  C   UNL     1       1.229   2.168  -0.017  0.00  0.00    +0.026 A 
ATOM     18  C   UNL     1       0.027   1.473   0.012  0.00  0.00    +0.055 A 
ENDBRANCH   1  18
BRANCH  11  19
ATOM     19  S   UNL     1      -1.006   2.019  -2.666  0.00  0.00    -0.079 S 
BRANCH  19  20
ATOM     20  C   UNL     1      -2.192   2.678  -3.864  0.00  0.00    +0.157 C 
BRANCH  20  21
ATOM     21  C   UNL     1      -1.715   2.378  -5.261  0.00  0.00    +0.182 C 
ATOM     22  O   UNL     1      -0.673   1.777  -5.431  0.00  0.00    -0.291 OA
BRANCH  21  23
ATOM     23  C   UNL     1      -2.478   2.796  -6.373  0.00  0.00    +0.120 A 
ATOM     24  C   UNL     1      -1.996   2.638  -7.684  0.00  0.00    +0.116 A 
ATOM     25  N   UNL     1      -2.773   3.053  -8.727  0.00  0.00    -0.284 N 
ATOM     26  C   UNL     1      -3.975   3.615  -8.522  0.00  0.00    +0.333 A 
ATOM     27  O   UNL     1      -4.626   3.972  -9.485  0.00  0.00    -0.246 OA
ATOM     28  N   UNL     1      -4.484   3.796  -7.293  0.00  0.00    -0.263 N 
ATOM     29  C   UNL     1      -3.797   3.416  -6.196  0.00  0.00    +0.269 A 
ATOM     30  O   UNL     1      -4.261   3.583  -5.083  0.00  0.00    -0.267 OA
ATOM     31  C   UNL     1      -5.802   4.417  -7.141  0.00  0.00    +0.157 C 
ATOM     32  C   UNL     1      -2.283   2.888 -10.098  0.00  0.00    +0.155 C 
BRANCH  24  33
ATOM     33  N   UNL     1      -0.778   2.075  -7.910  0.00  0.00    -0.344 N 
ATOM     34  H   UNL     1      -0.269   1.707  -7.171  0.00  0.00    +0.144 HD
ATOM     35  H   UNL     1      -0.418   2.042  -8.810  0.00  0.00    +0.144 HD
ENDBRANCH  24  33
ENDBRANCH  21  23
ENDBRANCH  20  21
ENDBRANCH  19  20
ENDBRANCH  11  19
TORSDOF 6
