REMARK  Name = ZINC08796063
REMARK  12 active torsions:
REMARK  status: ('A' for Active; 'I' for Inactive)
REMARK    1  A    between atoms: C_1  and  C_2
REMARK    2  A    between atoms: C_2  and  O_3
REMARK    3  A    between atoms: O_3  and  C_4
REMARK    4  A    between atoms: C_7  and  N_10
REMARK    5  A    between atoms: C_11  and  C_13
REMARK    6  A    between atoms: C_13  and  S_14
REMARK    7  A    between atoms: S_14  and  C_15
REMARK    8  A    between atoms: N_17  and  C_24
REMARK    9  A    between atoms: C_24  and  C_25
REMARK   10  A    between atoms: C_25  and  N_26
REMARK   11  A    between atoms: C_27  and  C_29
REMARK   12  A    between atoms: C_32  and  N_35
REMARK                            x       y       z     vdW  Elec       q    Type
REMARK                         _______ _______ _______ _____ _____    ______ ____
ROOT
ATOM      1  C   UNL     1       4.096   1.863  -0.014  0.00  0.00    +0.034 A 
ATOM      2  C   UNL     1       4.102   3.209   0.003  0.00  0.00    +0.101 A 
ATOM      3  N   UNL     1       5.400   3.668  -0.001  0.00  0.00    -0.344 N 
ATOM      4  C   UNL     1       6.272   2.603  -0.021  0.00  0.00    +0.050 A 
ATOM      5  C   UNL     1       5.498   1.428  -0.024  0.00  0.00    +0.013 A 
ATOM      6  C   UNL     1       6.125   0.181  -0.050  0.00  0.00    +0.011 A 
ATOM      7  C   UNL     1       7.489   0.108  -0.060  0.00  0.00    +0.001 A 
ATOM      8  C   UNL     1       8.258   1.264  -0.051  0.00  0.00    +0.002 A 
ATOM      9  C   UNL     1       7.660   2.505  -0.032  0.00  0.00    +0.026 A 
ENDROOT
BRANCH   1  10
ATOM     10  S   UNL     1       2.675   0.821  -0.017  0.00  0.00    -0.114 S 
BRANCH  10  11
ATOM     11  C   UNL     1       1.280   1.980   0.007  0.00  0.00    +0.170 C 
BRANCH  11  13
ATOM     12  N   UNL     1      -1.191   1.867   0.018  0.00  0.00    -0.285 N 
ATOM     13  C   UNL     1      -0.014   1.209   0.007  0.00  0.00    +0.227 C 
ATOM     14  O   UNL     1       0.002  -0.004  -0.008  0.00  0.00    -0.275 OA
ATOM     15  H   UNL     1      -1.205   2.833   0.098  0.00  0.00    +0.155 HD
BRANCH  12  19
ATOM     16  C   UNL     1      -4.768  -0.253  -0.291  0.00  0.00    +0.121 A 
ATOM     17  C   UNL     1      -3.695  -0.801   0.396  0.00  0.00    +0.047 A 
ATOM     18  C   UNL     1      -2.510  -0.099   0.499  0.00  0.00    +0.027 A 
ATOM     19  C   UNL     1      -2.393   1.154  -0.086  0.00  0.00    +0.034 A 
ATOM     20  C   UNL     1      -3.469   1.704  -0.770  0.00  0.00    +0.027 A 
ATOM     21  C   UNL     1      -4.652   0.999  -0.876  0.00  0.00    +0.047 A 
BRANCH  16  22
ATOM     22  O   UNL     1      -5.934  -0.945  -0.392  0.00  0.00    -0.492 OA
BRANCH  22  24
ATOM     23  C   UNL     1      -8.220  -1.242  -1.121  0.00  0.00    +0.048 C 
ATOM     24  C   UNL     1      -6.998  -0.321  -1.114  0.00  0.00    +0.225 C 
ENDBRANCH  22  24
ENDBRANCH  16  22
ENDBRANCH  12  19
ENDBRANCH  11  13
ENDBRANCH  10  11
ENDBRANCH   1  10
BRANCH   3  25
ATOM     25  C   UNL     1       5.794   5.079   0.015  0.00  0.00    +0.140 C 
BRANCH  25  26
ATOM     26  C   UNL     1       6.042   5.555  -1.418  0.00  0.00    +0.126 C 
BRANCH  26  27
ATOM     27  N   UNL     1       6.436   6.966  -1.402  0.00  0.00    -0.310 N 
ATOM     28  C   UNL     1       6.707   7.602  -2.559  0.00  0.00    +0.244 C 
ATOM     29  O   UNL     1       6.625   7.006  -3.615  0.00  0.00    -0.270 OA
ATOM     30  H   UNL     1       6.502   7.441  -0.560  0.00  0.00    +0.149 HD
BRANCH  28  31
ATOM     31  C   UNL     1       7.105   9.026  -2.543  0.00  0.00    +0.037 A 
ATOM     32  C   UNL     1       7.195   9.716  -1.333  0.00  0.00    +0.015 A 
ATOM     33  C   UNL     1       7.572  11.043  -1.325  0.00  0.00    +0.033 A 
ATOM     34  C   UNL     1       7.850  11.693  -2.514  0.00  0.00    +0.126 A 
ATOM     35  C   UNL     1       7.757  11.017  -3.717  0.00  0.00    +0.033 A 
ATOM     36  C   UNL     1       7.386   9.689  -3.739  0.00  0.00    +0.015 A 
BRANCH  34  37
ATOM     37  N   UNL     1       8.247  13.119  -2.498  0.00  0.00    +0.056 N 
ATOM     38  O   UNL     1       8.492  13.694  -3.543  0.00  0.00    -0.126 OA
ATOM     39  O   UNL     1       8.330  13.717  -1.440  0.00  0.00    -0.126 OA
ENDBRANCH  34  37
ENDBRANCH  28  31
ENDBRANCH  26  27
ENDBRANCH  25  26
ENDBRANCH   3  25
TORSDOF 11
