REMARK  Name = ZINC22579962
REMARK  8 active torsions:
REMARK  status: ('A' for Active; 'I' for Inactive)
REMARK    1  A    between atoms: C_1  and  C_2
REMARK    2  A    between atoms: C_5  and  C_9
REMARK    3  A    between atoms: C_12  and  C_14
REMARK    4  A    between atoms: C_15  and  C_16
REMARK    5  A    between atoms: N_18  and  C_19
REMARK    6  A    between atoms: C_19  and  N_21
REMARK    7  A    between atoms: N_21  and  C_22
REMARK    8  A    between atoms: C_23  and  C_30
REMARK                            x       y       z     vdW  Elec       q    Type
REMARK                         _______ _______ _______ _____ _____    ______ ____
ROOT
ATOM      1  C   UNL     1       0.113  -8.355  -3.840  0.00  0.00    +0.242 C 
ATOM      2  O   UNL     1       0.128  -9.485  -3.387  0.00  0.00    -0.270 OA
ATOM      3  N   UNL     1       0.110  -8.163  -5.174  0.00  0.00    -0.264 N 
ATOM      4  H   UNL     1       0.098  -7.263  -5.535  0.00  0.00    +0.157 HD
ENDROOT
BRANCH   1   6
ATOM      5  C   UNL     1       0.101  -7.437  -1.622  0.00  0.00    +0.051 C 
ATOM      6  C   UNL     1       0.098  -7.244  -2.967  0.00  0.00    +0.071 C 
BRANCH   5  10
ATOM      7  C   UNL     1       0.060  -4.250  -0.023  0.00  0.00    +0.136 A 
ATOM      8  C   UNL     1       0.071  -5.061   1.090  0.00  0.00    +0.050 A 
ATOM      9  C   UNL     1       0.088  -6.381   0.633  0.00  0.00    +0.050 A 
ATOM     10  C   UNL     1       0.087  -6.326  -0.749  0.00  0.00    +0.129 A 
ATOM     11  O   UNL     1       0.064  -5.028  -1.119  0.00  0.00    -0.455 OA
BRANCH   7  16
ATOM     12  C   UNL     1      -0.018   1.503   0.010  0.00  0.00    +0.045 C 
ATOM     13  C   UNL     1       0.002  -0.004   0.002  0.00  0.00    -0.032 A 
ATOM     14  C   UNL     1       0.006  -0.686  -1.202  0.00  0.00    +0.005 A 
ATOM     15  C   UNL     1       0.024  -2.065  -1.217  0.00  0.00    +0.012 A 
ATOM     16  C   UNL     1       0.040  -2.774  -0.014  0.00  0.00    +0.019 A 
ATOM     17  C   UNL     1       0.037  -2.080   1.198  0.00  0.00    +0.031 A 
ATOM     18  C   UNL     1       0.023  -0.700   1.199  0.00  0.00    +0.045 A 
ATOM     19 CL   UNL     1       0.025   0.166   2.704  0.00  0.00    -0.083 Cl
ENDBRANCH   7  16
ENDBRANCH   5  10
ENDBRANCH   1   6
BRANCH   3  20
ATOM     20  C   UNL     1       0.124  -9.223  -6.007  0.00  0.00    +0.141 C 
ATOM     21  S   UNL     1       0.145 -10.812  -5.370  0.00  0.00    -0.018 S 
BRANCH  20  22
ATOM     22  N   UNL     1       0.121  -9.031  -7.341  0.00  0.00    -0.290 N 
ATOM     23  H   UNL     1       0.109  -8.131  -7.702  0.00  0.00    +0.154 HD
BRANCH  22  24
ATOM     24  C   UNL     1       0.135 -10.122  -8.198  0.00  0.00    +0.089 A 
ATOM     25  C   UNL     1       0.140 -10.116  -9.580  0.00  0.00    +0.084 A 
ATOM     26  C   UNL     1       0.155 -11.412 -10.255  0.00  0.00    -0.018 A 
ATOM     27  C   UNL     1       0.161 -12.467  -9.419  0.00  0.00    -0.004 A 
ATOM     28  S   UNL     1       0.157 -11.750  -7.796  0.00  0.00    -0.077 S 
ATOM     29  C   UNL     1       0.173 -13.774 -10.165  0.00  0.00    +0.043 C 
ATOM     30  C   UNL     1      -0.260 -13.407 -11.602  0.00  0.00    +0.010 C 
ATOM     31  C   UNL     1       0.170 -11.929 -11.693  0.00  0.00    +0.037 C 
BRANCH  25  32
ATOM     32  C   UNL     1       0.130  -8.891 -10.320  0.00  0.00    +0.102 C 
ATOM     33  N   UNL     1       0.122  -7.918 -10.908  0.00  0.00    -0.191 NA
ENDBRANCH  25  32
ENDBRANCH  22  24
ENDBRANCH  20  22
ENDBRANCH   3  20
TORSDOF 7
