REMARK  Name = ZINC13069888
REMARK  6 active torsions:
REMARK  status: ('A' for Active; 'I' for Inactive)
REMARK    1  A    between atoms: C_1  and  C_2
REMARK    2  A    between atoms: C_2  and  C_4
REMARK    3  A    between atoms: C_2  and  N_11
REMARK    4  A    between atoms: N_11  and  C_12
REMARK    5  A    between atoms: C_12  and  C_13
REMARK    6  A    between atoms: C_19  and  C_24
REMARK                            x       y       z     vdW  Elec       q    Type
REMARK                         _______ _______ _______ _____ _____    ______ ____
ROOT
ATOM      1  C   UNL     1       0.689  -0.618   3.619  0.00  0.00    +0.094 A 
ATOM      2  N   UNL     1       0.164  -0.388   4.850  0.00  0.00    -0.312 N 
ATOM      3  H   UNL     1      -0.673   0.095   4.927  0.00  0.00    +0.170 HD
ATOM      4  C   UNL     1       0.783  -0.817   5.965  0.00  0.00    +0.260 A 
ATOM      5  O   UNL     1       0.299  -0.603   7.063  0.00  0.00    -0.267 OA
ATOM      6  C   UNL     1       2.019  -1.530   5.842  0.00  0.00    +0.080 A 
ATOM      7  C   UNL     1       2.869  -2.090   6.886  0.00  0.00    +0.005 A 
ATOM      8  C   UNL     1       4.006  -2.731   6.526  0.00  0.00    +0.056 A 
ATOM      9  S   UNL     1       3.999  -2.617   4.747  0.00  0.00    -0.076 S 
ATOM     10  C   UNL     1       2.484  -1.720   4.531  0.00  0.00    +0.116 A 
ATOM     11  N   UNL     1       1.812  -1.269   3.474  0.00  0.00    -0.229 NA
ENDROOT
BRANCH   7  12
ATOM     12  C   UNL     1       2.495  -1.959   8.315  0.00  0.00    +0.002 A 
ATOM     13  C   UNL     1       3.287  -1.204   9.179  0.00  0.00    +0.010 A 
ATOM     14  C   UNL     1       2.934  -1.086  10.508  0.00  0.00    +0.001 A 
ATOM     15  C   UNL     1       1.797  -1.715  10.984  0.00  0.00    +0.001 A 
ATOM     16  C   UNL     1       1.007  -2.466  10.132  0.00  0.00    +0.020 A 
ATOM     17  C   UNL     1       1.347  -2.587   8.799  0.00  0.00    +0.049 A 
ATOM     18 CL   UNL     1       0.351  -3.523   7.729  0.00  0.00    -0.083 Cl
ENDBRANCH   7  12
BRANCH   1  19
ATOM     19  C   UNL     1      -0.040  -0.119   2.398  0.00  0.00    -0.006 C 
BRANCH  19  20
ATOM     20  N   UNL     1       0.713  -0.491   1.192  0.00  0.00    +0.388 N 
ATOM     21  H   UNL     1       0.798  -1.495   1.145  0.00  0.00    -0.084 HD
ATOM     22  H   UNL     1       1.632  -0.076   1.228  0.00  0.00    -0.084 HD
BRANCH  20  24
ATOM     23  C   UNL     1      -0.019   1.526   0.010  0.00  0.00    -0.009 C 
ATOM     24  C   UNL     1       0.002  -0.004   0.002  0.00  0.00    -0.043 C 
BRANCH  24  25
ATOM     25  C   UNL     1       0.707  -0.490  -1.238  0.00  0.00    -0.060 A 
ATOM     26  C   UNL     1       2.089  -0.511  -1.284  0.00  0.00    +0.002 A 
ATOM     27  C   UNL     1       2.737  -0.956  -2.421  0.00  0.00    +0.002 A 
ATOM     28  C   UNL     1       2.003  -1.381  -3.513  0.00  0.00    +0.020 A 
ATOM     29  C   UNL     1       0.621  -1.361  -3.467  0.00  0.00    +0.041 A 
ATOM     30  C   UNL     1      -0.027  -0.920  -2.327  0.00  0.00    +0.022 A 
ATOM     31 CL   UNL     1      -0.301  -1.894  -4.838  0.00  0.00    -0.084 Cl
ENDBRANCH  24  25
ENDBRANCH  20  24
ENDBRANCH  19  20
ENDBRANCH   1  19
TORSDOF 5
