REMARK  Name = ZINC63720232
REMARK  8 active torsions:
REMARK  status: ('A' for Active; 'I' for Inactive)
REMARK    1  A    between atoms: C_4  and  C_7
REMARK    2  A    between atoms: C_7  and  O_8
REMARK    3  A    between atoms: O_8  and  C_9
REMARK    4  A    between atoms: C_15  and  C_18
REMARK    5  A    between atoms: C_18  and  C_19
REMARK    6  A    between atoms: C_19  and  N_20
REMARK    7  A    between atoms: C_21  and  C_23
REMARK    8  A    between atoms: C_26  and  N_29
REMARK                            x       y       z     vdW  Elec       q    Type
REMARK                         _______ _______ _______ _____ _____    ______ ____
ROOT
ATOM      1  C   UNL     1       5.319  -1.605   1.467  0.00  0.00    +0.122 A 
ATOM      2  C   UNL     1       6.038  -2.002   0.325  0.00  0.00    +0.048 A 
ATOM      3  C   UNL     1       7.215  -2.659   0.400  0.00  0.00    +0.029 A 
ATOM      4  C   UNL     1       7.785  -2.984   1.711  0.00  0.00    +0.043 A 
ATOM      5  N   UNL     1       8.887  -3.601   2.058  0.00  0.00    -0.380 N 
ATOM      6  C   UNL     1       8.956  -3.646   3.523  0.00  0.00    +0.144 C 
ATOM      7  C   UNL     1       7.708  -2.950   4.019  0.00  0.00    -0.040 C 
ATOM      8  C   UNL     1       7.029  -2.566   2.914  0.00  0.00    +0.002 A 
ATOM      9  C   UNL     1       5.762  -1.852   2.723  0.00  0.00    +0.055 A 
ATOM     10  H   UNL     1       9.547  -3.968   1.449  0.00  0.00    +0.160 HD
ENDROOT
BRANCH   1  11
ATOM     11  O   UNL     1       4.141  -0.946   1.304  0.00  0.00    -0.487 OA
BRANCH  11  12
ATOM     12  C   UNL     1       3.711  -0.707  -0.038  0.00  0.00    +0.264 C 
BRANCH  12  16
ATOM     13  C   UNL     1      -0.017   1.378   0.010  0.00  0.00    +0.000 A 
ATOM     14  C   UNL     1       1.171   2.086   0.002  0.00  0.00    +0.000 A 
ATOM     15  C   UNL     1       2.377   1.411  -0.013  0.00  0.00    +0.007 A 
ATOM     16  C   UNL     1       2.396   0.029  -0.020  0.00  0.00    -0.010 A 
ATOM     17  C   UNL     1       1.208  -0.679  -0.012  0.00  0.00    +0.007 A 
ATOM     18  C   UNL     1       0.002  -0.004   0.002  0.00  0.00    +0.000 A 
ENDBRANCH  12  16
ENDBRANCH  11  12
ENDBRANCH   1  11
BRANCH   7  19
ATOM     19  C   UNL     1       7.303  -2.730   5.453  0.00  0.00    +0.052 C 
BRANCH  19  20
ATOM     20  C   UNL     1       6.569  -3.968   5.972  0.00  0.00    +0.109 C 
BRANCH  20  21
ATOM     21  N   UNL     1       6.176  -3.754   7.367  0.00  0.00    -0.311 N 
ATOM     22  C   UNL     1       5.512  -4.717   8.036  0.00  0.00    +0.244 C 
ATOM     23  O   UNL     1       5.240  -5.764   7.482  0.00  0.00    -0.270 OA
ATOM     24  H   UNL     1       6.393  -2.918   7.809  0.00  0.00    +0.149 HD
BRANCH  22  25
ATOM     25  C   UNL     1       5.115  -4.501   9.443  0.00  0.00    +0.037 A 
ATOM     26  C   UNL     1       5.420  -3.297  10.081  0.00  0.00    +0.015 A 
ATOM     27  C   UNL     1       5.046  -3.102  11.394  0.00  0.00    +0.033 A 
ATOM     28  C   UNL     1       4.370  -4.095  12.079  0.00  0.00    +0.126 A 
ATOM     29  C   UNL     1       4.064  -5.291  11.454  0.00  0.00    +0.033 A 
ATOM     30  C   UNL     1       4.427  -5.497  10.139  0.00  0.00    +0.015 A 
BRANCH  28  31
ATOM     31  N   UNL     1       3.972  -3.878  13.489  0.00  0.00    +0.056 N 
ATOM     32  O   UNL     1       4.238  -2.835  14.038  0.00  0.00    -0.126 OA
ATOM     33  O   UNL     1       3.381  -4.745  14.090  0.00  0.00    -0.126 OA
ENDBRANCH  28  31
ENDBRANCH  22  25
ENDBRANCH  20  21
ENDBRANCH  19  20
ENDBRANCH   7  19
TORSDOF 8
