REMARK  Name = ZINC39543915
REMARK  7 active torsions:
REMARK  status: ('A' for Active; 'I' for Inactive)
REMARK    1  A    between atoms: C_1  and  C_2
REMARK    2  A    between atoms: C_4  and  C_31
REMARK    3  A    between atoms: C_5  and  C_8
REMARK    4  A    between atoms: C_8  and  C_9
REMARK    5  A    between atoms: C_9  and  C_10
REMARK    6  A    between atoms: N_20  and  C_22
REMARK    7  A    between atoms: C_22  and  C_23
REMARK                            x       y       z     vdW  Elec       q    Type
REMARK                         _______ _______ _______ _____ _____    ______ ____
ROOT
ATOM      1  C   UNL     1      -3.720  -4.230   1.832  0.00  0.00    +0.216 C 
ATOM      2  O   UNL     1      -4.560  -3.653   2.489  0.00  0.00    -0.276 OA
ATOM      3  N   UNL     1      -3.854  -5.546   1.572  0.00  0.00    -0.301 N 
ATOM      4  C   UNL     1      -2.909  -6.369   0.795  0.00  0.00    +0.108 C 
ATOM      5  C   UNL     1      -3.144  -7.820   1.290  0.00  0.00    +0.025 C 
ATOM      6  C   UNL     1      -4.672  -7.823   1.520  0.00  0.00    -0.027 C 
ATOM      7  C   UNL     1      -4.964  -6.401   2.023  0.00  0.00    +0.112 C 
ATOM      8  C   UNL     1      -5.042  -8.851   2.582  0.00  0.00    +0.005 C 
ATOM      9  C   UNL     1      -6.565  -8.880   2.747  0.00  0.00    -0.018 C 
ATOM     10  C   UNL     1      -7.212  -9.157   1.388  0.00  0.00    -0.078 C 
ATOM     11  N   UNL     1      -6.853  -8.092   0.443  0.00  0.00    +0.383 N 
ATOM     12  C   UNL     1      -5.402  -8.100   0.214  0.00  0.00    -0.070 C 
ATOM     13  H   UNL     1      -7.128  -7.199   0.824  0.00  0.00    -0.081 HD
ENDROOT
BRANCH   1  14
ATOM     14  C   UNL     1      -2.526  -3.476   1.305  0.00  0.00    +0.102 C 
BRANCH  14  15
ATOM     15  C   UNL     1      -2.617  -2.011   1.738  0.00  0.00    +0.066 C 
BRANCH  15  19
ATOM     16  C   UNL     1      -0.019   1.526   0.010  0.00  0.00    +0.039 C 
ATOM     17  C   UNL     1       0.002  -0.004   0.002  0.00  0.00    +0.152 C 
ATOM     18  C   UNL     1      -1.409  -0.561   0.072  0.00  0.00    -0.024 C 
ATOM     19  C   UNL     1      -1.423  -1.257   1.211  0.00  0.00    +0.065 C 
ATOM     20  N   UNL     1      -0.222  -1.193   1.828  0.00  0.00    -0.158 NA
ATOM     21  N   UNL     1       0.629  -0.523   1.230  0.00  0.00    -0.180 NA
ATOM     22  C   UNL     1      -2.532  -0.371  -0.914  0.00  0.00    +0.043 C 
ENDBRANCH  15  19
ENDBRANCH  14  15
ENDBRANCH   1  14
BRANCH  11  23
ATOM     23  C   UNL     1      -7.550  -8.314  -0.831  0.00  0.00    -0.040 C 
BRANCH  23  24
ATOM     24  C   UNL     1      -9.036  -8.177  -0.621  0.00  0.00    -0.026 A 
ATOM     25  C   UNL     1      -9.821  -9.306  -0.480  0.00  0.00    +0.005 A 
ATOM     26  C   UNL     1     -11.184  -9.182  -0.287  0.00  0.00    +0.003 A 
ATOM     27  C   UNL     1     -11.765  -7.929  -0.234  0.00  0.00    +0.041 A 
ATOM     28  C   UNL     1     -10.982  -6.797  -0.375  0.00  0.00    +0.159 A 
ATOM     29  C   UNL     1      -9.614  -6.921  -0.563  0.00  0.00    +0.160 A 
ATOM     30  F   UNL     1      -8.846  -5.817  -0.695  0.00  0.00    -0.202 F 
ATOM     31  F   UNL     1     -11.549  -5.572  -0.325  0.00  0.00    -0.202 F 
ENDBRANCH  23  24
ENDBRANCH  11  23
TORSDOF 5
