REMARK  Name = ZINC25077069
REMARK  8 active torsions:
REMARK  status: ('A' for Active; 'I' for Inactive)
REMARK    1  A    between atoms: C_1  and  C_2
REMARK    2  A    between atoms: C_5  and  C_8
REMARK    3  A    between atoms: N_10  and  C_11
REMARK    4  A    between atoms: C_11  and  C_13
REMARK    5  A    between atoms: C_11  and  C_17
REMARK    6  A    between atoms: C_13  and  C_14
REMARK    7  A    between atoms: C_14  and  S_15
REMARK    8  A    between atoms: S_15  and  C_16
REMARK                            x       y       z     vdW  Elec       q    Type
REMARK                         _______ _______ _______ _____ _____    ______ ____
ROOT
ATOM      1  C   UNL     1       0.698  -7.039   2.385  0.00  0.00    +0.236 C 
ATOM      2  O   UNL     1       0.858  -6.329   3.356  0.00  0.00    -0.274 OA
ATOM      3  N   UNL     1       1.045  -8.340   2.437  0.00  0.00    -0.300 N 
ATOM      4  C   UNL     1       0.959  -9.186   1.239  0.00  0.00    +0.110 C 
ATOM      5  C   UNL     1       0.117 -10.423   1.569  0.00  0.00    +0.047 C 
ATOM      6  C   UNL     1       0.705 -11.124   2.795  0.00  0.00    +0.064 C 
ATOM      7  C   UNL     1       0.670 -10.180   3.997  0.00  0.00    +0.047 C 
ATOM      8  C   UNL     1       1.522  -8.938   3.692  0.00  0.00    +0.110 C 
ATOM      9  C   UNL     1      -0.088 -12.366   3.099  0.00  0.00    +0.057 A 
ATOM     10  C   UNL     1       0.334 -13.617   2.803  0.00  0.00    +0.039 A 
ATOM     11  N   UNL     1      -0.602 -14.475   3.207  0.00  0.00    -0.349 N 
ATOM     12  C   UNL     1      -1.592 -13.808   3.742  0.00  0.00    +0.171 A 
ATOM     13  N   UNL     1      -1.306 -12.486   3.691  0.00  0.00    -0.348 N 
ATOM     14  H   UNL     1      -1.863 -11.762   4.016  0.00  0.00    +0.166 HD
ATOM     15  C   UNL     1       1.653 -13.901   2.127  0.00  0.00    +0.070 C 
ATOM     16  C   UNL     1       2.162 -12.588   1.514  0.00  0.00    +0.088 C 
ATOM     17  N   UNL     1       2.096 -11.516   2.516  0.00  0.00    -0.305 NA
ATOM     18  H   UNL     1       2.646 -10.719   2.230  0.00  0.00    +0.123 HD
ATOM     19  H   UNL     1      -0.557 -15.440   3.118  0.00  0.00    +0.166 HD
ENDROOT
BRANCH   1  20
ATOM     20  C   UNL     1       0.110  -6.466   1.121  0.00  0.00    +0.160 C 
BRANCH  20  23
ATOM     21  C   UNL     1       0.376  -4.369  -0.091  0.00  0.00    +0.245 C 
ATOM     22  O   UNL     1       0.221  -4.983  -1.128  0.00  0.00    -0.270 OA
ATOM     23  N   UNL     1       0.338  -5.019   1.089  0.00  0.00    -0.300 N 
ATOM     24  H   UNL     1       0.461  -4.529   1.917  0.00  0.00    +0.150 HD
BRANCH  21  29
ATOM     25  C   UNL     1       1.270   1.315  -0.217  0.00  0.00    +0.044 C 
ATOM     26  C   UNL     1       1.036  -0.174  -0.184  0.00  0.00    -0.050 A 
ATOM     27  C   UNL     1       0.861  -0.870  -1.367  0.00  0.00    +0.004 A 
ATOM     28  C   UNL     1       0.646  -2.232  -1.343  0.00  0.00    +0.013 A 
ATOM     29  C   UNL     1       0.606  -2.909  -0.123  0.00  0.00    +0.037 A 
ATOM     30  C   UNL     1       0.783  -2.201   1.067  0.00  0.00    +0.013 A 
ATOM     31  C   UNL     1       1.003  -0.839   1.029  0.00  0.00    +0.004 A 
ENDBRANCH  21  29
ENDBRANCH  20  23
BRANCH  20  32
ATOM     32  C   UNL     1      -1.394  -6.746   1.085  0.00  0.00    +0.042 C 
BRANCH  32  33
ATOM     33  C   UNL     1      -1.964  -6.299  -0.262  0.00  0.00    +0.071 C 
BRANCH  33  34
ATOM     34  S   UNL     1      -3.746  -6.632  -0.305  0.00  0.00    -0.164 S 
ATOM     35  C   UNL     1      -4.261  -6.053  -1.945  0.00  0.00    +0.084 C 
ENDBRANCH  33  34
ENDBRANCH  32  33
ENDBRANCH  20  32
ENDBRANCH   1  20
TORSDOF 6
