REMARK  Name = ZINC15768845
REMARK  8 active torsions:
REMARK  status: ('A' for Active; 'I' for Inactive)
REMARK    1  A    between atoms: C_3  and  S_18
REMARK    2  A    between atoms: C_5  and  S_7
REMARK    3  A    between atoms: S_7  and  C_10
REMARK    4  A    between atoms: C_12  and  O_17
REMARK    5  A    between atoms: C_15  and  O_16
REMARK    6  A    between atoms: S_18  and  C_21
REMARK    7  A    between atoms: C_23  and  O_28
REMARK    8  A    between atoms: C_26  and  O_27
REMARK                            x       y       z     vdW  Elec       q    Type
REMARK                         _______ _______ _______ _____ _____    ______ ____
ROOT
ATOM      1  C   UNL     1      -0.013   1.076   0.008  0.00  0.00    +0.004 A 
ATOM      2  C   UNL     1      -1.219   1.751   0.017  0.00  0.00    +0.027 A 
ATOM      3  C   UNL     1      -1.238   3.133   0.030  0.00  0.00    +0.096 A 
ATOM      4  C   UNL     1      -0.050   3.840   0.023  0.00  0.00    +0.054 A 
ATOM      5  C   UNL     1       1.156   3.165   0.008  0.00  0.00    +0.096 A 
ATOM      6  C   UNL     1       1.175   1.783   0.000  0.00  0.00    +0.027 A 
ENDROOT
BRANCH   5   7
ATOM      7  S   UNL     1       2.670   4.067  -0.002  0.00  0.00    +0.029 S 
ATOM      8  O   UNL     1       2.387   5.342   0.558  0.00  0.00    -0.164 OA
ATOM      9  O   UNL     1       3.661   3.202   0.535  0.00  0.00    -0.164 OA
BRANCH   7  10
ATOM     10  C   UNL     1       3.102   4.342  -1.688  0.00  0.00    +0.138 A 
ATOM     11  C   UNL     1       3.133   5.628  -2.192  0.00  0.00    +0.076 A 
ATOM     12  C   UNL     1       3.473   5.845  -3.519  0.00  0.00    +0.119 A 
ATOM     13  C   UNL     1       3.783   4.770  -4.340  0.00  0.00    +0.049 A 
ATOM     14  C   UNL     1       3.751   3.485  -3.836  0.00  0.00    +0.051 A 
ATOM     15  C   UNL     1       3.416   3.268  -2.507  0.00  0.00    +0.142 A 
BRANCH  15  16
ATOM     16  O   UNL     1       3.391   2.003  -2.010  0.00  0.00    -0.505 OA
ATOM     17  H   UNL     1       2.534   1.564  -2.095  0.00  0.00    +0.292 HD
ENDBRANCH  15  16
BRANCH  12  18
ATOM     18  O   UNL     1       3.504   7.110  -4.015  0.00  0.00    -0.507 OA
ATOM     19  H   UNL     1       4.363   7.546  -3.929  0.00  0.00    +0.292 HD
ENDBRANCH  12  18
ENDBRANCH   7  10
ENDBRANCH   5   7
BRANCH   3  20
ATOM     20  S   UNL     1      -2.775   3.993   0.049  0.00  0.00    +0.029 S 
ATOM     21  O   UNL     1      -3.733   3.101   0.604  0.00  0.00    -0.164 OA
ATOM     22  O   UNL     1      -2.517   5.275   0.604  0.00  0.00    -0.164 OA
BRANCH  20  23
ATOM     23  C   UNL     1      -3.245   4.256  -1.629  0.00  0.00    +0.138 A 
ATOM     24  C   UNL     1      -4.379   3.648  -2.132  0.00  0.00    +0.076 A 
ATOM     25  C   UNL     1      -4.750   3.856  -3.452  0.00  0.00    +0.119 A 
ATOM     26  C   UNL     1      -3.981   4.674  -4.268  0.00  0.00    +0.049 A 
ATOM     27  C   UNL     1      -2.848   5.282  -3.765  0.00  0.00    +0.051 A 
ATOM     28  C   UNL     1      -2.481   5.079  -2.442  0.00  0.00    +0.142 A 
BRANCH  28  29
ATOM     29  O   UNL     1      -1.368   5.682  -1.946  0.00  0.00    -0.505 OA
ATOM     30  H   UNL     1      -0.559   5.161  -2.047  0.00  0.00    +0.292 HD
ENDBRANCH  28  29
BRANCH  25  31
ATOM     31  O   UNL     1      -5.866   3.258  -3.948  0.00  0.00    -0.507 OA
ATOM     32  H   UNL     1      -6.671   3.783  -3.846  0.00  0.00    +0.292 HD
ENDBRANCH  25  31
ENDBRANCH  20  23
ENDBRANCH   3  20
TORSDOF 8
