REMARK  Name = ZINC22062196
REMARK  17 active torsions:
REMARK  status: ('A' for Active; 'I' for Inactive)
REMARK    1  A    between atoms: C_1  and  C_2
REMARK    2  A    between atoms: C_2  and  O_4
REMARK    3  A    between atoms: O_4  and  C_5
REMARK    4  A    between atoms: C_5  and  C_6
REMARK    5  A    between atoms: C_8  and  O_35
REMARK    6  A    between atoms: C_10  and  O_31
REMARK    7  A    between atoms: C_12  and  N_21
REMARK    8  A    between atoms: C_14  and  O_17
REMARK    9  A    between atoms: O_17  and  C_18
REMARK   10  A    between atoms: C_18  and  C_20
REMARK   11  A    between atoms: C_22  and  C_23
REMARK   12  A    between atoms: C_26  and  O_29
REMARK   13  A    between atoms: O_29  and  C_30
REMARK   14  A    between atoms: O_31  and  C_32
REMARK   15  A    between atoms: C_32  and  C_34
REMARK   16  A    between atoms: O_35  and  C_36
REMARK   17  A    between atoms: C_36  and  C_38
REMARK                            x       y       z     vdW  Elec       q    Type
REMARK                         _______ _______ _______ _____ _____    ______ ____
ROOT
ATOM      1  C   UNL     1      -0.017   1.425   0.010  0.00  0.00    +0.204 C 
ATOM      2  C   UNL     1       1.419   1.953  -0.001  0.00  0.00    +0.251 C 
ATOM      3  C   UNL     1       2.171   1.393   1.211  0.00  0.00    +0.250 C 
ATOM      4  C   UNL     1       2.114  -0.137   1.170  0.00  0.00    +0.218 C 
ATOM      5  C   UNL     1       0.650  -0.585   1.135  0.00  0.00    +0.339 C 
ATOM      6  O   UNL     1       0.002  -0.004   0.002  0.00  0.00    -0.329 OA
ENDROOT
BRANCH   4   7
ATOM      7  N   UNL     1       2.802  -0.621  -0.030  0.00  0.00    -0.278 NA
ATOM      8  C   UNL     1       3.820  -1.412   0.083  0.00  0.00    +0.113 C 
BRANCH   8   9
ATOM      9  C   UNL     1       4.513  -1.899  -1.124  0.00  0.00    -0.007 A 
ATOM     10  C   UNL     1       4.068  -1.512  -2.391  0.00  0.00    +0.013 A 
ATOM     11  C   UNL     1       4.721  -1.964  -3.516  0.00  0.00    +0.046 A 
ATOM     12  C   UNL     1       5.814  -2.814  -3.393  0.00  0.00    +0.120 A 
ATOM     13  C   UNL     1       6.256  -3.206  -2.135  0.00  0.00    +0.046 A 
ATOM     14  C   UNL     1       5.612  -2.753  -1.005  0.00  0.00    +0.013 A 
BRANCH  12  15
ATOM     15  O   UNL     1       6.452  -3.262  -4.504  0.00  0.00    -0.495 OA
ATOM     16  C   UNL     1       5.945  -2.820  -5.765  0.00  0.00    +0.277 C 
ENDBRANCH  12  15
ENDBRANCH   8   9
ENDBRANCH   4   7
BRANCH   1  17
ATOM     17  C   UNL     1      -0.757   1.932  -1.230  0.00  0.00    +0.267 C 
BRANCH  17  18
ATOM     18  O   UNL     1      -2.150   1.529  -1.161  0.00  0.00    -0.462 OA
BRANCH  18  20
ATOM     19  C   UNL     1      -4.400   1.515  -2.178  0.00  0.00    +0.136 C 
ATOM     20  C   UNL     1      -2.942   1.897  -2.180  0.00  0.00    +0.304 C 
ATOM     21  O   UNL     1      -2.487   2.536  -3.099  0.00  0.00    -0.251 OA
ENDBRANCH  18  20
ENDBRANCH  17  18
ENDBRANCH   1  17
BRANCH   5  22
ATOM     22  O   UNL     1      -0.018  -0.152   2.350  0.00  0.00    -0.433 OA
BRANCH  22  23
ATOM     23  C   UNL     1      -1.249  -0.637   2.575  0.00  0.00    +0.306 C 
ATOM     24  O   UNL     1      -1.752  -1.399   1.783  0.00  0.00    -0.251 OA
ATOM     25  C   UNL     1      -2.003  -0.232   3.815  0.00  0.00    +0.136 C 
ENDBRANCH  22  23
ENDBRANCH   5  22
BRANCH   3  26
ATOM     26  O   UNL     1       1.547   1.870   2.432  0.00  0.00    -0.455 OA
BRANCH  26  27
ATOM     27  C   UNL     1       2.340   2.016   3.505  0.00  0.00    +0.304 C 
ATOM     28  O   UNL     1       3.517   1.754   3.426  0.00  0.00    -0.251 OA
ATOM     29  C   UNL     1       1.763   2.506   4.808  0.00  0.00    +0.136 C 
ENDBRANCH  26  27
ENDBRANCH   3  26
BRANCH   2  30
ATOM     30  O   UNL     1       1.403   3.404   0.066  0.00  0.00    -0.455 OA
BRANCH  30  31
ATOM     31  C   UNL     1       1.367   4.067  -1.100  0.00  0.00    +0.304 C 
ATOM     32  O   UNL     1       1.350   3.457  -2.142  0.00  0.00    -0.251 OA
ATOM     33  C   UNL     1       1.349   5.574  -1.109  0.00  0.00    +0.136 C 
ENDBRANCH  30  31
ENDBRANCH   2  30
TORSDOF 12
