REMARK  Name = ZINC09056635
REMARK  8 active torsions:
REMARK  status: ('A' for Active; 'I' for Inactive)
REMARK    1  A    between atoms: C_1  and  C_2
REMARK    2  A    between atoms: C_5  and  C_8
REMARK    3  A    between atoms: C_9  and  C_33
REMARK    4  A    between atoms: C_17  and  C_19
REMARK    5  A    between atoms: C_19  and  N_57
REMARK    6  A    between atoms: C_20  and  N_57
REMARK    7  A    between atoms: C_21  and  C_22
REMARK    8  A    between atoms: C_21  and  N_57
REMARK                            x       y       z     vdW  Elec       q    Type
REMARK                         _______ _______ _______ _____ _____    ______ ____
ROOT
ATOM      1  C   UNL     1       0.420   2.130  -0.755  0.00  0.00    +0.007 A 
ATOM      2  C   UNL     1      -0.693   1.358  -0.789  0.00  0.00    -0.003 A 
ATOM      3  S   UNL     1      -2.017   2.535  -0.594  0.00  0.00    -0.073 S 
ATOM      4  C   UNL     1      -1.055   4.020  -0.463  0.00  0.00    +0.116 A 
ATOM      5  C   UNL     1       0.270   3.570  -0.581  0.00  0.00    +0.080 A 
ATOM      6  C   UNL     1       1.278   4.584  -0.515  0.00  0.00    +0.260 A 
ATOM      7  O   UNL     1       2.458   4.292  -0.608  0.00  0.00    -0.267 OA
ATOM      8  N   UNL     1       0.903   5.866  -0.348  0.00  0.00    -0.312 N 
ATOM      9  H   UNL     1       1.582   6.558  -0.302  0.00  0.00    +0.170 HD
ATOM     10  C   UNL     1      -0.406   6.210  -0.243  0.00  0.00    +0.094 A 
ATOM     11  N   UNL     1      -1.348   5.308  -0.299  0.00  0.00    -0.229 NA
ATOM     12  C   UNL     1      -0.788  -0.136  -0.957  0.00  0.00    +0.052 C 
ENDROOT
BRANCH   1  17
ATOM     13  C   UNL     1       5.645  -0.230  -1.288  0.00  0.00    +0.044 C 
ATOM     14  C   UNL     1       4.278   0.388  -1.149  0.00  0.00    -0.050 A 
ATOM     15  C   UNL     1       3.387   0.336  -2.206  0.00  0.00    +0.004 A 
ATOM     16  C   UNL     1       2.134   0.899  -2.084  0.00  0.00    +0.009 A 
ATOM     17  C   UNL     1       1.765   1.522  -0.892  0.00  0.00    -0.016 A 
ATOM     18  C   UNL     1       2.669   1.576   0.168  0.00  0.00    +0.009 A 
ATOM     19  C   UNL     1       3.918   1.004   0.036  0.00  0.00    +0.004 A 
ENDBRANCH   1  17
BRANCH  10  20
ATOM     20  C   UNL     1      -0.778   7.659  -0.057  0.00  0.00    -0.003 C 
BRANCH  20  22
ATOM     21  C   UNL     1      -2.750   7.131   1.244  0.00  0.00    -0.095 C 
ATOM     22  N   UNL     1      -2.251   7.768   0.008  0.00  0.00    +0.385 N 
ATOM     23  H   UNL     1      -2.657   7.287  -0.803  0.00  0.00    -0.081 HD
BRANCH  22  24
ATOM     24  C   UNL     1      -2.654   9.190  -0.026  0.00  0.00    -0.030 C 
BRANCH  24  25
ATOM     25  C   UNL     1      -2.552   9.693  -1.467  0.00  0.00    +0.194 C 
ATOM     26  C   UNL     1      -2.961  11.171  -1.529  0.00  0.00    +0.271 C 
ATOM     27  O   UNL     1      -2.866  11.606  -2.890  0.00  0.00    -0.485 OA
ATOM     28  C   UNL     1      -3.408  10.786  -3.832  0.00  0.00    +0.162 A 
ATOM     29  C   UNL     1      -3.674  11.287  -5.098  0.00  0.00    +0.049 A 
ATOM     30  C   UNL     1      -4.218  10.465  -6.067  0.00  0.00    +0.004 A 
ATOM     31  C   UNL     1      -4.498   9.143  -5.778  0.00  0.00    +0.004 A 
ATOM     32  C   UNL     1      -4.236   8.638  -4.519  0.00  0.00    +0.049 A 
ATOM     33  C   UNL     1      -3.691   9.457  -3.541  0.00  0.00    +0.162 A 
ATOM     34  O   UNL     1      -3.441   8.947  -2.304  0.00  0.00    -0.484 OA
ENDBRANCH  24  25
ENDBRANCH  22  24
ENDBRANCH  20  22
ENDBRANCH  10  20
TORSDOF 5
