REMARK  Name = ZINC13567759
REMARK  3 active torsions:
REMARK  status: ('A' for Active; 'I' for Inactive)
REMARK    1  A    between atoms: C_8  and  C_27
REMARK    2  A    between atoms: C_9  and  N_26
REMARK    3  A    between atoms: N_10  and  C_18
REMARK                            x       y       z     vdW  Elec       q    Type
REMARK                         _______ _______ _______ _____ _____    ______ ____
ROOT
ATOM      1  C   UNL     1       5.644   3.741   4.579  0.00  0.00    +0.000 A 
ATOM      2  C   UNL     1       6.799   4.471   4.775  0.00  0.00    +0.002 A 
ATOM      3  C   UNL     1       7.600   4.875   3.719  0.00  0.00    +0.023 A 
ATOM      4  C   UNL     1       7.191   4.515   2.434  0.00  0.00    +0.038 A 
ATOM      5  C   UNL     1       6.017   3.776   2.249  0.00  0.00    -0.002 A 
ATOM      6  C   UNL     1       5.226   3.377   3.304  0.00  0.00    +0.007 A 
ATOM      7  C   UNL     1       5.878   3.567   0.772  0.00  0.00    +0.141 C 
ATOM      8  C   UNL     1       5.912   2.107   0.432  0.00  0.00    +0.089 C 
ATOM      9  C   UNL     1       4.780   1.448   0.069  0.00  0.00    +0.108 C 
ATOM     10  N   UNL     1       3.582   2.121   0.001  0.00  0.00    -0.260 N 
ATOM     11  C   UNL     1       3.551   3.487  -0.101  0.00  0.00    +0.025 C 
ATOM     12  C   UNL     1       4.624   4.226   0.261  0.00  0.00    +0.037 C 
ATOM     13  C   UNL     1       4.602   5.629   0.166  0.00  0.00    +0.162 C 
ATOM     14  O   UNL     1       5.590   6.263   0.479  0.00  0.00    -0.292 OA
ATOM     15  C   UNL     1       3.377   6.358  -0.315  0.00  0.00    +0.080 C 
ATOM     16  C   UNL     1       2.137   5.526   0.025  0.00  0.00    +0.014 C 
ATOM     17  C   UNL     1       2.293   4.142  -0.610  0.00  0.00    +0.052 C 
ATOM     18  C   UNL     1       7.090   4.262   0.184  0.00  0.00    +0.238 C 
ATOM     19  O   UNL     1       7.378   4.338  -0.992  0.00  0.00    -0.274 OA
ATOM     20  N   UNL     1       7.789   4.781   1.215  0.00  0.00    -0.284 N 
ATOM     21  H   UNL     1       8.614   5.281   1.113  0.00  0.00    +0.155 HD
ENDROOT
BRANCH  10  22
ATOM     22  C   UNL     1       2.381   1.401   0.030  0.00  0.00    +0.041 A 
ATOM     23  C   UNL     1       1.809   0.955  -1.154  0.00  0.00    +0.027 A 
ATOM     24  C   UNL     1       0.625   0.244  -1.123  0.00  0.00    +0.041 A 
ATOM     25  C   UNL     1       0.007  -0.023   0.087  0.00  0.00    +0.142 A 
ATOM     26  C   UNL     1       0.576   0.422   1.270  0.00  0.00    +0.078 A 
ATOM     27  C   UNL     1       1.761   1.133   1.243  0.00  0.00    +0.046 A 
ATOM     28 CL   UNL     1      -0.204   0.092   2.785  0.00  0.00    -0.081 Cl
ATOM     29  F   UNL     1      -1.151  -0.718   0.115  0.00  0.00    -0.204 F 
ENDBRANCH  10  22
BRANCH   9  30
ATOM     30  N   UNL     1       4.833   0.108  -0.231  0.00  0.00    -0.345 N 
ATOM     31  H   UNL     1       4.047  -0.343  -0.575  0.00  0.00    +0.144 HD
ATOM     32  H   UNL     1       5.657  -0.386  -0.100  0.00  0.00    +0.144 HD
ENDBRANCH   9  30
BRANCH   8  33
ATOM     33  C   UNL     1       7.154   1.397   0.492  0.00  0.00    +0.100 C 
ATOM     34  N   UNL     1       8.140   0.834   0.540  0.00  0.00    -0.191 NA
ENDBRANCH   8  33
TORSDOF 3
