REMARK  Name = ZINC12576954
REMARK  7 active torsions:
REMARK  status: ('A' for Active; 'I' for Inactive)
REMARK    1  A    between atoms: C_1  and  C_2
REMARK    2  A    between atoms: C_2  and  C_35
REMARK    3  A    between atoms: N_8  and  C_9
REMARK    4  A    between atoms: C_12  and  O_15
REMARK    5  A    between atoms: O_15  and  C_16
REMARK    6  A    between atoms: C_17  and  N_20
REMARK    7  A    between atoms: C_21  and  C_23
REMARK                            x       y       z     vdW  Elec       q    Type
REMARK                         _______ _______ _______ _____ _____    ______ ____
ROOT
ATOM      1  C   UNL     1       9.058   7.199  -0.181  0.00  0.00    +0.011 C 
ATOM      2  C   UNL     1       7.941   7.865  -0.987  0.00  0.00    -0.027 C 
ATOM      3  C   UNL     1       8.192   7.647  -2.484  0.00  0.00    +0.062 C 
ATOM      4  C   UNL     1       7.962   6.190  -2.797  0.00  0.00    +0.050 A 
ATOM      5  C   UNL     1       7.298   5.331  -1.982  0.00  0.00    +0.014 A 
ATOM      6  C   UNL     1       7.287   4.079  -2.593  0.00  0.00    +0.140 A 
ATOM      7  N   UNL     1       7.921   4.178  -3.737  0.00  0.00    -0.174 NA
ATOM      8  N   UNL     1       8.355   5.504  -3.887  0.00  0.00    -0.236 N 
ATOM      9  C   UNL     1       6.696   5.719  -0.655  0.00  0.00    +0.107 C 
ATOM     10  C   UNL     1       6.595   7.248  -0.599  0.00  0.00    +0.034 C 
ATOM     11  C   UNL     1       7.920   9.365  -0.686  0.00  0.00    +0.011 C 
ENDROOT
BRANCH   8  12
ATOM     12  C   UNL     1       9.069   6.022  -4.977  0.00  0.00    +0.066 A 
ATOM     13  C   UNL     1       8.836   7.322  -5.405  0.00  0.00    +0.031 A 
ATOM     14  C   UNL     1       9.543   7.833  -6.476  0.00  0.00    +0.048 A 
ATOM     15  C   UNL     1      10.479   7.044  -7.130  0.00  0.00    +0.120 A 
ATOM     16  C   UNL     1      10.708   5.743  -6.705  0.00  0.00    +0.048 A 
ATOM     17  C   UNL     1      10.005   5.233  -5.632  0.00  0.00    +0.031 A 
BRANCH  15  18
ATOM     18  O   UNL     1      11.170   7.546  -8.187  0.00  0.00    -0.495 OA
ATOM     19  C   UNL     1      10.883   8.893  -8.570  0.00  0.00    +0.277 C 
ENDBRANCH  15  18
ENDBRANCH   8  12
BRANCH   9  20
ATOM     20  N   UNL     1       5.361   5.131  -0.527  0.00  0.00    -0.304 N 
ATOM     21  C   UNL     1       5.220   3.870  -0.073  0.00  0.00    +0.250 C 
ATOM     22  O   UNL     1       6.192   3.253   0.321  0.00  0.00    -0.270 OA
ATOM     23  H   UNL     1       4.577   5.649  -0.770  0.00  0.00    +0.150 HD
BRANCH  21  24
ATOM     24  C   UNL     1       3.892   3.239  -0.053  0.00  0.00    +0.101 A 
ATOM     25  C   UNL     1       3.744   1.903   0.300  0.00  0.00    +0.023 A 
ATOM     26  C   UNL     1       2.467   1.325   0.313  0.00  0.00    -0.027 A 
ATOM     27  C   UNL     1       1.387   2.071  -0.013  0.00  0.00    +0.022 A 
ATOM     28  N   UNL     1       1.531   3.380  -0.365  0.00  0.00    -0.325 N 
ATOM     29  H   UNL     1       0.742   3.893  -0.602  0.00  0.00    +0.169 HD
ATOM     30  C   UNL     1       2.731   3.980  -0.395  0.00  0.00    +0.261 A 
ATOM     31  O   UNL     1       2.823   5.153  -0.713  0.00  0.00    -0.267 OA
ATOM     32  C   UNL     1      -0.016   1.516  -0.006  0.00  0.00    +0.053 C 
ATOM     33  C   UNL     1       0.006  -0.011  -0.030  0.00  0.00    +0.006 C 
ATOM     34  C   UNL     1       0.942  -0.495   1.085  0.00  0.00    +0.005 C 
ATOM     35  C   UNL     1       2.373  -0.129   0.698  0.00  0.00    +0.037 C 
ENDBRANCH  21  24
ENDBRANCH   9  20
TORSDOF 4
