REMARK  Name = ZINC12500760
REMARK  9 active torsions:
REMARK  status: ('A' for Active; 'I' for Inactive)
REMARK    1  A    between atoms: C_1  and  C_2
REMARK    2  A    between atoms: C_4  and  O_9
REMARK    3  A    between atoms: O_9  and  C_10
REMARK    4  A    between atoms: C_10  and  C_11
REMARK    5  A    between atoms: N_13  and  N_14
REMARK    6  A    between atoms: N_14  and  C_15
REMARK    7  A    between atoms: C_15  and  N_17
REMARK    8  A    between atoms: C_18  and  C_20
REMARK    9  A    between atoms: C_21  and  C_22
REMARK                            x       y       z     vdW  Elec       q    Type
REMARK                         _______ _______ _______ _____ _____    ______ ____
ROOT
ATOM      1  N   UNL     1       3.478   1.934  -0.021  0.00  0.00    -0.245 N 
ATOM      2  H   UNL     1       4.324   1.460  -0.031  0.00  0.00    +0.172 HD
ENDROOT
BRANCH   1   5
ATOM      3  C   UNL     1       4.616   4.025  -0.020  0.00  0.00    +0.267 C 
ATOM      4  O   UNL     1       5.675   3.433  -0.034  0.00  0.00    -0.271 OA
ATOM      5  N   UNL     1       3.458   3.335  -0.013  0.00  0.00    -0.232 N 
ATOM      6  H   UNL     1       2.612   3.808  -0.002  0.00  0.00    +0.173 HD
BRANCH   3   7
ATOM      7  C   UNL     1       4.596   5.531  -0.012  0.00  0.00    +0.326 C 
BRANCH   7   8
ATOM      8  O   UNL     1       5.937   6.026  -0.022  0.00  0.00    -0.483 OA
BRANCH   8  12
ATOM      9  C   UNL     1       8.915   9.893  -0.029  0.00  0.00    +0.045 C 
ATOM     10  C   UNL     1       7.531   9.297  -0.020  0.00  0.00    -0.033 A 
ATOM     11  C   UNL     1       7.370   7.924  -0.026  0.00  0.00    +0.050 A 
ATOM     12  C   UNL     1       6.096   7.376  -0.017  0.00  0.00    +0.122 A 
ATOM     13  C   UNL     1       4.985   8.207  -0.007  0.00  0.00    +0.047 A 
ATOM     14  C   UNL     1       5.150   9.578   0.004  0.00  0.00    +0.019 A 
ATOM     15  C   UNL     1       6.422  10.123  -0.005  0.00  0.00    +0.021 A 
ATOM     16 BR   UNL     1       6.644  12.001   0.004  0.00  0.00    -0.050 Br
ENDBRANCH   8  12
ENDBRANCH   7   8
ENDBRANCH   3   7
ENDBRANCH   1   5
BRANCH   1  17
ATOM     17  C   UNL     1       2.320   1.244  -0.013  0.00  0.00    +0.153 C 
ATOM     18  S   UNL     1       2.343  -0.468  -0.023  0.00  0.00    -0.017 S 
BRANCH  17  19
ATOM     19  N   UNL     1       1.143   1.902   0.001  0.00  0.00    -0.263 N 
ATOM     20  C   UNL     1      -0.014   1.212   0.009  0.00  0.00    +0.242 C 
ATOM     21  O   UNL     1       0.002  -0.004   0.002  0.00  0.00    -0.270 OA
ATOM     22  H   UNL     1       1.130   2.872   0.007  0.00  0.00    +0.157 HD
BRANCH  20  23
ATOM     23  C   UNL     1      -1.291   1.927   0.019  0.00  0.00    +0.068 C 
ATOM     24  C   UNL     1      -2.450   1.236   0.020  0.00  0.00    +0.013 C 
BRANCH  24  25
ATOM     25  C   UNL     1      -3.735   1.955   0.030  0.00  0.00    -0.025 A 
ATOM     26  C   UNL     1      -3.758   3.353   0.044  0.00  0.00    +0.008 A 
ATOM     27  C   UNL     1      -4.965   4.019   0.047  0.00  0.00    +0.001 A 
ATOM     28  C   UNL     1      -6.152   3.307   0.049  0.00  0.00    +0.000 A 
ATOM     29  C   UNL     1      -6.138   1.923   0.042  0.00  0.00    +0.001 A 
ATOM     30  C   UNL     1      -4.938   1.243   0.032  0.00  0.00    +0.008 A 
ENDBRANCH  24  25
ENDBRANCH  20  23
ENDBRANCH  17  19
ENDBRANCH   1  17
TORSDOF 8
