REMARK  Name = ZINC40561481
REMARK  13 active torsions:
REMARK  status: ('A' for Active; 'I' for Inactive)
REMARK    1  A    between atoms: C_1  and  C_2
REMARK    2  A    between atoms: C_2  and  O_3
REMARK    3  A    between atoms: O_3  and  C_4
REMARK    4  A    between atoms: C_7  and  C_12
REMARK    5  A    between atoms: C_9  and  O_10
REMARK    6  A    between atoms: O_10  and  C_11
REMARK    7  A    between atoms: C_20  and  O_33
REMARK    8  A    between atoms: N_27  and  C_28
REMARK    9  A    between atoms: C_28  and  C_29
REMARK   10  A    between atoms: C_29  and  N_30
REMARK   11  A    between atoms: N_30  and  C_31
REMARK   12  A    between atoms: N_30  and  C_32
REMARK   13  A    between atoms: O_33  and  C_34
REMARK                            x       y       z     vdW  Elec       q    Type
REMARK                         _______ _______ _______ _____ _____    ______ ____
ROOT
ATOM      1  C   UNL     1       1.142  -6.064   1.761  0.00  0.00    +0.145 C 
ATOM      2  C   UNL     1       2.214  -6.593   0.866  0.00  0.00    +0.072 A 
ATOM      3  C   UNL     1       3.652  -6.306   0.805  0.00  0.00    +0.199 A 
ATOM      4  O   UNL     1       4.240  -5.661   1.655  0.00  0.00    -0.287 OA
ATOM      5  C   UNL     1       4.322  -6.875  -0.390  0.00  0.00    +0.065 A 
ATOM      6  C   UNL     1       5.638  -6.524  -0.695  0.00  0.00    +0.019 A 
ATOM      7  C   UNL     1       6.242  -7.050  -1.800  0.00  0.00    +0.046 A 
ATOM      8  C   UNL     1       5.547  -7.936  -2.623  0.00  0.00    +0.124 A 
ATOM      9  C   UNL     1       4.243  -8.294  -2.333  0.00  0.00    +0.092 A 
ATOM     10  C   UNL     1       3.611  -7.770  -1.208  0.00  0.00    +0.143 A 
ATOM     11  O   UNL     1       2.338  -8.142  -0.938  0.00  0.00    -0.449 OA
ATOM     12  C   UNL     1       1.636  -7.479   0.002  0.00  0.00    +0.199 A 
ATOM     13  C   UNL     1       0.195  -7.543   0.302  0.00  0.00    +0.283 C 
ATOM     14  O   UNL     1      -0.609  -8.237  -0.289  0.00  0.00    -0.267 OA
ATOM     15  N   UNL     1      -0.103  -6.721   1.330  0.00  0.00    -0.285 N 
ENDROOT
BRANCH   1  19
ATOM     16  C   UNL     1       0.802  -1.825   1.306  0.00  0.00    +0.162 A 
ATOM     17  C   UNL     1       0.261  -2.673   0.353  0.00  0.00    +0.050 A 
ATOM     18  C   UNL     1       0.372  -4.043   0.502  0.00  0.00    +0.009 A 
ATOM     19  C   UNL     1       1.024  -4.570   1.602  0.00  0.00    -0.019 A 
ATOM     20  C   UNL     1       1.566  -3.730   2.557  0.00  0.00    +0.055 A 
ATOM     21  C   UNL     1       1.462  -2.356   2.410  0.00  0.00    +0.162 A 
BRANCH  21  22
ATOM     22  O   UNL     1       2.000  -1.528   3.345  0.00  0.00    -0.491 OA
ATOM     23  C   UNL     1       2.664  -2.143   4.451  0.00  0.00    +0.277 C 
ENDBRANCH  21  22
BRANCH  16  24
ATOM     24  O   UNL     1       0.693  -0.477   1.160  0.00  0.00    -0.489 OA
BRANCH  24  26
ATOM     25  C   UNL     1      -0.019   1.526   0.010  0.00  0.00    +0.048 C 
ATOM     26  C   UNL     1       0.002  -0.004   0.002  0.00  0.00    +0.226 C 
ENDBRANCH  24  26
ENDBRANCH  16  24
ENDBRANCH   1  19
BRANCH   8  27
ATOM     27  O   UNL     1       6.157  -8.451  -3.720  0.00  0.00    -0.495 OA
ATOM     28  C   UNL     1       7.504  -8.043  -3.966  0.00  0.00    +0.277 C 
ENDBRANCH   8  27
BRANCH  15  29
ATOM     29  C   UNL     1      -1.430  -6.517   1.916  0.00  0.00    +0.090 C 
BRANCH  29  30
ATOM     30  C   UNL     1      -2.138  -5.372   1.189  0.00  0.00    -0.060 C 
BRANCH  30  31
ATOM     31  N   UNL     1      -3.469  -5.168   1.776  0.00  0.00    +0.377 N 
ATOM     32  C   UNL     1      -3.327  -4.717   3.167  0.00  0.00    -0.097 C 
ATOM     33  C   UNL     1      -4.194  -4.150   1.004  0.00  0.00    -0.097 C 
ATOM     34  H   UNL     1      -3.983  -6.036   1.755  0.00  0.00    -0.083 HD
ENDBRANCH  30  31
ENDBRANCH  29  30
ENDBRANCH  15  29
TORSDOF 8
