REMARK  Name = ZINC13564697
REMARK  12 active torsions:
REMARK  status: ('A' for Active; 'I' for Inactive)
REMARK    1  A    between atoms: C_1  and  C_2
REMARK    2  A    between atoms: C_5  and  C_8
REMARK    3  A    between atoms: C_11  and  C_24
REMARK    4  A    between atoms: N_16  and  C_18
REMARK    5  A    between atoms: C_24  and  N_25
REMARK    6  A    between atoms: N_25  and  C_26
REMARK    7  A    between atoms: C_26  and  C_27
REMARK    8  A    between atoms: C_27  and  C_28
REMARK    9  A    between atoms: C_31  and  O_36
REMARK   10  A    between atoms: C_32  and  O_34
REMARK   11  A    between atoms: O_34  and  C_35
REMARK   12  A    between atoms: O_36  and  C_37
REMARK                            x       y       z     vdW  Elec       q    Type
REMARK                         _______ _______ _______ _____ _____    ______ ____
ROOT
ATOM      1  C   UNL     1      -1.299   2.118   0.020  0.00  0.00    +0.102 A 
ATOM      2  C   UNL     1      -1.620   3.219   0.832  0.00  0.00    +0.045 A 
ATOM      3  C   UNL     1      -0.903   3.937   1.812  0.00  0.00    +0.020 A 
ATOM      4  C   UNL     1      -1.517   4.982   2.430  0.00  0.00    +0.001 A 
ATOM      5  C   UNL     1      -2.841   5.316   2.077  0.00  0.00    +0.252 A 
ATOM      6  O   UNL     1      -3.392   6.256   2.634  0.00  0.00    -0.268 OA
ATOM      7  N   UNL     1      -3.504   4.625   1.147  0.00  0.00    -0.307 N 
ATOM      8  C   UNL     1      -2.947   3.604   0.522  0.00  0.00    +0.145 A 
ATOM      9  N   UNL     1      -3.403   2.745  -0.456  0.00  0.00    -0.215 N 
ATOM     10  N   UNL     1      -2.379   1.839  -0.759  0.00  0.00    -0.164 NA
ATOM     11  H   UNL     1      -4.536   4.902   0.887  0.00  0.00    +0.170 HD
ENDROOT
BRANCH   1  16
ATOM     12  C   UNL     1       3.709  -0.704  -0.038  0.00  0.00    +0.044 C 
ATOM     13  C   UNL     1       2.397   0.035  -0.021  0.00  0.00    -0.050 A 
ATOM     14  C   UNL     1       1.207  -0.673  -0.013  0.00  0.00    +0.004 A 
ATOM     15  C   UNL     1       0.002  -0.004   0.002  0.00  0.00    +0.010 A 
ATOM     16  C   UNL     1      -0.017   1.395   0.010  0.00  0.00    +0.003 A 
ATOM     17  C   UNL     1       1.190   2.104   0.002  0.00  0.00    +0.010 A 
ATOM     18  C   UNL     1       2.386   1.419  -0.014  0.00  0.00    +0.004 A 
ENDBRANCH   1  16
BRANCH   9  19
ATOM     19  C   UNL     1      -4.669   2.776  -1.047  0.00  0.00    +0.068 A 
ATOM     20  C   UNL     1      -5.802   2.926  -0.258  0.00  0.00    +0.028 A 
ATOM     21  C   UNL     1      -7.051   2.963  -0.846  0.00  0.00    +0.002 A 
ATOM     22  C   UNL     1      -7.176   2.838  -2.217  0.00  0.00    +0.000 A 
ATOM     23  C   UNL     1      -6.050   2.683  -3.005  0.00  0.00    +0.002 A 
ATOM     24  C   UNL     1      -4.798   2.652  -2.425  0.00  0.00    +0.028 A 
ENDBRANCH   9  19
BRANCH   4  25
ATOM     25  C   UNL     1      -0.789   5.776   3.483  0.00  0.00    -0.041 C 
BRANCH  25  26
ATOM     26  N   UNL     1      -0.380   7.071   2.925  0.00  0.00    +0.382 N 
ATOM     27  H   UNL     1       0.285   6.906   2.065  0.00  0.00    -0.085 HD
ATOM     28  H   UNL     1      -1.271   7.627   2.598  0.00  0.00    -0.085 HD
BRANCH  26  29
ATOM     29  C   UNL     1       0.334   7.874   3.926  0.00  0.00    -0.077 C 
BRANCH  29  30
ATOM     30  C   UNL     1       0.743   9.213   3.309  0.00  0.00    +0.016 C 
BRANCH  30  31
ATOM     31  C   UNL     1       1.476  10.037   4.336  0.00  0.00    -0.045 A 
ATOM     32  C   UNL     1       0.774  10.899   5.158  0.00  0.00    +0.007 A 
ATOM     33  C   UNL     1       1.441  11.652   6.106  0.00  0.00    +0.049 A 
ATOM     34  C   UNL     1       2.818  11.553   6.226  0.00  0.00    +0.161 A 
ATOM     35  C   UNL     1       3.526  10.690   5.395  0.00  0.00    +0.162 A 
ATOM     36  C   UNL     1       2.850   9.933   4.451  0.00  0.00    +0.053 A 
BRANCH  35  37
ATOM     37  O   UNL     1       4.877  10.588   5.509  0.00  0.00    -0.491 OA
ATOM     38  C   UNL     1       5.537   9.682   4.623  0.00  0.00    +0.277 C 
ENDBRANCH  35  37
BRANCH  34  39
ATOM     39  O   UNL     1       3.477  12.298   7.154  0.00  0.00    -0.491 OA
ATOM     40  C   UNL     1       2.686  13.162   7.972  0.00  0.00    +0.277 C 
ENDBRANCH  34  39
ENDBRANCH  30  31
ENDBRANCH  29  30
ENDBRANCH  26  29
ENDBRANCH  25  26
ENDBRANCH   4  25
TORSDOF 9
