REMARK  Name = ZINC24882661
REMARK  8 active torsions:
REMARK  status: ('A' for Active; 'I' for Inactive)
REMARK    1  A    between atoms: C_1  and  C_2
REMARK    2  A    between atoms: N_13  and  C_30
REMARK    3  A    between atoms: C_14  and  S_16
REMARK    4  A    between atoms: S_16  and  C_17
REMARK    5  A    between atoms: C_17  and  C_19
REMARK    6  A    between atoms: C_17  and  C_20
REMARK    7  A    between atoms: N_26  and  C_27
REMARK    8  A    between atoms: N_26  and  C_28
REMARK                            x       y       z     vdW  Elec       q    Type
REMARK                         _______ _______ _______ _____ _____    ______ ____
ROOT
ATOM      1  C   UNL     1       2.597   7.321  -2.216  0.00  0.00    +0.008 C 
ATOM      2  C   UNL     1       2.129   6.053  -1.499  0.00  0.00    -0.009 C 
ATOM      3  C   UNL     1       1.092   5.329  -2.362  0.00  0.00    +0.008 C 
ATOM      4  C   UNL     1       0.440   4.205  -1.557  0.00  0.00    +0.037 C 
ATOM      5  C   UNL     1       1.536   3.323  -0.966  0.00  0.00    -0.023 A 
ATOM      6  C   UNL     1       2.803   3.774  -0.863  0.00  0.00    -0.004 A 
ATOM      7  S   UNL     1       3.710   2.436  -0.134  0.00  0.00    -0.073 S 
ATOM      8  C   UNL     1       2.381   1.271   0.029  0.00  0.00    +0.117 A 
ATOM      9  C   UNL     1       1.274   1.964  -0.489  0.00  0.00    +0.076 A 
ATOM     10  C   UNL     1       0.034   1.250  -0.484  0.00  0.00    +0.268 A 
ATOM     11  O   UNL     1      -0.980   1.770  -0.918  0.00  0.00    -0.267 OA
ATOM     12  N   UNL     1       0.002  -0.004   0.002  0.00  0.00    -0.255 N 
ATOM     13  C   UNL     1       1.130  -0.604   0.488  0.00  0.00    +0.178 A 
ATOM     14  N   UNL     1       2.284   0.031   0.495  0.00  0.00    -0.215 NA
ATOM     15  C   UNL     1       3.324   5.116  -1.275  0.00  0.00    +0.046 C 
ENDROOT
BRANCH  12  16
ATOM     16  C   UNL     1      -1.209  -0.708   0.010  0.00  0.00    +0.052 A 
ATOM     17  C   UNL     1      -2.053  -0.629   1.110  0.00  0.00    +0.026 A 
ATOM     18  C   UNL     1      -3.249  -1.320   1.113  0.00  0.00    +0.002 A 
ATOM     19  C   UNL     1      -3.601  -2.099   0.026  0.00  0.00    +0.000 A 
ATOM     20  C   UNL     1      -2.761  -2.184  -1.069  0.00  0.00    +0.002 A 
ATOM     21  C   UNL     1      -1.566  -1.491  -1.080  0.00  0.00    +0.026 A 
ENDBRANCH  12  16
BRANCH  13  22
ATOM     22  S   UNL     1       1.039  -2.248   1.115  0.00  0.00    -0.076 S 
BRANCH  22  23
ATOM     23  C   UNL     1       2.766  -2.498   1.596  0.00  0.00    +0.119 C 
ATOM     24  C   UNL     1       3.651  -2.474   0.349  0.00  0.00    +0.028 C 
BRANCH  23  25
ATOM     25  C   UNL     1       2.907  -3.829   2.287  0.00  0.00    +0.149 A 
ATOM     26  N   UNL     1       2.320  -4.900   1.782  0.00  0.00    -0.198 NA
ATOM     27  C   UNL     1       2.446  -6.079   2.387  0.00  0.00    +0.217 A 
ATOM     28  N   UNL     1       3.156  -6.176   3.505  0.00  0.00    -0.181 NA
ATOM     29  C   UNL     1       3.741  -5.097   4.013  0.00  0.00    +0.222 A 
ATOM     30  N   UNL     1       3.614  -3.923   3.399  0.00  0.00    -0.198 NA
ATOM     31  N   UNL     1       4.480  -5.194   5.174  0.00  0.00    -0.306 N 
ATOM     32  C   UNL     1       5.126  -4.003   5.733  0.00  0.00    +0.132 C 
ATOM     33  C   UNL     1       4.620  -6.487   5.849  0.00  0.00    +0.132 C 
ATOM     34  N   UNL     1       1.837  -7.197   1.855  0.00  0.00    -0.327 N 
ATOM     35  H   UNL     1       1.942  -8.171   2.356  0.00  0.00    +0.145 HD
ATOM     36  H   UNL     1       1.246  -7.114   0.931  0.00  0.00    +0.145 HD
ENDBRANCH  23  25
ENDBRANCH  22  23
ENDBRANCH  13  22
TORSDOF 4
