REMARK  Name = ZINC12150290
REMARK  8 active torsions:
REMARK  status: ('A' for Active; 'I' for Inactive)
REMARK    1  A    between atoms: C_2  and  C_3
REMARK    2  A    between atoms: C_3  and  N_4
REMARK    3  A    between atoms: C_5  and  C_18
REMARK    4  A    between atoms: C_8  and  S_9
REMARK    5  A    between atoms: S_9  and  C_10
REMARK    6  A    between atoms: C_10  and  C_11
REMARK    7  A    between atoms: C_23  and  C_24
REMARK    8  A    between atoms: C_23  and  N_61
REMARK                            x       y       z     vdW  Elec       q    Type
REMARK                         _______ _______ _______ _____ _____    ______ ____
ROOT
ATOM      1  C   UNL     1      -0.731   1.580   1.267  0.00  0.00    +0.054 C 
ATOM      2  C   UNL     1      -0.013   1.086   0.008  0.00  0.00    -0.008 C 
ATOM      3  C   UNL     1      -0.754   1.594  -1.231  0.00  0.00    -0.078 C 
ATOM      4  C   UNL     1      -2.862   1.602  -0.035  0.00  0.00    -0.078 C 
ATOM      5  C   UNL     1      -2.184   1.095   1.239  0.00  0.00    -0.008 C 
ATOM      6  N   UNL     1      -2.137   1.071  -1.209  0.00  0.00    +0.383 N 
ATOM      7  H   UNL     1      -2.105   0.047  -1.146  0.00  0.00    -0.081 HD
ENDROOT
BRANCH   1   9
ATOM      8  N   UNL     1       0.541   1.767   3.487  0.00  0.00    -0.302 N 
ATOM      9  C   UNL     1      -0.039   1.034   2.489  0.00  0.00    +0.137 A 
ATOM     10  N   UNL     1       0.122  -0.224   2.787  0.00  0.00    -0.133 NA
ATOM     11  N   UNL     1       0.756  -0.336   3.900  0.00  0.00    -0.122 NA
ATOM     12  C   UNL     1       1.035   0.856   4.376  0.00  0.00    +0.192 A 
BRANCH   8  13
ATOM     13  C   UNL     1       0.614   3.227   3.585  0.00  0.00    +0.152 C 
BRANCH  13  15
ATOM     14  C   UNL     1      -0.441   4.498   5.383  0.00  0.00    +0.005 C 
ATOM     15  C   UNL     1      -0.594   3.742   4.324  0.00  0.00    -0.013 C 
ENDBRANCH  13  15
ENDBRANCH   8  13
BRANCH  12  16
ATOM     16  S   UNL     1       1.891   1.211   5.874  0.00  0.00    -0.081 S 
BRANCH  16  17
ATOM     17  C   UNL     1       2.212  -0.472   6.459  0.00  0.00    +0.112 C 
BRANCH  17  18
ATOM     18  C   UNL     1       2.958  -0.415   7.768  0.00  0.00    -0.036 A 
ATOM     19  C   UNL     1       2.260  -0.381   8.960  0.00  0.00    +0.004 A 
ATOM     20  C   UNL     1       2.943  -0.330  10.161  0.00  0.00    +0.002 A 
ATOM     21  C   UNL     1       4.325  -0.312  10.169  0.00  0.00    +0.020 A 
ATOM     22  C   UNL     1       5.024  -0.345   8.976  0.00  0.00    +0.041 A 
ATOM     23  C   UNL     1       4.340  -0.402   7.775  0.00  0.00    +0.024 A 
ATOM     24 CL   UNL     1       6.760  -0.323   8.986  0.00  0.00    -0.084 Cl
ENDBRANCH  17  18
ENDBRANCH  16  17
ENDBRANCH  12  16
ENDBRANCH   1   9
BRANCH   6  25
ATOM     25  C   UNL     1      -2.840   1.453  -2.452  0.00  0.00    -0.025 C 
BRANCH  25  26
ATOM     26  C   UNL     1      -4.161   0.730  -2.503  0.00  0.00    +0.000 A 
ATOM     27  C   UNL     1      -4.377  -0.437  -3.130  0.00  0.00    +0.029 A 
ATOM     28  C   UNL     1      -5.787  -0.778  -2.928  0.00  0.00    -0.000 A 
ATOM     29  C   UNL     1      -6.594  -1.846  -3.324  0.00  0.00    +0.010 A 
ATOM     30  C   UNL     1      -7.913  -1.869  -2.968  0.00  0.00    +0.001 A 
ATOM     31  C   UNL     1      -8.458  -0.837  -2.215  0.00  0.00    +0.002 A 
ATOM     32  C   UNL     1      -7.680   0.227  -1.814  0.00  0.00    +0.026 A 
ATOM     33  C   UNL     1      -6.334   0.270  -2.165  0.00  0.00    +0.047 A 
ATOM     34  N   UNL     1      -5.320   1.170  -1.924  0.00  0.00    -0.360 N 
ATOM     35  H   UNL     1      -5.414   1.993  -1.419  0.00  0.00    +0.166 HD
ENDBRANCH  25  26
ENDBRANCH   6  25
TORSDOF 8
