REMARK  Name = ZINC27989252
REMARK  8 active torsions:
REMARK  status: ('A' for Active; 'I' for Inactive)
REMARK    1  A    between atoms: C_4  and  O_10
REMARK    2  A    between atoms: C_5  and  N_7
REMARK    3  A    between atoms: O_10  and  C_11
REMARK    4  A    between atoms: C_11  and  C_12
REMARK    5  A    between atoms: N_14  and  C_15
REMARK    6  A    between atoms: C_15  and  C_16
REMARK    7  A    between atoms: C_16  and  C_18
REMARK    8  A    between atoms: C_16  and  N_23
REMARK                            x       y       z     vdW  Elec       q    Type
REMARK                         _______ _______ _______ _____ _____    ______ ____
ROOT
ATOM      1  C   UNL     1       1.131  -2.813   4.489  0.00  0.00    +0.251 C 
ATOM      2  O   UNL     1       0.307  -3.348   5.199  0.00  0.00    -0.272 OA
ATOM      3  N   UNL     1       0.759  -2.277   3.310  0.00  0.00    -0.314 N 
ATOM      4  H   UNL     1       1.508  -1.792   2.665  0.00  0.00    +0.149 HD
ENDROOT
BRANCH   1   5
ATOM      5  C   UNL     1       2.573  -2.748   4.925  0.00  0.00    +0.324 C 
BRANCH   5   6
ATOM      6  O   UNL     1       2.714  -3.380   6.199  0.00  0.00    -0.480 OA
BRANCH   6  10
ATOM      7  C   UNL     1       6.499  -3.466   7.838  0.00  0.00    +0.002 A 
ATOM      8  C   UNL     1       6.293  -2.870   6.607  0.00  0.00    +0.004 A 
ATOM      9  C   UNL     1       5.027  -2.844   6.054  0.00  0.00    +0.048 A 
ATOM     10  C   UNL     1       3.961  -3.408   6.739  0.00  0.00    +0.151 A 
ATOM     11  C   UNL     1       4.170  -4.005   7.973  0.00  0.00    +0.168 A 
ATOM     12  C   UNL     1       5.438  -4.033   8.520  0.00  0.00    +0.036 A 
BRANCH  11  13
ATOM     13  N   UNL     1       3.035  -4.613   8.704  0.00  0.00    +0.060 N 
ATOM     14  O   UNL     1       3.219  -5.138   9.787  0.00  0.00    -0.126 OA
ATOM     15  O   UNL     1       1.917  -4.589   8.221  0.00  0.00    -0.126 OA
ENDBRANCH  11  13
ENDBRANCH   6  10
ENDBRANCH   5   6
ENDBRANCH   1   5
BRANCH   3  16
ATOM     16  C   UNL     1      -0.641  -2.340   2.886  0.00  0.00    +0.094 C 
BRANCH  16  17
ATOM     17  C   UNL     1      -0.817  -1.554   1.585  0.00  0.00    -0.013 C 
BRANCH  17  18
ATOM     18  N   UNL     1      -0.305  -0.188   1.766  0.00  0.00    +0.386 N 
ATOM     19  C   UNL     1      -0.999   0.494   2.876  0.00  0.00    -0.078 C 
ATOM     20  C   UNL     1      -0.041   1.486   3.486  0.00  0.00    -0.019 C 
ATOM     21  C   UNL     1      -0.231   2.893   2.896  0.00  0.00    -0.002 C 
ATOM     22  C   UNL     1      -0.465   2.853   1.373  0.00  0.00    -0.002 C 
ATOM     23  C   UNL     1       0.431   1.863   0.674  0.00  0.00    -0.019 C 
ATOM     24  C   UNL     1      -0.308   0.512   0.556  0.00  0.00    -0.078 C 
ATOM     25  H   UNL     1       0.766  -0.203   2.014  0.00  0.00    -0.081 HD
ENDBRANCH  17  18
BRANCH  17  26
ATOM     26  C   UNL     1      -2.279  -1.499   1.224  0.00  0.00    -0.022 A 
ATOM     27  C   UNL     1      -2.965  -2.248   0.327  0.00  0.00    +0.009 A 
ATOM     28  C   UNL     1      -4.318  -2.021   0.160  0.00  0.00    +0.008 A 
ATOM     29  C   UNL     1      -4.919  -1.056   0.898  0.00  0.00    +0.045 A 
ATOM     30  S   UNL     1      -3.558  -0.436   1.874  0.00  0.00    -0.103 S 
ENDBRANCH  17  26
ENDBRANCH  16  17
ENDBRANCH   3  16
TORSDOF 8
