REMARK  Name = ZINC04016727
REMARK  12 active torsions:
REMARK  status: ('A' for Active; 'I' for Inactive)
REMARK    1  A    between atoms: C_1  and  C_2
REMARK    2  A    between atoms: C_2  and  C_3
REMARK    3  A    between atoms: C_2  and  C_4
REMARK    4  A    between atoms: C_4  and  C_5
REMARK    5  A    between atoms: C_5  and  O_7
REMARK    6  A    between atoms: O_7  and  C_8
REMARK    7  A    between atoms: C_10  and  N_78
REMARK    8  A    between atoms: C_16  and  C_19
REMARK    9  A    between atoms: C_17  and  O_18
REMARK   10  A    between atoms: C_20  and  C_21
REMARK   11  A    between atoms: C_30  and  C_31
REMARK   12  A    between atoms: C_30  and  C_32
REMARK                            x       y       z     vdW  Elec       q    Type
REMARK                         _______ _______ _______ _____ _____    ______ ____
ROOT
ATOM      1  C   UNL     1       2.019   1.804   3.452  0.00  0.00    +0.210 C 
ATOM      2  C   UNL     1       1.100   1.673   2.235  0.00  0.00    +0.015 C 
ATOM      3  C   UNL     1       1.914   1.760   0.969  0.00  0.00    +0.026 A 
ATOM      4  C   UNL     1       3.199   2.278   0.971  0.00  0.00    +0.127 A 
ATOM      5  C   UNL     1       3.925   2.348  -0.220  0.00  0.00    +0.047 A 
ATOM      6  C   UNL     1       3.381   1.900  -1.399  0.00  0.00    +0.015 A 
ATOM      7  C   UNL     1       2.087   1.366  -1.410  0.00  0.00    +0.017 A 
ATOM      8  C   UNL     1       1.356   1.296  -0.213  0.00  0.00    +0.129 A 
ATOM      9  O   UNL     1       3.785   2.729   2.109  0.00  0.00    -0.482 OA
ATOM     10  C   UNL     1       2.944   3.008   3.229  0.00  0.00    +0.140 C 
ATOM     11  C   UNL     1       3.802   3.236   4.474  0.00  0.00    +0.059 C 
ATOM     12  C   UNL     1       2.105   4.256   2.945  0.00  0.00    +0.059 C 
ENDROOT
BRANCH   2  18
ATOM     13  C   UNL     1      -0.656   0.393   3.302  0.00  0.00    -0.078 C 
ATOM     14  C   UNL     1      -1.452  -0.912   3.227  0.00  0.00    -0.019 C 
ATOM     15  C   UNL     1      -0.507  -2.094   3.461  0.00  0.00    -0.004 C 
ATOM     16  C   UNL     1       0.614  -2.056   2.419  0.00  0.00    -0.019 C 
ATOM     17  C   UNL     1       1.350  -0.718   2.517  0.00  0.00    -0.078 C 
ATOM     18  N   UNL     1       0.391   0.377   2.258  0.00  0.00    +0.387 N 
ATOM     19  H   UNL     1      -0.052   0.223   1.345  0.00  0.00    -0.081 HD
ENDBRANCH   2  18
BRANCH   8  20
ATOM     20  O   UNL     1       0.101   0.779  -0.213  0.00  0.00    -0.506 OA
ATOM     21  H   UNL     1       0.073  -0.184  -0.137  0.00  0.00    +0.292 HD
ENDBRANCH   8  20
BRANCH   7  22
ATOM     22  C   UNL     1       1.498   0.882  -2.664  0.00  0.00    +0.016 C 
ATOM     23  C   UNL     1       2.205   0.951  -3.814  0.00  0.00    +0.068 C 
BRANCH  23  24
ATOM     24  C   UNL     1       1.636   0.484  -5.026  0.00  0.00    +0.239 C 
ATOM     25  O   UNL     1       0.480   0.102  -5.048  0.00  0.00    -0.271 OA
ATOM     26  N   UNL     1       2.375   0.462  -6.153  0.00  0.00    -0.298 N 
ATOM     27  C   UNL     1       1.840  -0.129  -7.387  0.00  0.00    +0.108 C 
ATOM     28  C   UNL     1       1.959   0.906  -8.516  0.00  0.00    +0.019 C 
ATOM     29  C   UNL     1       3.412   1.373  -8.621  0.00  0.00    +0.003 C 
ATOM     30  C   UNL     1       3.832   2.040  -7.310  0.00  0.00    +0.019 C 
ATOM     31  C   UNL     1       3.732   1.023  -6.169  0.00  0.00    +0.108 C 
ENDBRANCH  23  24
ENDBRANCH   7  22
BRANCH   1  32
ATOM     32  O   UNL     1       1.223   2.013   4.648  0.00  0.00    -0.459 OA
BRANCH  32  33
ATOM     33  C   UNL     1       1.737   1.572   5.807  0.00  0.00    +0.308 C 
ATOM     34  O   UNL     1       2.816   1.028   5.821  0.00  0.00    -0.251 OA
BRANCH  33  35
ATOM     35  C   UNL     1       0.968   1.753   7.090  0.00  0.00    +0.123 C 
BRANCH  35  37
ATOM     36  C   UNL     1       3.061   1.967   8.438  0.00  0.00    +0.008 C 
ATOM     37  C   UNL     1       1.770   1.166   8.253  0.00  0.00    -0.007 C 
ATOM     38  C   UNL     1       0.937   1.238   9.534  0.00  0.00    +0.008 C 
ENDBRANCH  35  37
ENDBRANCH  33  35
ENDBRANCH  32  33
ENDBRANCH   1  32
TORSDOF 8
