REMARK  Name = ZINC60335829
REMARK  9 active torsions:
REMARK  status: ('A' for Active; 'I' for Inactive)
REMARK    1  A    between atoms: C_1  and  C_2
REMARK    2  A    between atoms: C_2  and  C_3
REMARK    3  A    between atoms: C_2  and  C_4
REMARK    4  A    between atoms: C_2  and  O_5
REMARK    5  A    between atoms: O_5  and  C_6
REMARK    6  A    between atoms: N_8  and  C_9
REMARK    7  A    between atoms: C_9  and  C_10
REMARK    8  A    between atoms: C_17  and  C_19
REMARK    9  A    between atoms: C_22  and  C_24
REMARK                            x       y       z     vdW  Elec       q    Type
REMARK                         _______ _______ _______ _____ _____    ______ ____
ROOT
ATOM      1  C   UNL     1       4.746  -0.554  -3.885  0.00  0.00    +0.094 C 
ATOM      2  C   UNL     1       6.099   0.164  -3.897  0.00  0.00    +0.024 C 
ATOM      3  C   UNL     1       6.791  -0.082  -5.239  0.00  0.00    +0.003 C 
ATOM      4  C   UNL     1       5.931   0.488  -6.370  0.00  0.00    +0.019 C 
ATOM      5  C   UNL     1       4.576  -0.227  -6.386  0.00  0.00    +0.108 C 
ATOM      6  N   UNL     1       3.967  -0.122  -5.053  0.00  0.00    -0.292 N 
ATOM      7  C   UNL     1       2.719   0.366  -4.904  0.00  0.00    +0.266 C 
ATOM      8  O   UNL     1       2.274   0.567  -3.790  0.00  0.00    -0.268 OA
ENDROOT
BRANCH   7   9
ATOM      9  C   UNL     1       1.895   0.654  -6.090  0.00  0.00    +0.133 A 
ATOM     10  C   UNL     1       0.703   1.315  -5.963  0.00  0.00    +0.080 A 
ATOM     11  S   UNL     1       0.160   1.399  -7.553  0.00  0.00    -0.074 S 
ATOM     12  C   UNL     1       1.526   0.558  -8.334  0.00  0.00    +0.116 A 
ATOM     13  N   UNL     1       2.301   0.282  -7.298  0.00  0.00    -0.234 NA
BRANCH  12  14
ATOM     14  C   UNL     1       1.738   0.256  -9.758  0.00  0.00    +0.046 A 
ATOM     15  C   UNL     1       0.939   0.554 -10.833  0.00  0.00    +0.019 A 
ATOM     16  C   UNL     1       1.348   0.166 -12.088  0.00  0.00    +0.028 A 
ATOM     17  C   UNL     1       2.528  -0.497 -12.225  0.00  0.00    +0.079 A 
ATOM     18  S   UNL     1       3.106  -0.586 -10.538  0.00  0.00    -0.075 S 
ATOM     19 CL   UNL     1       3.281  -1.097 -13.669  0.00  0.00    -0.076 Cl
ENDBRANCH  12  14
ENDBRANCH   7   9
BRANCH   1  20
ATOM     20  C   UNL     1       3.988  -0.200  -2.603  0.00  0.00    +0.130 C 
BRANCH  20  23
ATOM     21  C   UNL     1       2.076  -1.037  -1.347  0.00  0.00    +0.401 C 
ATOM     22  O   UNL     1       2.377  -0.283  -0.443  0.00  0.00    -0.226 OA
ATOM     23  N   UNL     1       2.818  -1.072  -2.471  0.00  0.00    -0.279 N 
ATOM     24  H   UNL     1       2.578  -1.674  -3.192  0.00  0.00    +0.152 HD
BRANCH  21  25
ATOM     25  O   UNL     1       1.001  -1.838  -1.225  0.00  0.00    -0.445 OA
BRANCH  25  27
ATOM     26  C   UNL     1      -0.268  -0.324   0.167  0.00  0.00    +0.055 C 
ATOM     27  C   UNL     1       0.260  -1.749  -0.006  0.00  0.00    +0.107 C 
ATOM     28  C   UNL     1       1.171  -2.102   1.171  0.00  0.00    +0.055 C 
ATOM     29  C   UNL     1      -0.916  -2.727  -0.052  0.00  0.00    +0.055 C 
ENDBRANCH  25  27
ENDBRANCH  21  25
ENDBRANCH  20  23
ENDBRANCH   1  20
TORSDOF 6
