REMARK  Name = ZINC13658781
REMARK  9 active torsions:
REMARK  status: ('A' for Active; 'I' for Inactive)
REMARK    1  A    between atoms: C_1  and  C_2
REMARK    2  A    between atoms: C_2  and  N_62
REMARK    3  A    between atoms: N_5  and  C_8
REMARK    4  A    between atoms: C_9  and  C_20
REMARK    5  A    between atoms: C_16  and  C_19
REMARK    6  A    between atoms: C_21  and  C_22
REMARK    7  A    between atoms: C_21  and  C_24
REMARK    8  A    between atoms: N_26  and  C_27
REMARK    9  A    between atoms: C_30  and  C_33
REMARK                            x       y       z     vdW  Elec       q    Type
REMARK                         _______ _______ _______ _____ _____    ______ ____
ROOT
ATOM      1  C   UNL     1       2.141   4.292   0.524  0.00  0.00    +0.136 A 
ATOM      2  C   UNL     1       3.288   3.572   0.102  0.00  0.00    +0.081 A 
ATOM      3  C   UNL     1       3.128   2.213  -0.275  0.00  0.00    +0.267 A 
ATOM      4  O   UNL     1       4.084   1.556  -0.645  0.00  0.00    -0.267 OA
ATOM      5  N   UNL     1       1.896   1.662  -0.215  0.00  0.00    -0.267 N 
ATOM      6  C   UNL     1       1.733   0.357  -0.575  0.00  0.00    +0.096 A 
ATOM      7  C   UNL     1       0.515  -0.227  -0.528  0.00  0.00    +0.019 A 
ATOM      8  C   UNL     1      -0.601   0.509  -0.106  0.00  0.00    +0.008 A 
ATOM      9  C   UNL     1      -0.448   1.815   0.255  0.00  0.00    -0.007 A 
ATOM     10  C   UNL     1       0.827   2.405   0.200  0.00  0.00    +0.145 A 
ATOM     11  N   UNL     1       0.966   3.683   0.556  0.00  0.00    -0.213 NA
ATOM     12  C   UNL     1      -1.638   2.622   0.705  0.00  0.00    +0.047 C 
ENDROOT
BRANCH   1  15
ATOM     13  C   UNL     1       1.083   7.696   1.437  0.00  0.00    -0.060 C 
ATOM     14  C   UNL     1       0.923   6.211   1.101  0.00  0.00    +0.088 C 
ATOM     15  N   UNL     1       2.249   5.612   0.898  0.00  0.00    -0.318 N 
ATOM     16  C   UNL     1       3.078   5.752   2.103  0.00  0.00    +0.088 C 
ATOM     17  C   UNL     1       3.238   7.237   2.439  0.00  0.00    -0.060 C 
ATOM     18  N   UNL     1       1.900   7.822   2.663  0.00  0.00    +0.382 N 
ATOM     19  H   UNL     1       1.437   7.314   3.425  0.00  0.00    -0.082 HD
BRANCH  18  21
ATOM     20  C   UNL     1       2.679   9.333   4.422  0.00  0.00    -0.017 C 
ATOM     21  C   UNL     1       2.027   9.245   3.041  0.00  0.00    -0.082 C 
ENDBRANCH  18  21
ENDBRANCH   1  15
BRANCH   2  22
ATOM     22  C   UNL     1       4.550   4.189   0.057  0.00  0.00    +0.040 C 
ATOM     23  C   UNL     1       4.734   5.341  -0.698  0.00  0.00    +0.114 C 
BRANCH  23  24
ATOM     24  C   UNL     1       6.036   6.013  -0.704  0.00  0.00    +0.259 C 
ATOM     25  O   UNL     1       6.957   5.563  -0.048  0.00  0.00    -0.269 OA
ATOM     26  N   UNL     1       6.214   7.131  -1.436  0.00  0.00    -0.281 N 
ATOM     27  H   UNL     1       5.505   7.448  -2.017  0.00  0.00    +0.155 HD
BRANCH  26  28
ATOM     28  C   UNL     1       7.421   7.833  -1.358  0.00  0.00    +0.034 A 
ATOM     29  C   UNL     1       7.427   9.219  -1.450  0.00  0.00    +0.023 A 
ATOM     30  C   UNL     1       8.620   9.910  -1.368  0.00  0.00    +0.005 A 
ATOM     31  C   UNL     1       9.809   9.223  -1.205  0.00  0.00    -0.050 A 
ATOM     32  C   UNL     1       9.807   7.843  -1.118  0.00  0.00    +0.005 A 
ATOM     33  C   UNL     1       8.617   7.146  -1.194  0.00  0.00    +0.023 A 
ATOM     34  C   UNL     1      11.109   9.979  -1.121  0.00  0.00    +0.044 C 
ENDBRANCH  26  28
ENDBRANCH  23  24
BRANCH  23  35
ATOM     35  C   UNL     1       3.650   5.871  -1.470  0.00  0.00    +0.104 C 
ATOM     36  N   UNL     1       2.791   6.292  -2.082  0.00  0.00    -0.191 NA
ENDBRANCH  23  35
ENDBRANCH   2  22
TORSDOF 6
