REMARK  Name = ZINC39711079
REMARK  14 active torsions:
REMARK  status: ('A' for Active; 'I' for Inactive)
REMARK    1  A    between atoms: C_1  and  C_2
REMARK    2  A    between atoms: C_2  and  C_3
REMARK    3  A    between atoms: C_3  and  C_4
REMARK    4  A    between atoms: C_3  and  C_5
REMARK    5  A    between atoms: C_3  and  N_6
REMARK    6  A    between atoms: C_7  and  C_12
REMARK    7  A    between atoms: C_12  and  C_14
REMARK    8  A    between atoms: C_12  and  N_28
REMARK    9  A    between atoms: C_19  and  C_27
REMARK   10  A    between atoms: C_21  and  C_26
REMARK   11  A    between atoms: N_28  and  C_29
REMARK   12  A    between atoms: N_28  and  C_36
REMARK   13  A    between atoms: C_29  and  C_30
REMARK   14  A    between atoms: C_36  and  C_37
REMARK                            x       y       z     vdW  Elec       q    Type
REMARK                         _______ _______ _______ _____ _____    ______ ____
ROOT
ATOM      1  C   UNL     1       0.614  -4.210  -4.615  0.00  0.00    -0.010 C 
ENDROOT
BRANCH   1   2
ATOM      2  C   UNL     1       0.124  -2.772  -4.795  0.00  0.00    +0.088 C 
ATOM      3  C   UNL     1       1.308  -1.928  -5.224  0.00  0.00    -0.006 C 
ATOM      4  C   UNL     1       1.635  -0.864  -4.437  0.00  0.00    -0.007 A 
ATOM      5  C   UNL     1       2.764   0.003  -4.777  0.00  0.00    +0.012 A 
ATOM      6  C   UNL     1       3.054   1.051  -3.963  0.00  0.00    -0.050 A 
ATOM      7  C   UNL     1       2.299   1.312  -2.819  0.00  0.00    +0.008 A 
ATOM      8  C   UNL     1       1.240   0.546  -2.448  0.00  0.00    -0.028 A 
ATOM      9  C   UNL     1       0.856  -0.565  -3.223  0.00  0.00    +0.043 A 
ATOM     10  N   UNL     1      -0.185  -1.309  -2.850  0.00  0.00    -0.284 N 
ATOM     11  C   UNL     1      -0.597  -2.365  -3.530  0.00  0.00    +0.223 C 
ATOM     12  O   UNL     1      -1.554  -3.007  -3.139  0.00  0.00    -0.275 OA
ATOM     13  C   UNL     1       0.471   0.888  -1.199  0.00  0.00    +0.046 C 
ATOM     14  C   UNL     1       4.214   1.950  -4.303  0.00  0.00    +0.044 C 
ATOM     15  H   UNL     1      -0.661  -1.065  -2.041  0.00  0.00    +0.155 HD
ENDBRANCH   1   2
BRANCH   1  17
ATOM     16  N   UNL     1       1.982  -5.638  -3.130  0.00  0.00    -0.211 N 
ATOM     17  C   UNL     1       1.698  -4.249  -3.535  0.00  0.00    +0.183 C 
ATOM     18  N   UNL     1       2.993  -3.792  -4.075  0.00  0.00    -0.229 N 
ATOM     19  N   UNL     1       3.865  -4.879  -3.947  0.00  0.00    -0.064 NA
ATOM     20  N   UNL     1       3.329  -5.860  -3.440  0.00  0.00    -0.061 NA
ATOM     21  H   UNL     1       3.197  -2.918  -4.442  0.00  0.00    +0.172 HD
BRANCH  16  22
ATOM     22  C   UNL     1       1.047  -6.589  -2.522  0.00  0.00    +0.050 C 
ATOM     23  C   UNL     1       0.112  -7.144  -3.598  0.00  0.00    +0.033 C 
ATOM     24  C   UNL     1       0.223  -5.877  -1.447  0.00  0.00    +0.033 C 
BRANCH  22  26
ATOM     25  C   UNL     1       0.854  -8.778  -1.333  0.00  0.00    +0.006 C 
ATOM     26  C   UNL     1       1.831  -7.738  -1.885  0.00  0.00    +0.023 C 
ENDBRANCH  22  26
ENDBRANCH  16  22
ENDBRANCH   1  17
BRANCH   1  27
ATOM     27  N   UNL     1       1.168  -4.702  -5.883  0.00  0.00    +0.390 N 
ATOM     28  H   UNL     1       2.010  -4.191  -6.103  0.00  0.00    -0.080 HD
BRANCH  27  29
ATOM     29  C   UNL     1       1.481  -6.132  -5.760  0.00  0.00    -0.042 C 
BRANCH  29  30
ATOM     30  C   UNL     1       2.148  -6.611  -7.023  0.00  0.00    -0.064 A 
ATOM     31  C   UNL     1       1.383  -7.099  -8.066  0.00  0.00    +0.002 A 
ATOM     32  C   UNL     1       1.996  -7.539  -9.225  0.00  0.00    +0.000 A 
ATOM     33  C   UNL     1       3.372  -7.490  -9.341  0.00  0.00    +0.000 A 
ATOM     34  C   UNL     1       4.137  -7.000  -8.298  0.00  0.00    +0.000 A 
ATOM     35  C   UNL     1       3.524  -6.557  -7.141  0.00  0.00    +0.002 A 
ENDBRANCH  29  30
ENDBRANCH  27  29
BRANCH  27  36
ATOM     36  C   UNL     1       0.183  -4.507  -6.956  0.00  0.00    -0.035 C 
BRANCH  36  37
ATOM     37  C   UNL     1       0.747  -3.567  -7.990  0.00  0.00    -0.027 A 
ATOM     38  C   UNL     1       1.623  -3.826  -8.992  0.00  0.00    +0.009 A 
ATOM     39  C   UNL     1       2.005  -2.797  -9.832  0.00  0.00    +0.008 A 
ATOM     40  C   UNL     1       1.492  -1.559  -9.629  0.00  0.00    +0.045 A 
ATOM     41  S   UNL     1       0.429  -1.825  -8.220  0.00  0.00    -0.103 S 
ENDBRANCH  36  37
ENDBRANCH  27  36
ENDBRANCH   1  27
TORSDOF 9
