REMARK  Name = ZINC64012555
REMARK  8 active torsions:
REMARK  status: ('A' for Active; 'I' for Inactive)
REMARK    1  A    between atoms: C_1  and  C_2
REMARK    2  A    between atoms: C_2  and  N_3
REMARK    3  A    between atoms: N_3  and  C_4
REMARK    4  A    between atoms: N_3  and  S_6
REMARK    5  A    between atoms: C_4  and  C_5
REMARK    6  A    between atoms: S_6  and  N_9
REMARK    7  A    between atoms: C_11  and  C_26
REMARK    8  A    between atoms: C_23  and  C_25
REMARK                            x       y       z     vdW  Elec       q    Type
REMARK                         _______ _______ _______ _____ _____    ______ ____
ROOT
ATOM      1  N   UNL     1       0.022   0.472  -4.018  0.00  0.00    -0.160 NA
ATOM      2  C   UNL     1      -1.111   1.396  -3.903  0.00  0.00    +0.123 C 
ATOM      3  C   UNL     1      -0.586   2.834  -3.743  0.00  0.00    +0.065 C 
ATOM      4  C   UNL     1       0.505   3.013  -4.769  0.00  0.00    -0.028 C 
ATOM      5  C   UNL     1       0.695   3.945  -5.695  0.00  0.00    -0.000 A 
ATOM      6  C   UNL     1      -0.021   5.197  -5.986  0.00  0.00    +0.010 A 
ATOM      7  C   UNL     1       0.439   5.920  -7.041  0.00  0.00    +0.001 A 
ATOM      8  C   UNL     1       1.526   5.527  -7.827  0.00  0.00    +0.002 A 
ATOM      9  C   UNL     1       2.249   4.396  -7.626  0.00  0.00    +0.026 A 
ATOM     10  C   UNL     1       1.866   3.557  -6.539  0.00  0.00    +0.043 A 
ATOM     11  N   UNL     1       2.387   2.445  -6.111  0.00  0.00    -0.376 N 
ATOM     12  C   UNL     1       1.657   2.025  -4.914  0.00  0.00    +0.125 C 
ATOM     13  C   UNL     1       1.027   0.643  -5.079  0.00  0.00    +0.104 C 
ATOM     14  C   UNL     1       0.355   0.544  -6.450  0.00  0.00    +0.028 C 
ATOM     15  H   UNL     1       3.132   1.974  -6.516  0.00  0.00    +0.160 HD
ENDROOT
BRANCH   3  16
ATOM     16  C   UNL     1      -0.029   3.028  -2.356  0.00  0.00    -0.021 A 
ATOM     17  C   UNL     1       1.022   2.244  -1.917  0.00  0.00    +0.006 A 
ATOM     18  C   UNL     1       1.533   2.422  -0.646  0.00  0.00    +0.000 A 
ATOM     19  C   UNL     1       0.994   3.384   0.189  0.00  0.00    +0.001 A 
ATOM     20  C   UNL     1      -0.056   4.168  -0.249  0.00  0.00    +0.020 A 
ATOM     21  C   UNL     1      -0.565   3.994  -1.524  0.00  0.00    +0.045 A 
ATOM     22 CL   UNL     1      -1.880   4.984  -2.076  0.00  0.00    -0.083 Cl
ENDBRANCH   3  16
BRANCH   1  23
ATOM     23  S   UNL     1       0.175  -0.774  -2.938  0.00  0.00    +0.100 S 
ATOM     24  O   UNL     1      -0.405  -0.329  -1.719  0.00  0.00    -0.141 OA
ATOM     25  O   UNL     1       1.522  -1.220  -3.021  0.00  0.00    -0.141 OA
BRANCH  23  26
ATOM     26  N   UNL     1      -0.770  -2.017  -3.486  0.00  0.00    -0.167 NA
BRANCH  26  28
ATOM     27  C   UNL     1      -0.999  -2.706  -5.822  0.00  0.00    +0.022 C 
ATOM     28  C   UNL     1      -0.255  -2.935  -4.505  0.00  0.00    +0.107 C 
ENDBRANCH  26  28
BRANCH  26  29
ATOM     29  C   UNL     1      -2.123  -2.200  -2.953  0.00  0.00    +0.107 C 
ATOM     30  C   UNL     1      -2.079  -3.175  -1.775  0.00  0.00    +0.022 C 
ENDBRANCH  26  29
ENDBRANCH  23  26
ENDBRANCH   1  23
TORSDOF 5
