REMARK  Name = ZINC33812565
REMARK  11 active torsions:
REMARK  status: ('A' for Active; 'I' for Inactive)
REMARK    1  A    between atoms: C_1  and  C_2
REMARK    2  A    between atoms: C_2  and  C_3
REMARK    3  A    between atoms: C_3  and  N_4
REMARK    4  A    between atoms: C_5  and  N_29
REMARK    5  A    between atoms: C_6  and  C_14
REMARK    6  A    between atoms: C_7  and  C_13
REMARK    7  A    between atoms: C_8  and  C_11
REMARK    8  A    between atoms: N_18  and  C_22
REMARK    9  A    between atoms: C_22  and  C_23
REMARK   10  A    between atoms: N_32  and  C_35
REMARK   11  A    between atoms: C_35  and  C_36
REMARK                            x       y       z     vdW  Elec       q    Type
REMARK                         _______ _______ _______ _____ _____    ______ ____
ROOT
ATOM      1  N   UNL     1       0.332  -2.181  -1.303  0.00  0.00    -0.295 N 
ATOM      2  C   UNL     1       1.462  -2.714  -0.771  0.00  0.00    +0.112 A 
ATOM      3  C   UNL     1       1.830  -4.038  -1.060  0.00  0.00    +0.019 A 
ATOM      4  C   UNL     1       1.020  -4.812  -1.907  0.00  0.00    -0.017 A 
ATOM      5  C   UNL     1      -0.133  -4.242  -2.440  0.00  0.00    +0.120 A 
ATOM      6  C   UNL     1      -0.464  -2.902  -2.113  0.00  0.00    +0.270 A 
ATOM      7  O   UNL     1      -1.474  -2.399  -2.572  0.00  0.00    -0.266 OA
ATOM      8  C   UNL     1       1.392  -6.235  -2.234  0.00  0.00    +0.046 C 
ENDROOT
BRANCH   3   9
ATOM      9  C   UNL     1       3.050  -4.607  -0.483  0.00  0.00    +0.032 C 
ATOM     10  C   UNL     1       2.968  -5.641   0.399  0.00  0.00    +0.077 C 
ATOM     11  C   UNL     1       4.013  -6.373   1.039  0.00  0.00    +0.258 C 
ATOM     12  O   UNL     1       5.183  -6.110   0.830  0.00  0.00    -0.269 OA
ATOM     13  N   UNL     1       3.671  -7.346   1.867  0.00  0.00    -0.253 N 
ATOM     14  C   UNL     1       2.372  -7.638   2.098  0.00  0.00    +0.121 C 
ATOM     15  S   UNL     1       1.709  -8.843   3.118  0.00  0.00    -0.027 S 
ATOM     16  S   UNL     1       1.522  -6.445   1.076  0.00  0.00    -0.061 S 
BRANCH  13  17
ATOM     17  C   UNL     1       4.716  -8.119   2.542  0.00  0.00    +0.146 C 
BRANCH  17  18
ATOM     18  C   UNL     1       5.065  -7.451   3.873  0.00  0.00    +0.136 C 
ATOM     19  C   UNL     1       6.195  -8.234   4.588  0.00  0.00    +0.035 C 
ATOM     20  C   UNL     1       6.808  -7.120   5.480  0.00  0.00    +0.031 C 
ATOM     21  C   UNL     1       6.641  -5.865   4.596  0.00  0.00    +0.160 C 
ATOM     22  O   UNL     1       5.602  -6.138   3.647  0.00  0.00    -0.375 OA
ENDBRANCH  17  18
ENDBRANCH  13  17
ENDBRANCH   3   9
BRANCH   2  23
ATOM     23  N   UNL     1       2.244  -1.957   0.051  0.00  0.00    -0.320 N 
ATOM     24  C   UNL     1       3.289  -1.079  -0.497  0.00  0.00    +0.088 C 
ATOM     25  C   UNL     1       4.599  -1.359   0.247  0.00  0.00    -0.060 C 
ATOM     26  N   UNL     1       4.382  -1.214   1.692  0.00  0.00    +0.382 N 
ATOM     27  C   UNL     1       3.436  -2.234   2.160  0.00  0.00    -0.060 C 
ATOM     28  C   UNL     1       2.064  -1.993   1.511  0.00  0.00    +0.088 C 
ATOM     29  H   UNL     1       4.008  -0.296   1.883  0.00  0.00    -0.082 HD
BRANCH  26  30
ATOM     30  C   UNL     1       5.661  -1.375   2.396  0.00  0.00    -0.082 C 
ATOM     31  C   UNL     1       5.460  -1.100   3.888  0.00  0.00    -0.017 C 
ENDBRANCH  26  30
ENDBRANCH   2  23
BRANCH   5  32
ATOM     32  C   UNL     1      -0.981  -5.004  -3.307  0.00  0.00    +0.105 C 
ATOM     33  N   UNL     1      -1.653  -5.608  -3.995  0.00  0.00    -0.191 NA
ENDBRANCH   5  32
BRANCH   1  34
ATOM     34  C   UNL     1      -0.029  -0.797  -0.986  0.00  0.00    +0.126 C 
BRANCH  34  36
ATOM     35  C   UNL     1      -1.390   0.663   0.518  0.00  0.00    +0.005 C 
ATOM     36  C   UNL     1      -1.012  -0.782   0.186  0.00  0.00    +0.018 C 
ENDBRANCH  34  36
ENDBRANCH   1  34
TORSDOF 8
