REMARK  Name = ZINC10055527
REMARK  9 active torsions:
REMARK  status: ('A' for Active; 'I' for Inactive)
REMARK    1  A    between atoms: C_1  and  C_2
REMARK    2  A    between atoms: N_10  and  C_14
REMARK    3  A    between atoms: C_14  and  C_15
REMARK    4  A    between atoms: C_15  and  O_17
REMARK    5  A    between atoms: O_17  and  C_18
REMARK    6  A    between atoms: C_18  and  C_20
REMARK    7  A    between atoms: C_18  and  C_21
REMARK    8  A    between atoms: N_23  and  C_24
REMARK    9  A    between atoms: C_24  and  C_30
REMARK                            x       y       z     vdW  Elec       q    Type
REMARK                         _______ _______ _______ _____ _____    ______ ____
ROOT
ATOM      1  C   UNL     1       5.237   2.618   2.678  0.00  0.00    +0.326 C 
ATOM      2  O   UNL     1       5.510   3.625   2.068  0.00  0.00    -0.249 OA
ENDROOT
BRANCH   1   3
ATOM      3  C   UNL     1       5.973   2.287   3.952  0.00  0.00    +0.238 C 
BRANCH   3  13
ATOM      4  C   UNL     1      10.949   8.277   5.786  0.00  0.00    +0.007 C 
ATOM      5  C   UNL     1       9.627   7.507   5.780  0.00  0.00    -0.014 C 
ATOM      6  C   UNL     1       9.140   7.342   4.339  0.00  0.00    +0.006 C 
ATOM      7  C   UNL     1       7.811   6.582   4.335  0.00  0.00    +0.035 C 
ATOM      8  C   UNL     1       8.002   5.215   4.984  0.00  0.00    +0.113 C 
ATOM      9  C   UNL     1       8.511   5.363   6.413  0.00  0.00    +0.035 C 
ATOM     10  C   UNL     1       9.837   6.128   6.409  0.00  0.00    +0.006 C 
ATOM     11  C   UNL     1       6.705   4.438   4.965  0.00  0.00    +0.247 C 
ATOM     12  O   UNL     1       5.659   4.742   5.496  0.00  0.00    -0.273 OA
ATOM     13  N   UNL     1       6.959   3.333   4.232  0.00  0.00    -0.213 N 
ATOM     14  C   UNL     1       8.225   3.310   3.798  0.00  0.00    +0.310 C 
ATOM     15  O   UNL     1       8.691   2.413   3.123  0.00  0.00    -0.252 OA
ATOM     16  N   UNL     1       8.923   4.392   4.191  0.00  0.00    -0.285 N 
ATOM     17  H   UNL     1       9.853   4.587   3.993  0.00  0.00    +0.151 HD
ENDBRANCH   3  13
ENDBRANCH   1   3
BRANCH   1  18
ATOM     18  O   UNL     1       4.280   1.795   2.223  0.00  0.00    -0.451 OA
BRANCH  18  19
ATOM     19  C   UNL     1       3.614   2.177   0.990  0.00  0.00    +0.259 C 
ATOM     20  C   UNL     1       4.368   1.583  -0.202  0.00  0.00    +0.062 C 
BRANCH  19  21
ATOM     21  C   UNL     1       2.200   1.655   1.001  0.00  0.00    +0.255 C 
ATOM     22  O   UNL     1       1.822   0.948   1.910  0.00  0.00    -0.272 OA
ATOM     23  N   UNL     1       1.357   1.975  -0.000  0.00  0.00    -0.294 N 
ATOM     24  H   UNL     1       1.659   2.541  -0.728  0.00  0.00    +0.150 HD
BRANCH  23  25
ATOM     25  C   UNL     1      -0.018   1.468   0.010  0.00  0.00    +0.121 C 
ATOM     26  C   UNL     1      -0.734   1.961   1.269  0.00  0.00    +0.041 C 
ATOM     27  C   UNL     1      -2.169   1.432   1.280  0.00  0.00    +0.003 C 
ATOM     28  C   UNL     1      -2.909   1.938   0.040  0.00  0.00    +0.000 C 
ATOM     29  C   UNL     1      -2.193   1.445  -1.219  0.00  0.00    +0.003 C 
ATOM     30  C   UNL     1      -0.758   1.975  -1.229  0.00  0.00    +0.041 C 
BRANCH  25  31
ATOM     31  C   UNL     1       0.002  -0.004   0.002  0.00  0.00    +0.088 C 
ATOM     32  N   UNL     1       0.018  -1.140  -0.004  0.00  0.00    -0.194 NA
ENDBRANCH  25  31
ENDBRANCH  23  25
ENDBRANCH  19  21
ENDBRANCH  18  19
ENDBRANCH   1  18
TORSDOF 7
