REMARK  Name = ZINC07036932
REMARK  8 active torsions:
REMARK  status: ('A' for Active; 'I' for Inactive)
REMARK    1  A    between atoms: C_1  and  C_2
REMARK    2  A    between atoms: C_2  and  C_4
REMARK    3  A    between atoms: C_2  and  O_19
REMARK    4  A    between atoms: N_6  and  N_7
REMARK    5  A    between atoms: N_7  and  C_8
REMARK    6  A    between atoms: C_9  and  C_13
REMARK    7  A    between atoms: C_13  and  C_15
REMARK    8  A    between atoms: O_19  and  C_20
REMARK                            x       y       z     vdW  Elec       q    Type
REMARK                         _______ _______ _______ _____ _____    ______ ____
ROOT
ATOM      1  C   UNL     1       2.010  -4.100   0.375  0.00  0.00    +0.269 C 
ATOM      2  O   UNL     1       3.210  -4.227   0.497  0.00  0.00    -0.270 OA
ATOM      3  N   UNL     1       1.493  -2.917  -0.012  0.00  0.00    -0.234 N 
ATOM      4  H   UNL     1       0.533  -2.815  -0.110  0.00  0.00    +0.173 HD
ENDROOT
BRANCH   1   6
ATOM      5  C   UNL     1       0.216  -4.943   1.865  0.00  0.00    +0.062 C 
ATOM      6  C   UNL     1       1.096  -5.265   0.656  0.00  0.00    +0.257 C 
BRANCH   6   7
ATOM      7  O   UNL     1       1.879  -6.428   0.933  0.00  0.00    -0.478 OA
BRANCH   7   8
ATOM      8  C   UNL     1       1.278  -7.634   0.753  0.00  0.00    +0.140 A 
ATOM      9  C   UNL     1      -0.069  -7.697   0.427  0.00  0.00    +0.048 A 
ATOM     10  C   UNL     1      -0.677  -8.924   0.241  0.00  0.00    +0.023 A 
ATOM     11  C   UNL     1       0.054 -10.089   0.389  0.00  0.00    +0.043 A 
ATOM     12  C   UNL     1       1.396 -10.030   0.719  0.00  0.00    +0.043 A 
ATOM     13  C   UNL     1       2.010  -8.804   0.901  0.00  0.00    +0.084 A 
ATOM     14 CL   UNL     1       3.694  -8.729   1.315  0.00  0.00    -0.080 Cl
ATOM     15 CL   UNL     1      -0.715 -11.629   0.160  0.00  0.00    -0.083 Cl
ENDBRANCH   7   8
ENDBRANCH   6   7
ENDBRANCH   1   6
BRANCH   3  16
ATOM     16  N   UNL     1       2.342  -1.833  -0.273  0.00  0.00    -0.268 N 
ATOM     17  H   UNL     1       3.304  -1.953  -0.244  0.00  0.00    +0.170 HD
BRANCH  16  18
ATOM     18  C   UNL     1       1.816  -0.611  -0.567  0.00  0.00    +0.029 C 
ATOM     19  C   UNL     1       2.541   0.482  -0.900  0.00  0.00    +0.022 C 
ATOM     20  C   UNL     1       1.627   1.658  -1.159  0.00  0.00    +0.041 C 
ATOM     21  C   UNL     1       0.226   1.038  -1.359  0.00  0.00    +0.011 C 
ATOM     22  C   UNL     1       0.341  -0.283  -0.568  0.00  0.00    +0.053 C 
BRANCH  19  23
ATOM     23  C   UNL     1       3.939   0.519  -0.991  0.00  0.00    +0.263 C 
ATOM     24  O   UNL     1       4.583  -0.506  -0.875  0.00  0.00    -0.283 OA
BRANCH  23  25
ATOM     25  C   UNL     1       4.644   1.829  -1.233  0.00  0.00    +0.455 C 
ATOM     26  F   UNL     1       5.375   1.752  -2.423  0.00  0.00    -0.163 F 
ATOM     27  F   UNL     1       3.699   2.856  -1.330  0.00  0.00    -0.163 F 
ATOM     28  F   UNL     1       5.513   2.094  -0.169  0.00  0.00    -0.163 F 
ENDBRANCH  23  25
ENDBRANCH  19  23
ENDBRANCH  16  18
ENDBRANCH   3  16
TORSDOF 7
