REMARK  Name = ZINC38576537
REMARK  6 active torsions:
REMARK  status: ('A' for Active; 'I' for Inactive)
REMARK    1  A    between atoms: C_1  and  C_2
REMARK    2  A    between atoms: C_4  and  C_25
REMARK    3  A    between atoms: C_29  and  O_31
REMARK    4  A    between atoms: O_31  and  C_32
REMARK    5  A    between atoms: C_32  and  C_33
REMARK    6  A    between atoms: C_32  and  C_34
REMARK                            x       y       z     vdW  Elec       q    Type
REMARK                         _______ _______ _______ _____ _____    ______ ____
ROOT
ATOM      1  C   UNL     1      -0.124   1.484  -0.418  0.00  0.00    +0.062 C 
ATOM      2  C   UNL     1      -0.116  -0.023  -0.432  0.00  0.00    +0.023 C 
ATOM      3  C   UNL     1      -1.169  -0.772  -0.137  0.00  0.00    +0.005 C 
ATOM      4  C   UNL     1      -2.506  -0.251   0.257  0.00  0.00    +0.108 C 
ATOM      5  S   UNL     1      -2.914  -0.620   1.972  0.00  0.00    -0.139 S 
ATOM      6  C   UNL     1      -3.124  -2.407   2.055  0.00  0.00    +0.165 C 
ATOM      7  C   UNL     1      -1.857  -3.131   1.768  0.00  0.00    +0.225 C 
ATOM      8  O   UNL     1      -1.669  -4.063   2.520  0.00  0.00    -0.275 OA
ATOM      9  N   UNL     1      -0.920  -2.994   0.908  0.00  0.00    -0.291 N 
ATOM     10  C   UNL     1      -0.738  -2.206  -0.273  0.00  0.00    +0.210 C 
ATOM     11  N   UNL     1       0.678  -2.150  -0.668  0.00  0.00    -0.213 N 
ATOM     12  N   UNL     1       0.987  -0.785  -0.759  0.00  0.00    -0.265 N 
ATOM     13  C   UNL     1       1.503  -3.191  -0.900  0.00  0.00    +0.150 C 
ATOM     14  N   UNL     1       1.082  -4.438  -0.789  0.00  0.00    -0.221 NA
ATOM     15  C   UNL     1       1.865  -5.501  -0.943  0.00  0.00    +0.225 C 
ATOM     16  N   UNL     1       3.190  -5.420  -0.904  0.00  0.00    -0.218 NA
ATOM     17  C   UNL     1       3.696  -4.198  -0.772  0.00  0.00    +0.164 C 
ATOM     18  N   UNL     1       4.760  -3.710  -0.207  0.00  0.00    -0.219 NA
ATOM     19  C   UNL     1       4.652  -2.388  -0.026  0.00  0.00    +0.218 C 
ATOM     20  N   UNL     1       3.598  -1.875  -0.598  0.00  0.00    -0.253 NA
ATOM     21  C   UNL     1       2.938  -2.977  -1.300  0.00  0.00    +0.239 C 
ATOM     22  H   UNL     1      -0.153  -3.557   1.101  0.00  0.00    +0.151 HD
ATOM     23  H   UNL     1       1.853  -0.428  -1.012  0.00  0.00    +0.170 HD
ENDROOT
BRANCH   4  24
ATOM     24  C   UNL     1      -2.522   1.244   0.064  0.00  0.00    -0.027 A 
ATOM     25  C   UNL     1      -2.864   1.778  -1.164  0.00  0.00    +0.005 A 
ATOM     26  C   UNL     1      -2.880   3.149  -1.344  0.00  0.00    +0.004 A 
ATOM     27  C   UNL     1      -2.554   3.988  -0.296  0.00  0.00    +0.045 A 
ATOM     28  C   UNL     1      -2.211   3.454   0.938  0.00  0.00    +0.121 A 
ATOM     29  C   UNL     1      -2.201   2.078   1.117  0.00  0.00    +0.050 A 
BRANCH  28  30
ATOM     30  O   UNL     1      -1.889   4.277   1.970  0.00  0.00    -0.489 OA
BRANCH  30  31
ATOM     31  C   UNL     1      -2.006   5.683   1.740  0.00  0.00    +0.167 C 
ATOM     32  C   UNL     1      -3.459   6.115   1.945  0.00  0.00    +0.051 C 
ATOM     33  C   UNL     1      -1.106   6.437   2.721  0.00  0.00    +0.051 C 
ENDBRANCH  30  31
ENDBRANCH  28  30
ENDBRANCH   4  24
TORSDOF 3
