REMARK  Name = ZINC08897766
REMARK  11 active torsions:
REMARK  status: ('A' for Active; 'I' for Inactive)
REMARK    1  A    between atoms: C_1  and  C_2
REMARK    2  A    between atoms: C_15  and  S_17
REMARK    3  A    between atoms: S_17  and  C_18
REMARK    4  A    between atoms: C_18  and  C_19
REMARK    5  A    between atoms: N_21  and  C_22
REMARK    6  A    between atoms: C_23  and  C_31
REMARK    7  A    between atoms: C_27  and  C_28
REMARK    8  A    between atoms: C_28  and  C_29
REMARK    9  A    between atoms: C_28  and  C_30
REMARK   10  A    between atoms: C_31  and  C_32
REMARK   11  A    between atoms: C_31  and  C_33
REMARK                            x       y       z     vdW  Elec       q    Type
REMARK                         _______ _______ _______ _____ _____    ______ ____
ROOT
ATOM      1  S   UNL     1      -3.454   0.188   0.281  0.00  0.00    -0.078 S 
ENDROOT
BRANCH   1  15
ATOM      2  C   UNL     1     -10.338  -3.266   7.048  0.00  0.00    +0.008 C 
ATOM      3  C   UNL     1      -9.548  -2.490   5.992  0.00  0.00    -0.009 C 
ATOM      4  C   UNL     1      -9.757  -3.130   4.617  0.00  0.00    +0.008 C 
ATOM      5  C   UNL     1      -9.179  -2.224   3.529  0.00  0.00    +0.037 C 
ATOM      6  C   UNL     1      -7.735  -1.884   3.886  0.00  0.00    -0.023 A 
ATOM      7  C   UNL     1      -7.282  -2.040   5.146  0.00  0.00    -0.004 A 
ATOM      8  S   UNL     1      -5.584  -1.533   5.092  0.00  0.00    -0.073 S 
ATOM      9  C   UNL     1      -5.487  -1.112   3.370  0.00  0.00    +0.117 A 
ATOM     10  C   UNL     1      -6.782  -1.381   2.895  0.00  0.00    +0.075 A 
ATOM     11  C   UNL     1      -7.000  -1.127   1.504  0.00  0.00    +0.261 A 
ATOM     12  O   UNL     1      -8.092  -1.332   1.002  0.00  0.00    -0.267 OA
ATOM     13  N   UNL     1      -5.982  -0.660   0.756  0.00  0.00    -0.301 N 
ATOM     14  H   UNL     1      -6.126  -0.487  -0.187  0.00  0.00    +0.171 HD
ATOM     15  C   UNL     1      -4.753  -0.425   1.301  0.00  0.00    +0.170 A 
ATOM     16  N   UNL     1      -4.524  -0.655   2.578  0.00  0.00    -0.216 NA
ATOM     17  C   UNL     1      -8.052  -2.534   6.333  0.00  0.00    +0.046 C 
ENDBRANCH   1  15
BRANCH   1  18
ATOM     18  C   UNL     1      -2.122   0.298   1.502  0.00  0.00    +0.173 C 
BRANCH  18  19
ATOM     19  C   UNL     1      -0.872   0.815   0.837  0.00  0.00    +0.228 C 
ATOM     20  O   UNL     1      -0.881   1.083  -0.346  0.00  0.00    -0.275 OA
ATOM     21  N   UNL     1       0.255   0.981   1.557  0.00  0.00    -0.284 N 
ATOM     22  H   UNL     1       0.280   0.711   2.488  0.00  0.00    +0.155 HD
BRANCH  21  23
ATOM     23  C   UNL     1       1.392   1.536   0.959  0.00  0.00    +0.040 A 
ATOM     24  C   UNL     1       1.329   2.797   0.382  0.00  0.00    -0.023 A 
ATOM     25  C   UNL     1       2.454   3.344  -0.203  0.00  0.00    +0.006 A 
ATOM     26  C   UNL     1       3.640   2.633  -0.224  0.00  0.00    +0.001 A 
ATOM     27  C   UNL     1       3.705   1.375   0.346  0.00  0.00    +0.006 A 
ATOM     28  C   UNL     1       2.584   0.824   0.937  0.00  0.00    -0.023 A 
BRANCH  28  29
ATOM     29  C   UNL     1       2.655  -0.548   1.556  0.00  0.00    +0.015 C 
ATOM     30  C   UNL     1       3.050  -1.570   0.488  0.00  0.00    +0.012 C 
ATOM     31  C   UNL     1       3.700  -0.549   2.674  0.00  0.00    +0.012 C 
ENDBRANCH  28  29
BRANCH  24  32
ATOM     32  C   UNL     1       0.035   3.570   0.398  0.00  0.00    +0.015 C 
ATOM     33  C   UNL     1      -0.065   4.369   1.699  0.00  0.00    +0.012 C 
ATOM     34  C   UNL     1      -0.000   4.529  -0.794  0.00  0.00    +0.012 C 
ENDBRANCH  24  32
ENDBRANCH  21  23
ENDBRANCH  18  19
ENDBRANCH   1  18
TORSDOF 6
