REMARK  Name = ZINC12150073
REMARK  8 active torsions:
REMARK  status: ('A' for Active; 'I' for Inactive)
REMARK    1  A    between atoms: C_1  and  C_2
REMARK    2  A    between atoms: C_2  and  C_3
REMARK    3  A    between atoms: C_4  and  C_18
REMARK    4  A    between atoms: C_8  and  C_17
REMARK    5  A    between atoms: N_9  and  C_10
REMARK    6  A    between atoms: C_10  and  C_11
REMARK    7  A    between atoms: C_14  and  C_16
REMARK    8  A    between atoms: C_25  and  N_70
REMARK                            x       y       z     vdW  Elec       q    Type
REMARK                         _______ _______ _______ _____ _____    ______ ____
ROOT
ATOM      1  C   UNL     1      -3.462   0.249  -3.375  0.00  0.00    +0.252 C 
ATOM      2  O   UNL     1      -3.505  -0.564  -4.278  0.00  0.00    -0.270 OA
ATOM      3  N   UNL     1      -4.569   0.510  -2.651  0.00  0.00    -0.301 N 
ATOM      4  C   UNL     1      -4.538   1.485  -1.550  0.00  0.00    +0.089 C 
ATOM      5  C   UNL     1      -5.694   2.478  -1.754  0.00  0.00    -0.059 C 
ATOM      6  C   UNL     1      -6.940   0.877  -3.082  0.00  0.00    -0.059 C 
ATOM      7  C   UNL     1      -5.838  -0.177  -2.937  0.00  0.00    +0.089 C 
ATOM      8  N   UNL     1      -6.957   1.717  -1.865  0.00  0.00    +0.384 N 
ATOM      9  H   UNL     1      -7.053   1.109  -1.042  0.00  0.00    -0.081 HD
ENDROOT
BRANCH   8  10
ATOM     10  C   UNL     1      -8.104   2.647  -1.910  0.00  0.00    -0.064 C 
ATOM     11  C   UNL     1      -9.406   1.839  -1.867  0.00  0.00    -0.010 C 
ATOM     12  C   UNL     1     -10.567   2.807  -1.648  0.00  0.00    +0.034 C 
ATOM     13  C   UNL     1     -10.508   3.938  -2.641  0.00  0.00    -0.044 A 
ATOM     14  C   UNL     1     -11.660   4.691  -2.831  0.00  0.00    +0.004 A 
ATOM     15  C   UNL     1     -11.669   5.745  -3.721  0.00  0.00    +0.000 A 
ATOM     16  C   UNL     1     -10.523   6.055  -4.430  0.00  0.00    +0.000 A 
ATOM     17  C   UNL     1      -9.379   5.307  -4.244  0.00  0.00    +0.004 A 
ATOM     18  C   UNL     1      -9.368   4.244  -3.349  0.00  0.00    -0.046 A 
ATOM     19  C   UNL     1      -8.087   3.467  -3.198  0.00  0.00    +0.020 C 
ENDBRANCH   8  10
BRANCH   1  21
ATOM     20  C   UNL     1      -1.299   0.422  -2.171  0.00  0.00    +0.035 A 
ATOM     21  C   UNL     1      -2.202   0.948  -3.072  0.00  0.00    +0.103 A 
ATOM     22  C   UNL     1      -1.870   2.223  -3.726  0.00  0.00    +0.194 A 
ATOM     23  O   UNL     1      -2.629   2.732  -4.535  0.00  0.00    -0.287 OA
ATOM     24  C   UNL     1      -0.641   2.841  -3.387  0.00  0.00    +0.072 A 
ATOM     25  C   UNL     1       0.171   2.247  -2.489  0.00  0.00    +0.020 A 
ATOM     26  N   UNL     1      -0.155   1.071  -1.898  0.00  0.00    -0.340 N 
ATOM     27  C   UNL     1       1.477   2.909  -2.132  0.00  0.00    +0.063 C 
BRANCH  20  29
ATOM     28  C   UNL     1      -2.239  -0.610  -0.121  0.00  0.00    +0.010 C 
ATOM     29  C   UNL     1      -1.601  -0.885  -1.484  0.00  0.00    +0.051 C 
ENDBRANCH  20  29
BRANCH  26  30
ATOM     30  C   UNL     1       0.776   0.484  -0.932  0.00  0.00    +0.196 C 
BRANCH  30  31
ATOM     31  C   UNL     1       1.824  -0.314  -1.665  0.00  0.00    +0.125 A 
ATOM     32  C   UNL     1       3.050   0.122  -2.004  0.00  0.00    +0.047 A 
ATOM     33  C   UNL     1       3.694  -0.945  -2.672  0.00  0.00    +0.045 A 
ATOM     34  C   UNL     1       2.821  -1.969  -2.702  0.00  0.00    +0.102 A 
ATOM     35  O   UNL     1       1.693  -1.583  -2.085  0.00  0.00    -0.463 OA
ATOM     36  C   UNL     1       3.071  -3.322  -3.317  0.00  0.00    +0.086 C 
ENDBRANCH  30  31
ENDBRANCH  26  30
ENDBRANCH   1  21
TORSDOF 5
