REMARK  Name = ZINC09951836
REMARK  7 active torsions:
REMARK  status: ('A' for Active; 'I' for Inactive)
REMARK    1  A    between atoms: C_5  and  C_7
REMARK    2  A    between atoms: C_7  and  N_8
REMARK    3  A    between atoms: N_8  and  C_9
REMARK    4  A    between atoms: C_12  and  C_14
REMARK    5  A    between atoms: C_14  and  N_53
REMARK    6  A    between atoms: N_17  and  S_20
REMARK    7  A    between atoms: S_20  and  C_23
REMARK                            x       y       z     vdW  Elec       q    Type
REMARK                         _______ _______ _______ _____ _____    ______ ____
ROOT
ATOM      1  C   UNL     1       3.265   2.919  -1.314  0.00  0.00    +0.019 C 
ENDROOT
BRANCH   1   7
ATOM      2  C   UNL     1       3.698   2.017  -3.519  0.00  0.00    -0.061 C 
ATOM      3  C   UNL     1       3.840   2.395  -4.997  0.00  0.00    +0.091 C 
ATOM      4  N   UNL     1       4.957   3.344  -5.131  0.00  0.00    -0.180 NA
ATOM      5  C   UNL     1       4.973   4.527  -4.258  0.00  0.00    +0.091 C 
ATOM      6  C   UNL     1       4.786   4.065  -2.809  0.00  0.00    -0.061 C 
ATOM      7  N   UNL     1       3.551   3.256  -2.724  0.00  0.00    +0.387 N 
ATOM      8  H   UNL     1       2.768   3.803  -3.102  0.00  0.00    -0.081 HD
BRANCH   4   9
ATOM      9  S   UNL     1       6.163   3.086  -6.236  0.00  0.00    +0.067 S 
ATOM     10  O   UNL     1       5.614   2.254  -7.249  0.00  0.00    -0.152 OA
ATOM     11  O   UNL     1       6.732   4.357  -6.520  0.00  0.00    -0.152 OA
BRANCH   9  12
ATOM     12  C   UNL     1       7.414   2.142  -5.431  0.00  0.00    +0.143 A 
ATOM     13  C   UNL     1       7.544   0.795  -5.345  0.00  0.00    +0.036 A 
ATOM     14  C   UNL     1       8.621   0.269  -4.657  0.00  0.00    +0.010 A 
ATOM     15  C   UNL     1       9.509   1.115  -4.080  0.00  0.00    +0.047 A 
ATOM     16  S   UNL     1       8.834   2.710  -4.511  0.00  0.00    -0.077 S 
ENDBRANCH   9  12
ENDBRANCH   4   9
ENDBRANCH   1   7
BRANCH   1  18
ATOM     17  N   UNL     1       1.447   1.805  -0.059  0.00  0.00    -0.296 N 
ATOM     18  C   UNL     1       1.898   2.289  -1.234  0.00  0.00    +0.200 C 
ATOM     19  O   UNL     1       1.205   2.216  -2.226  0.00  0.00    -0.278 OA
BRANCH  17  20
ATOM     20  C   UNL     1       0.090   1.260   0.035  0.00  0.00    +0.076 C 
ATOM     21  C   UNL     1      -0.618   0.896  -1.271  0.00  0.00    +0.024 C 
ATOM     22  C   UNL     1      -1.058   2.129  -0.480  0.00  0.00    +0.024 C 
ENDBRANCH  17  20
BRANCH  17  23
ATOM     23  C   UNL     1       2.313   1.825   1.122  0.00  0.00    +0.146 C 
BRANCH  23  28
ATOM     24  C   UNL     1       2.842   5.339   2.397  0.00  0.00    +0.000 A 
ATOM     25  C   UNL     1       1.754   5.497   3.236  0.00  0.00    +0.003 A 
ATOM     26  C   UNL     1       0.846   4.468   3.391  0.00  0.00    +0.038 A 
ATOM     27  C   UNL     1       1.026   3.277   2.706  0.00  0.00    +0.128 A 
ATOM     28  C   UNL     1       2.115   3.120   1.868  0.00  0.00    +0.005 A 
ATOM     29  C   UNL     1       3.026   4.149   1.718  0.00  0.00    +0.008 A 
ATOM     30  F   UNL     1       0.138   2.270   2.858  0.00  0.00    -0.205 F 
ENDBRANCH  23  28
ENDBRANCH  17  23
ENDBRANCH   1  18
TORSDOF 7
