REMARK  Name = ZINC04235333
REMARK  11 active torsions:
REMARK  status: ('A' for Active; 'I' for Inactive)
REMARK    1  A    between atoms: C_1  and  C_2
REMARK    2  A    between atoms: C_2  and  C_41
REMARK    3  A    between atoms: C_5  and  N_38
REMARK    4  A    between atoms: N_9  and  C_37
REMARK    5  A    between atoms: C_10  and  C_11
REMARK    6  A    between atoms: C_12  and  C_13
REMARK    7  A    between atoms: C_16  and  C_17
REMARK    8  A    between atoms: C_19  and  C_31
REMARK    9  A    between atoms: C_19  and  C_32
REMARK   10  A    between atoms: C_22  and  N_28
REMARK   11  A    between atoms: N_26  and  C_27
REMARK                            x       y       z     vdW  Elec       q    Type
REMARK                         _______ _______ _______ _____ _____    ______ ____
ROOT
ATOM      1  C   UNL     1       8.981   2.002   0.202  0.00  0.00    -0.029 C 
ATOM      2  C   UNL     1       7.580   2.093   0.187  0.00  0.00    +0.047 C 
ATOM      3  C   UNL     1       6.943   3.311   0.217  0.00  0.00    -0.029 C 
ATOM      4  C   UNL     1       5.536   3.359   0.204  0.00  0.00    +0.006 C 
ATOM      5  C   UNL     1       7.730   4.594   0.259  0.00  0.00    +0.037 C 
ATOM      6  C   UNL     1       9.058   4.350   0.987  0.00  0.00    +0.009 C 
ATOM      7  C   UNL     1       9.828   3.247   0.254  0.00  0.00    +0.037 C 
ATOM      8 CL   UNL     1       6.634   0.638   0.128  0.00  0.00    -0.083 Cl
ENDROOT
BRANCH   4   9
ATOM      9  C   UNL     1       4.805   2.304   0.709  0.00  0.00    +0.020 C 
ATOM     10  C   UNL     1       3.416   2.292   0.579  0.00  0.00    +0.021 C 
ATOM     11  C   UNL     1       2.566   3.355  -0.087  0.00  0.00    +0.030 C 
ATOM     12  C   UNL     1       1.155   2.835   0.058  0.00  0.00    -0.013 A 
ATOM     13  C   UNL     1      -0.070   3.325  -0.331  0.00  0.00    +0.039 A 
ATOM     14  C   UNL     1      -1.222   2.608  -0.051  0.00  0.00    +0.127 A 
ATOM     15  C   UNL     1      -1.135   1.398   0.614  0.00  0.00    +0.034 A 
ATOM     16  C   UNL     1       0.091   0.906   1.011  0.00  0.00    +0.026 A 
ATOM     17  C   UNL     1       1.256   1.623   0.733  0.00  0.00    +0.038 A 
ATOM     18  N   UNL     1       2.586   1.342   1.018  0.00  0.00    -0.306 N 
ATOM     19  C   UNL     1       3.030   0.137   1.723  0.00  0.00    +0.135 C 
ATOM     20  C   UNL     1       2.938   3.491  -1.565  0.00  0.00    +0.022 C 
ATOM     21  C   UNL     1       2.722   4.696   0.633  0.00  0.00    +0.022 C 
BRANCH  14  22
ATOM     22  N   UNL     1      -2.542   3.132  -0.468  0.00  0.00    +0.056 N 
ATOM     23  O   UNL     1      -2.622   4.281  -1.106  0.00  0.00    -0.126 OA
ATOM     24  O   UNL     1      -3.635   2.449  -0.202  0.00  0.00    -0.126 OA
ENDBRANCH  14  22
ENDBRANCH   4   9
BRANCH   1  26
ATOM     25  C   UNL     1      10.977   0.661   0.184  0.00  0.00    +0.022 C 
ATOM     26  C   UNL     1       9.590   0.757   0.169  0.00  0.00    +0.007 C 
BRANCH  25  36
ATOM     27  C   UNL     1      10.061  -2.229   1.157  0.00  0.00    +0.022 C 
ATOM     28  C   UNL     1      10.894  -1.930  -0.091  0.00  0.00    +0.032 C 
ATOM     29  C   UNL     1      12.044  -2.904  -0.213  0.00  0.00    -0.010 A 
ATOM     30  C   UNL     1      12.124  -4.263  -0.359  0.00  0.00    +0.039 A 
ATOM     31  C   UNL     1      13.366  -4.878  -0.445  0.00  0.00    +0.127 A 
ATOM     32  C   UNL     1      14.524  -4.119  -0.382  0.00  0.00    +0.035 A 
ATOM     33  C   UNL     1      14.460  -2.753  -0.235  0.00  0.00    +0.028 A 
ATOM     34  C   UNL     1      13.206  -2.114  -0.147  0.00  0.00    +0.046 A 
ATOM     35  N   UNL     1      12.882  -0.819  -0.009  0.00  0.00    -0.346 N 
ATOM     36  C   UNL     1      11.596  -0.592   0.041  0.00  0.00    +0.029 C 
ATOM     37  C   UNL     1      13.882   0.248   0.082  0.00  0.00    +0.149 C 
ATOM     38  C   UNL     1      10.021  -1.962  -1.347  0.00  0.00    +0.022 C 
BRANCH  31  39
ATOM     39  N   UNL     1      13.453  -6.348  -0.603  0.00  0.00    +0.056 N 
ATOM     40  O   UNL     1      14.630  -6.933  -0.684  0.00  0.00    -0.126 OA
ATOM     41  O   UNL     1      12.353  -7.070  -0.662  0.00  0.00    -0.126 OA
ENDBRANCH  31  39
ENDBRANCH  25  36
ENDBRANCH   1  26
TORSDOF 5
