REMARK  Name = ZINC03229588
REMARK  7 active torsions:
REMARK  status: ('A' for Active; 'I' for Inactive)
REMARK    1  A    between atoms: C_1  and  C_2
REMARK    2  A    between atoms: C_9  and  N_14
REMARK    3  A    between atoms: C_10  and  C_11
REMARK    4  A    between atoms: C_15  and  C_17
REMARK    5  A    between atoms: C_18  and  C_19
REMARK    6  A    between atoms: N_21  and  C_30
REMARK    7  A    between atoms: C_23  and  C_24
REMARK                            x       y       z     vdW  Elec       q    Type
REMARK                         _______ _______ _______ _____ _____    ______ ____
ROOT
ATOM      1  N   UNL     1      -2.298  -2.802   0.009  0.00  0.00    -0.276 N 
ATOM      2  C   UNL     1      -1.140  -2.113   0.002  0.00  0.00    +0.241 C 
ATOM      3  O   UNL     1      -0.078  -2.707  -0.012  0.00  0.00    -0.270 OA
ATOM      4  H   UNL     1      -3.145  -2.329   0.020  0.00  0.00    +0.156 HD
ENDROOT
BRANCH   1  12
ATOM      5  C   UNL     1      -1.758 -10.604   0.056  0.00  0.00    +0.008 C 
ATOM      6  C   UNL     1      -2.243  -9.184   0.354  0.00  0.00    -0.009 C 
ATOM      7  C   UNL     1      -3.499  -8.886  -0.469  0.00  0.00    +0.008 C 
ATOM      8  C   UNL     1      -4.130  -7.574   0.000  0.00  0.00    +0.037 C 
ATOM      9  C   UNL     1      -3.061  -6.487  -0.004  0.00  0.00    -0.023 A 
ATOM     10  C   UNL     1      -1.748  -6.803  -0.017  0.00  0.00    -0.004 A 
ATOM     11  S   UNL     1      -0.907  -5.245  -0.025  0.00  0.00    -0.077 S 
ATOM     12  C   UNL     1      -2.279  -4.187   0.001  0.00  0.00    +0.085 A 
ATOM     13  C   UNL     1      -3.355  -5.064   0.007  0.00  0.00    +0.068 A 
ATOM     14  C   UNL     1      -1.149  -8.176  -0.029  0.00  0.00    +0.046 C 
BRANCH  13  15
ATOM     15  C   UNL     1      -4.736  -4.574   0.023  0.00  0.00    +0.244 C 
ATOM     16  O   UNL     1      -5.320  -4.364  -1.024  0.00  0.00    -0.270 OA
ATOM     17  N   UNL     1      -5.360  -4.354   1.198  0.00  0.00    -0.325 N 
ATOM     18  H   UNL     1      -4.894  -4.521   2.032  0.00  0.00    +0.145 HD
ATOM     19  H   UNL     1      -6.274  -4.029   1.209  0.00  0.00    +0.145 HD
ENDBRANCH  13  15
ENDBRANCH   1  12
BRANCH   2  20
ATOM     20  C   UNL     1      -1.159  -0.696   0.009  0.00  0.00    +0.068 C 
ATOM     21  C   UNL     1       0.002  -0.004   0.002  0.00  0.00    +0.016 C 
BRANCH  21  22
ATOM     22  C   UNL     1      -0.018   1.463   0.010  0.00  0.00    +0.021 A 
ATOM     23  C   UNL     1      -1.135   2.277   0.019  0.00  0.00    +0.123 A 
ATOM     24  N   UNL     1      -0.714   3.555   0.027  0.00  0.00    -0.239 N 
ATOM     25  N   UNL     1       0.683   3.589   0.014  0.00  0.00    -0.166 NA
ATOM     26  C   UNL     1       1.145   2.359   0.004  0.00  0.00    +0.100 A 
BRANCH  26  27
ATOM     27  C   UNL     1       2.570   1.953  -0.012  0.00  0.00    +0.003 A 
ATOM     28  C   UNL     1       2.980   0.811   0.675  0.00  0.00    +0.010 A 
ATOM     29  C   UNL     1       4.308   0.435   0.653  0.00  0.00    +0.001 A 
ATOM     30  C   UNL     1       5.233   1.195  -0.039  0.00  0.00    +0.000 A 
ATOM     31  C   UNL     1       4.833   2.332  -0.719  0.00  0.00    +0.001 A 
ATOM     32  C   UNL     1       3.507   2.714  -0.708  0.00  0.00    +0.010 A 
ENDBRANCH  26  27
BRANCH  24  33
ATOM     33  C   UNL     1      -1.549   4.679   0.040  0.00  0.00    +0.065 A 
ATOM     34  C   UNL     1      -2.929   4.522   0.045  0.00  0.00    +0.028 A 
ATOM     35  C   UNL     1      -3.749   5.633   0.064  0.00  0.00    +0.002 A 
ATOM     36  C   UNL     1      -3.198   6.901   0.065  0.00  0.00    +0.000 A 
ATOM     37  C   UNL     1      -1.824   7.061   0.054  0.00  0.00    +0.002 A 
ATOM     38  C   UNL     1      -0.999   5.954   0.041  0.00  0.00    +0.028 A 
ENDBRANCH  24  33
ENDBRANCH  21  22
ENDBRANCH   2  20
TORSDOF 6
