REMARK  Name = ZINC06233139
REMARK  6 active torsions:
REMARK  status: ('A' for Active; 'I' for Inactive)
REMARK    1  A    between atoms: C_1  and  C_2
REMARK    2  A    between atoms: C_4  and  C_27
REMARK    3  A    between atoms: C_14  and  S_16
REMARK    4  A    between atoms: S_16  and  C_17
REMARK    5  A    between atoms: C_17  and  C_18
REMARK    6  A    between atoms: C_24  and  C_26
REMARK                            x       y       z     vdW  Elec       q    Type
REMARK                         _______ _______ _______ _____ _____    ______ ____
ROOT
ATOM      1  C   UNL     1      11.409   5.536  -0.076  0.00  0.00    +0.044 C 
ATOM      2  C   UNL     1       9.953   5.144  -0.065  0.00  0.00    -0.048 A 
ATOM      3  C   UNL     1       8.977   6.128  -0.051  0.00  0.00    +0.007 A 
ATOM      4  C   UNL     1       7.643   5.782  -0.041  0.00  0.00    -0.039 A 
ATOM      5  C   UNL     1       7.277   4.438  -0.045  0.00  0.00    +0.032 A 
ATOM      6  C   UNL     1       8.264   3.440  -0.059  0.00  0.00    +0.051 A 
ATOM      7  C   UNL     1       9.605   3.810  -0.070  0.00  0.00    +0.029 A 
ATOM      8  N   UNL     1       7.638   2.204  -0.060  0.00  0.00    -0.338 N 
ATOM      9  H   UNL     1       8.239   1.283  -0.070  0.00  0.00    +0.167 HD
ATOM     10  C   UNL     1       6.274   2.359  -0.046  0.00  0.00    +0.162 A 
ATOM     11  C   UNL     1       5.980   3.739  -0.036  0.00  0.00    +0.138 A 
ATOM     12  N   UNL     1       4.717   4.136  -0.022  0.00  0.00    -0.143 NA
ATOM     13  N   UNL     1       3.765   3.266  -0.022  0.00  0.00    -0.122 NA
ATOM     14  C   UNL     1       4.017   1.961  -0.026  0.00  0.00    +0.212 A 
ATOM     15  N   UNL     1       5.260   1.499  -0.040  0.00  0.00    -0.201 NA
ATOM     16  C   UNL     1       6.584   6.853  -0.026  0.00  0.00    +0.044 C 
ENDROOT
BRANCH  14  17
ATOM     17  S   UNL     1       2.672   0.823  -0.019  0.00  0.00    -0.075 S 
BRANCH  17  18
ATOM     18  C   UNL     1       1.280   1.980   0.001  0.00  0.00    +0.173 C 
BRANCH  18  19
ATOM     19  C   UNL     1      -0.014   1.209   0.009  0.00  0.00    +0.229 C 
ATOM     20  O   UNL     1       0.002  -0.004   0.002  0.00  0.00    -0.275 OA
ATOM     21  N   UNL     1      -1.191   1.867   0.018  0.00  0.00    -0.263 N 
ATOM     22  C   UNL     1      -2.385   1.155   0.020  0.00  0.00    +0.188 A 
ATOM     23  N   UNL     1      -2.588  -0.151   0.014  0.00  0.00    -0.126 NA
ATOM     24  N   UNL     1      -3.749  -0.646   0.017  0.00  0.00    -0.145 NA
ATOM     25  C   UNL     1      -4.812   0.133   0.025  0.00  0.00    +0.101 A 
ATOM     26  S   UNL     1      -4.024   1.739   0.038  0.00  0.00    -0.036 S 
ATOM     27  C   UNL     1      -6.275  -0.226   0.030  0.00  0.00    +0.075 C 
ATOM     28  H   UNL     1      -1.206   2.966   0.024  0.00  0.00    +0.157 HD
ENDBRANCH  18  19
ENDBRANCH  17  18
ENDBRANCH  14  17
TORSDOF 3
