REMARK  Name = ZINC48250315
REMARK  12 active torsions:
REMARK  status: ('A' for Active; 'I' for Inactive)
REMARK    1  A    between atoms: C_1  and  C_2
REMARK    2  A    between atoms: C_2  and  N_3
REMARK    3  A    between atoms: N_3  and  C_4
REMARK    4  A    between atoms: N_3  and  S_6
REMARK    5  A    between atoms: C_4  and  C_5
REMARK    6  A    between atoms: S_6  and  C_9
REMARK    7  A    between atoms: N_14  and  C_16
REMARK    8  A    between atoms: C_16  and  C_17
REMARK    9  A    between atoms: N_19  and  C_20
REMARK   10  A    between atoms: C_20  and  C_21
REMARK   11  A    between atoms: C_21  and  N_22
REMARK   12  A    between atoms: C_27  and  C_29
REMARK                            x       y       z     vdW  Elec       q    Type
REMARK                         _______ _______ _______ _____ _____    ______ ____
ROOT
ATOM      1  C   UNL     1      -0.337   0.586  -3.526  0.00  0.00    +0.122 A 
ATOM      2  C   UNL     1      -1.138   1.647  -3.081  0.00  0.00    +0.035 A 
ATOM      3  C   UNL     1      -1.243   2.770  -3.847  0.00  0.00    +0.072 A 
ATOM      4  C   UNL     1      -0.546   2.839  -5.066  0.00  0.00    +0.252 A 
ATOM      5  O   UNL     1      -0.631   3.838  -5.761  0.00  0.00    -0.268 OA
ATOM      6  N   UNL     1       0.215   1.803  -5.466  0.00  0.00    -0.305 N 
ATOM      7  C   UNL     1       0.325   0.686  -4.702  0.00  0.00    +0.118 A 
ENDROOT
BRANCH   1   8
ATOM      8  S   UNL     1      -0.188  -0.875  -2.551  0.00  0.00    +0.062 S 
ATOM      9  O   UNL     1       0.610  -1.782  -3.300  0.00  0.00    -0.153 OA
ATOM     10  O   UNL     1      -1.496  -1.201  -2.104  0.00  0.00    -0.153 OA
BRANCH   8  11
ATOM     11  N   UNL     1       0.688  -0.476  -1.203  0.00  0.00    -0.177 NA
BRANCH  11  13
ATOM     12  C   UNL     1      -0.019   1.526   0.010  0.00  0.00    +0.022 C 
ATOM     13  C   UNL     1       0.002  -0.004   0.002  0.00  0.00    +0.106 C 
ENDBRANCH  11  13
BRANCH  11  14
ATOM     14  C   UNL     1       2.148  -0.597  -1.216  0.00  0.00    +0.106 C 
ATOM     15  C   UNL     1       2.553  -1.951  -0.632  0.00  0.00    +0.022 C 
ENDBRANCH  11  14
ENDBRANCH   8  11
ENDBRANCH   1   8
BRANCH   6  16
ATOM     16  C   UNL     1       0.937   1.884  -6.738  0.00  0.00    +0.220 C 
BRANCH  16  17
ATOM     17  C   UNL     1       2.304   2.474  -6.503  0.00  0.00    +0.233 C 
ATOM     18  O   UNL     1       2.641   2.796  -5.384  0.00  0.00    -0.274 OA
ATOM     19  N   UNL     1       3.151   2.645  -7.538  0.00  0.00    -0.316 N 
ATOM     20  H   UNL     1       2.881   2.388  -8.433  0.00  0.00    +0.149 HD
BRANCH  19  21
ATOM     21  C   UNL     1       4.479   3.219  -7.309  0.00  0.00    +0.086 C 
BRANCH  21  22
ATOM     22  C   UNL     1       5.233   3.304  -8.638  0.00  0.00    -0.059 C 
BRANCH  22  23
ATOM     23  N   UNL     1       6.565   3.880  -8.409  0.00  0.00    +0.382 N 
ATOM     24  C   UNL     1       6.425   5.265  -7.944  0.00  0.00    -0.078 C 
ATOM     25  C   UNL     1       7.806   5.843  -7.627  0.00  0.00    -0.019 C 
ATOM     26  C   UNL     1       8.668   5.812  -8.891  0.00  0.00    -0.003 C 
ATOM     27  C   UNL     1       8.747   4.374  -9.410  0.00  0.00    -0.016 C 
ATOM     28  C   UNL     1       7.331   3.850  -9.661  0.00  0.00    -0.072 C 
ATOM     29  C   UNL     1       7.404   2.412 -10.179  0.00  0.00    -0.013 C 
ATOM     30  H   UNL     1       7.048   3.339  -7.707  0.00  0.00    -0.081 HD
ENDBRANCH  22  23
ENDBRANCH  21  22
ENDBRANCH  19  21
ENDBRANCH  16  17
ENDBRANCH   6  16
TORSDOF 9
