REMARK  Name = ZINC06195800
REMARK  14 active torsions:
REMARK  status: ('A' for Active; 'I' for Inactive)
REMARK    1  A    between atoms: C_1  and  C_2
REMARK    2  A    between atoms: C_2  and  O_3
REMARK    3  A    between atoms: O_3  and  C_4
REMARK    4  A    between atoms: C_6  and  C_12
REMARK    5  A    between atoms: C_9  and  O_10
REMARK    6  A    between atoms: C_17  and  C_22
REMARK    7  A    between atoms: C_25  and  O_30
REMARK    8  A    between atoms: C_26  and  O_28
REMARK    9  A    between atoms: O_28  and  C_29
REMARK   10  A    between atoms: O_30  and  C_31
REMARK   11  A    between atoms: C_33  and  C_39
REMARK   12  A    between atoms: C_34  and  C_35
REMARK   13  A    between atoms: C_35  and  O_37
REMARK   14  A    between atoms: O_37  and  C_38
REMARK                            x       y       z     vdW  Elec       q    Type
REMARK                         _______ _______ _______ _____ _____    ______ ____
ROOT
ATOM      1  C   UNL     1       3.802   1.890  -0.599  0.00  0.00    +0.074 C 
ATOM      2  C   UNL     1       2.389   1.361  -0.598  0.00  0.00    +0.112 C 
ATOM      3  C   UNL     1       1.395   2.052  -0.001  0.00  0.00    +0.031 C 
ATOM      4  C   UNL     1      -0.019   1.527   0.009  0.00  0.00    +0.060 C 
ATOM      5  C   UNL     1      -0.001  -0.002  -0.001  0.00  0.00    +0.032 C 
ATOM      6  C   UNL     1       0.761  -0.472  -1.245  0.00  0.00    +0.083 C 
ATOM      7  C   UNL     1       2.139   0.131  -1.231  0.00  0.00    +0.143 C 
ATOM      8  O   UNL     1       3.053  -0.456  -1.777  0.00  0.00    -0.297 OA
ATOM      9  N   UNL     1       1.651   3.250   0.611  0.00  0.00    -0.260 NA
ATOM     10  C   UNL     1       2.777   3.962   0.304  0.00  0.00    +0.049 C 
ATOM     11  C   UNL     1       3.828   3.355  -0.276  0.00  0.00    +0.066 C 
ATOM     12  C   UNL     1       2.842   5.433   0.623  0.00  0.00    +0.066 C 
ENDROOT
BRANCH   1  15
ATOM     13  C   UNL     1       6.473  -0.266   0.979  0.00  0.00    +0.163 A 
ATOM     14  C   UNL     1       5.726   0.423   0.036  0.00  0.00    +0.053 A 
ATOM     15  C   UNL     1       4.612   1.141   0.427  0.00  0.00    -0.034 A 
ATOM     16  C   UNL     1       4.242   1.179   1.759  0.00  0.00    +0.023 A 
ATOM     17  C   UNL     1       4.980   0.489   2.704  0.00  0.00    +0.063 A 
ATOM     18  C   UNL     1       6.098  -0.234   2.318  0.00  0.00    +0.173 A 
ATOM     19 BR   UNL     1       4.467   0.537   4.524  0.00  0.00    -0.046 Br
BRANCH  18  20
ATOM     20  O   UNL     1       6.828  -0.908   3.247  0.00  0.00    -0.503 OA
ATOM     21  H   UNL     1       7.543  -0.388   3.638  0.00  0.00    +0.292 HD
ENDBRANCH  18  20
BRANCH  13  22
ATOM     22  O   UNL     1       7.569  -0.974   0.595  0.00  0.00    -0.489 OA
BRANCH  22  24
ATOM     23  C   UNL     1       9.148  -1.807  -1.035  0.00  0.00    +0.048 C 
ATOM     24  C   UNL     1       7.894  -0.963  -0.797  0.00  0.00    +0.226 C 
ENDBRANCH  22  24
ENDBRANCH  13  22
ENDBRANCH   1  15
BRANCH   5  25
ATOM     25  C   UNL     1      -1.413  -0.526  -0.045  0.00  0.00    -0.040 A 
ATOM     26  C   UNL     1      -2.240  -0.193  -1.102  0.00  0.00    +0.008 A 
ATOM     27  C   UNL     1      -3.534  -0.676  -1.149  0.00  0.00    +0.049 A 
ATOM     28  C   UNL     1      -4.010  -1.485  -0.130  0.00  0.00    +0.161 A 
ATOM     29  C   UNL     1      -3.180  -1.815   0.937  0.00  0.00    +0.162 A 
ATOM     30  C   UNL     1      -1.881  -1.333   0.975  0.00  0.00    +0.053 A 
BRANCH  29  31
ATOM     31  O   UNL     1      -3.641  -2.610   1.939  0.00  0.00    -0.491 OA
ATOM     32  C   UNL     1      -2.733  -2.907   3.002  0.00  0.00    +0.277 C 
ENDBRANCH  29  31
BRANCH  28  33
ATOM     33  O   UNL     1      -5.285  -1.956  -0.172  0.00  0.00    -0.491 OA
ATOM     34  C   UNL     1      -6.080  -1.576  -1.298  0.00  0.00    +0.277 C 
ENDBRANCH  28  33
ENDBRANCH   5  25
BRANCH  11  35
ATOM     35  C   UNL     1       4.980   4.114  -0.590  0.00  0.00    +0.337 C 
ATOM     36  O   UNL     1       5.014   5.303  -0.332  0.00  0.00    -0.245 OA
BRANCH  35  37
ATOM     37  O   UNL     1       6.042   3.520  -1.174  0.00  0.00    -0.465 OA
ATOM     38  C   UNL     1       7.171   4.347  -1.462  0.00  0.00    +0.280 C 
ENDBRANCH  35  37
ENDBRANCH  11  35
TORSDOF 9
