REMARK  Name = ZINC03344437
REMARK  8 active torsions:
REMARK  status: ('A' for Active; 'I' for Inactive)
REMARK    1  A    between atoms: C_1  and  C_2
REMARK    2  A    between atoms: C_4  and  C_29
REMARK    3  A    between atoms: C_10  and  S_11
REMARK    4  A    between atoms: S_11  and  C_12
REMARK    5  A    between atoms: C_12  and  C_13
REMARK    6  A    between atoms: C_13  and  C_15
REMARK    7  A    between atoms: C_18  and  S_21
REMARK    8  A    between atoms: S_21  and  N_24
REMARK                            x       y       z     vdW  Elec       q    Type
REMARK                         _______ _______ _______ _____ _____    ______ ____
ROOT
ATOM      1  C   UNL     1       1.176   3.558   0.009  0.00  0.00    +0.173 C 
ATOM      2  O   UNL     1       0.121   4.157   0.022  0.00  0.00    -0.291 OA
ENDROOT
BRANCH   1   3
ATOM      3  C   UNL     1       1.187   2.087   0.002  0.00  0.00    +0.018 A 
ATOM      4  C   UNL     1      -0.017   1.375   0.010  0.00  0.00    +0.013 A 
ATOM      5  C   UNL     1       0.002  -0.004   0.002  0.00  0.00    +0.029 A 
ATOM      6  C   UNL     1       1.208  -0.683  -0.013  0.00  0.00    +0.106 A 
ATOM      7  C   UNL     1       2.403   0.014  -0.020  0.00  0.00    +0.029 A 
ATOM      8  C   UNL     1       2.401   1.393  -0.013  0.00  0.00    +0.013 A 
BRANCH   6   9
ATOM      9  S   UNL     1       1.221  -2.445  -0.023  0.00  0.00    +0.061 S 
ATOM     10  O   UNL     1       2.475  -2.845   0.514  0.00  0.00    -0.153 OA
ATOM     11  O   UNL     1      -0.016  -2.864   0.538  0.00  0.00    -0.153 OA
BRANCH   9  12
ATOM     12  N   UNL     1       1.210  -2.926  -1.607  0.00  0.00    -0.177 NA
ATOM     13  C   UNL     1       0.009  -3.191  -2.414  0.00  0.00    +0.109 C 
ATOM     14  C   UNL     1       0.486  -3.634  -3.813  0.00  0.00    +0.018 C 
ATOM     15  C   UNL     1       1.925  -4.147  -3.542  0.00  0.00    +0.018 C 
ATOM     16  C   UNL     1       2.402  -3.167  -2.441  0.00  0.00    +0.109 C 
ENDBRANCH   9  12
ENDBRANCH   6   9
ENDBRANCH   1   3
BRANCH   1  17
ATOM     17  C   UNL     1       2.475   4.322   0.001  0.00  0.00    +0.157 C 
BRANCH  17  18
ATOM     18  S   UNL     1       2.131   6.102   0.013  0.00  0.00    -0.078 S 
BRANCH  18  28
ATOM     19  C   UNL     1       5.907  11.939   0.008  0.00  0.00    +0.066 C 
ATOM     20  C   UNL     1       5.229  10.593   0.007  0.00  0.00    +0.044 A 
ATOM     21  C   UNL     1       3.826  10.520   0.020  0.00  0.00    +0.044 A 
ATOM     22  C   UNL     1       3.223   9.307   0.018  0.00  0.00    +0.028 A 
ATOM     23  N   UNL     1       3.998   8.183   0.006  0.00  0.00    -0.259 N 
ATOM     24  C   UNL     1       5.373   8.291  -0.005  0.00  0.00    +0.257 A 
ATOM     25  N   UNL     1       5.953   9.500  -0.004  0.00  0.00    -0.216 NA
ATOM     26  N   UNL     1       5.851   7.061  -0.015  0.00  0.00    -0.108 NA
ATOM     27  N   UNL     1       4.880   6.216  -0.006  0.00  0.00    -0.120 NA
ATOM     28  C   UNL     1       3.728   6.846   0.002  0.00  0.00    +0.198 A 
ATOM     29  C   UNL     1       1.719   9.200   0.030  0.00  0.00    +0.064 C 
ENDBRANCH  18  28
ENDBRANCH  17  18
ENDBRANCH   1  17
TORSDOF 6
