REMARK  Name = ZINC16310059
REMARK  8 active torsions:
REMARK  status: ('A' for Active; 'I' for Inactive)
REMARK    1  A    between atoms: C_1  and  C_2
REMARK    2  A    between atoms: C_5  and  S_8
REMARK    3  A    between atoms: S_8  and  N_11
REMARK    4  A    between atoms: N_11  and  N_12
REMARK    5  A    between atoms: C_13  and  C_14
REMARK    6  A    between atoms: C_16  and  C_22
REMARK    7  A    between atoms: C_19  and  O_20
REMARK    8  A    between atoms: C_22  and  C_23
REMARK                            x       y       z     vdW  Elec       q    Type
REMARK                         _______ _______ _______ _____ _____    ______ ____
ROOT
ATOM      1  C   UNL     1       3.345  -2.499  -4.606  0.00  0.00    +0.037 A 
ATOM      2  C   UNL     1       3.341  -2.903  -5.943  0.00  0.00    +0.017 A 
ATOM      3  C   UNL     1       4.364  -2.515  -6.782  0.00  0.00    -0.041 A 
ATOM      4  C   UNL     1       5.396  -1.726  -6.305  0.00  0.00    +0.023 A 
ATOM      5  C   UNL     1       5.412  -1.319  -4.983  0.00  0.00    +0.060 A 
ATOM      6  C   UNL     1       4.388  -1.696  -4.129  0.00  0.00    +0.139 A 
ATOM      7 BR   UNL     1       6.827  -0.240  -4.344  0.00  0.00    -0.046 Br
ENDROOT
BRANCH   1   9
ATOM      8  N   UNL     1       2.260  -2.532  -2.463  0.00  0.00    -0.174 NA
ATOM      9  C   UNL     1       2.253  -2.910  -3.704  0.00  0.00    +0.143 C 
BRANCH   8  10
ATOM     10  N   UNL     1       1.223  -2.923  -1.606  0.00  0.00    -0.137 N 
ATOM     11  H   UNL     1       0.500  -3.476  -1.940  0.00  0.00    +0.197 HD
BRANCH  10  12
ATOM     12  S   UNL     1       1.232  -2.441  -0.022  0.00  0.00    +0.086 S 
ATOM     13  O   UNL     1       2.489  -2.832   0.515  0.00  0.00    -0.149 OA
ATOM     14  O   UNL     1      -0.002  -2.866   0.539  0.00  0.00    -0.149 OA
BRANCH  12  19
ATOM     15  C   UNL     1       1.151   3.592   0.010  0.00  0.00    +0.044 C 
ATOM     16  C   UNL     1       1.171   2.086   0.002  0.00  0.00    -0.050 A 
ATOM     17  C   UNL     1      -0.017   1.378   0.010  0.00  0.00    +0.005 A 
ATOM     18  C   UNL     1       0.002  -0.004   0.002  0.00  0.00    +0.029 A 
ATOM     19  C   UNL     1       1.208  -0.679  -0.013  0.00  0.00    +0.110 A 
ATOM     20  C   UNL     1       2.396   0.029  -0.021  0.00  0.00    +0.029 A 
ATOM     21  C   UNL     1       2.377   1.411  -0.015  0.00  0.00    +0.005 A 
ENDBRANCH  12  19
ENDBRANCH  10  12
ENDBRANCH   8  10
ENDBRANCH   1   9
BRANCH   6  22
ATOM     22  O   UNL     1       4.399  -1.292  -2.831  0.00  0.00    -0.505 OA
ATOM     23  H   UNL     1       4.858  -1.898  -2.234  0.00  0.00    +0.292 HD
ENDBRANCH   6  22
BRANCH   3  24
ATOM     24  C   UNL     1       4.359  -2.953  -8.224  0.00  0.00    +0.071 C 
BRANCH  24  25
ATOM     25  C   UNL     1       3.627  -1.932  -9.056  0.00  0.00    -0.025 A 
ATOM     26  C   UNL     1       2.287  -2.109  -9.347  0.00  0.00    +0.005 A 
ATOM     27  C   UNL     1       1.614  -1.170 -10.106  0.00  0.00    +0.000 A 
ATOM     28  C   UNL     1       2.283  -0.059 -10.584  0.00  0.00    +0.001 A 
ATOM     29  C   UNL     1       3.623   0.117 -10.299  0.00  0.00    +0.020 A 
ATOM     30  C   UNL     1       4.296  -0.820  -9.534  0.00  0.00    +0.044 A 
ATOM     31 CL   UNL     1       5.980  -0.599  -9.175  0.00  0.00    -0.083 Cl
ENDBRANCH  24  25
ENDBRANCH   3  24
TORSDOF 7
