REMARK  Name = ZINC50343156
REMARK  6 active torsions:
REMARK  status: ('A' for Active; 'I' for Inactive)
REMARK    1  A    between atoms: C_1  and  C_2
REMARK    2  A    between atoms: C_2  and  C_4
REMARK    3  A    between atoms: C_2  and  N_9
REMARK    4  A    between atoms: N_9  and  C_10
REMARK    5  A    between atoms: C_13  and  S_17
REMARK    6  A    between atoms: S_17  and  N_20
REMARK                            x       y       z     vdW  Elec       q    Type
REMARK                         _______ _______ _______ _____ _____    ______ ____
ROOT
ATOM      1  C   UNL     1       0.027  -0.639   2.398  0.00  0.00    +0.042 A 
ATOM      2  C   UNL     1      -1.326  -0.333   2.476  0.00  0.00    +0.026 A 
ATOM      3  C   UNL     1      -1.999  -0.482   3.672  0.00  0.00    +0.030 A 
ATOM      4  C   UNL     1      -1.327  -0.935   4.793  0.00  0.00    +0.106 A 
ATOM      5  C   UNL     1       0.019  -1.241   4.721  0.00  0.00    +0.045 A 
ATOM      6  C   UNL     1       0.698  -1.099   3.525  0.00  0.00    +0.041 A 
ATOM      7 BR   UNL     1       2.538  -1.524   3.424  0.00  0.00    -0.048 Br
ENDROOT
BRANCH   4   8
ATOM      8  S   UNL     1      -2.190  -1.124   6.318  0.00  0.00    +0.056 S 
ATOM      9  O   UNL     1      -1.216  -1.042   7.349  0.00  0.00    -0.153 OA
ATOM     10  O   UNL     1      -3.312  -0.254   6.260  0.00  0.00    -0.153 OA
BRANCH   8  11
ATOM     11  N   UNL     1      -2.790  -2.667   6.354  0.00  0.00    -0.204 NA
ATOM     12  H   UNL     1      -2.903  -3.123   7.203  0.00  0.00    +0.144 HD
ATOM     13  H   UNL     1      -3.027  -3.114   5.527  0.00  0.00    +0.144 HD
ENDBRANCH   8  11
ENDBRANCH   4   8
BRANCH   1  14
ATOM     14  N   UNL     1       0.711  -0.489   1.189  0.00  0.00    -0.336 N 
ATOM     15  H   UNL     1       1.654  -0.707   1.135  0.00  0.00    +0.147 HD
BRANCH  14  17
ATOM     16  C   UNL     1      -0.019   1.526   0.010  0.00  0.00    +0.033 C 
ATOM     17  C   UNL     1       0.002  -0.004   0.002  0.00  0.00    +0.098 C 
BRANCH  17  18
ATOM     18  C   UNL     1       0.707  -0.490  -1.238  0.00  0.00    -0.021 A 
ATOM     19  C   UNL     1      -0.017  -0.918  -2.335  0.00  0.00    +0.013 A 
ATOM     20  C   UNL     1       0.649  -1.349  -3.434  0.00  0.00    +0.045 A 
ATOM     21  S   UNL     1       2.352  -1.156  -2.934  0.00  0.00    -0.105 S 
ATOM     22  C   UNL     1       2.062  -0.509  -1.296  0.00  0.00    +0.050 A 
ENDBRANCH  17  18
ENDBRANCH  14  17
ENDBRANCH   1  14
TORSDOF 5
