REMARK  Name = ZINC12474693
REMARK  10 active torsions:
REMARK  status: ('A' for Active; 'I' for Inactive)
REMARK    1  A    between atoms: C_1  and  C_2
REMARK    2  A    between atoms: C_9  and  C_11
REMARK    3  A    between atoms: C_11  and  S_12
REMARK    4  A    between atoms: S_12  and  C_13
REMARK    5  A    between atoms: C_16  and  C_22
REMARK    6  A    between atoms: N_17  and  C_18
REMARK    7  A    between atoms: C_18  and  C_19
REMARK    8  A    between atoms: C_19  and  O_20
REMARK    9  A    between atoms: O_20  and  C_21
REMARK   10  A    between atoms: C_31  and  O_32
REMARK                            x       y       z     vdW  Elec       q    Type
REMARK                         _______ _______ _______ _____ _____    ______ ____
ROOT
ATOM      1  C   UNL     1       7.476  -0.569   0.812  0.00  0.00    +0.192 A 
ATOM      2  N   UNL     1       7.531   0.733   0.987  0.00  0.00    -0.122 NA
ATOM      3  N   UNL     1       8.755   1.125   0.993  0.00  0.00    -0.128 NA
ATOM      4  C   UNL     1       9.556   0.101   0.811  0.00  0.00    +0.168 A 
ATOM      5  N   UNL     1       8.761  -1.016   0.690  0.00  0.00    -0.300 N 
ENDROOT
BRANCH   4   6
ATOM      6  C   UNL     1      11.031   0.139   0.750  0.00  0.00    +0.061 A 
ATOM      7  C   UNL     1      11.774  -0.761   1.495  0.00  0.00    +0.023 A 
ATOM      8  C   UNL     1      13.175  -0.723   1.429  0.00  0.00    -0.017 A 
ATOM      9  C   UNL     1      13.961  -1.625   2.168  0.00  0.00    +0.008 A 
ATOM     10  C   UNL     1      15.318  -1.560   2.087  0.00  0.00    +0.001 A 
ATOM     11  C   UNL     1      15.943  -0.610   1.281  0.00  0.00    +0.001 A 
ATOM     12  C   UNL     1      15.215   0.279   0.551  0.00  0.00    +0.008 A 
ATOM     13  C   UNL     1      13.811   0.243   0.608  0.00  0.00    -0.014 A 
ATOM     14  C   UNL     1      13.033   1.149  -0.134  0.00  0.00    +0.054 A 
ATOM     15  C   UNL     1      11.674   1.096  -0.063  0.00  0.00    +0.128 A 
BRANCH  15  16
ATOM     16  O   UNL     1      10.929   1.974  -0.783  0.00  0.00    -0.506 OA
ATOM     17  H   UNL     1      10.791   2.825  -0.344  0.00  0.00    +0.292 HD
ENDBRANCH  15  16
ENDBRANCH   4   6
BRANCH   1  18
ATOM     18  S   UNL     1       6.016  -1.552   0.740  0.00  0.00    -0.077 S 
BRANCH  18  19
ATOM     19  C   UNL     1       4.761  -0.270   0.978  0.00  0.00    +0.173 C 
BRANCH  19  27
ATOM     20  C   UNL     1       1.057  -2.235   0.905  0.00  0.00    +0.028 C 
ATOM     21  C   UNL     1       0.959  -0.735   1.190  0.00  0.00    +0.073 C 
ATOM     22  C   UNL     1       0.053  -0.072   0.148  0.00  0.00    +0.022 C 
ATOM     23  C   UNL     1       0.068   1.444   0.356  0.00  0.00    +0.003 C 
ATOM     24  C   UNL     1       1.491   1.973   0.165  0.00  0.00    +0.019 C 
ATOM     25  C   UNL     1       2.413   1.333   1.208  0.00  0.00    +0.108 C 
ATOM     26  N   UNL     1       2.295  -0.128   1.111  0.00  0.00    -0.298 N 
ATOM     27  C   UNL     1       3.391  -0.896   0.952  0.00  0.00    +0.226 C 
ATOM     28  O   UNL     1       3.274  -2.092   0.789  0.00  0.00    -0.275 OA
ENDBRANCH  19  27
ENDBRANCH  18  19
ENDBRANCH   1  18
BRANCH   5  29
ATOM     29  C   UNL     1       9.201  -2.397   0.474  0.00  0.00    +0.154 C 
BRANCH  29  30
ATOM     30  C   UNL     1       9.410  -2.638  -1.022  0.00  0.00    +0.181 C 
BRANCH  30  31
ATOM     31  O   UNL     1       9.948  -3.946  -1.223  0.00  0.00    -0.381 OA
ATOM     32  C   UNL     1      10.182  -4.273  -2.595  0.00  0.00    +0.194 C 
ENDBRANCH  30  31
ENDBRANCH  29  30
ENDBRANCH   5  29
TORSDOF 8
