REMARK  Name = ZINC16363931
REMARK  11 active torsions:
REMARK  status: ('A' for Active; 'I' for Inactive)
REMARK    1  A    between atoms: C_1  and  N_2
REMARK    2  A    between atoms: C_6  and  C_13
REMARK    3  A    between atoms: N_9  and  C_12
REMARK    4  A    between atoms: C_13  and  C_15
REMARK    5  A    between atoms: C_13  and  O_32
REMARK    6  A    between atoms: C_15  and  O_16
REMARK    7  A    between atoms: O_16  and  C_17
REMARK    8  A    between atoms: C_20  and  C_23
REMARK    9  A    between atoms: C_23  and  N_57
REMARK   10  A    between atoms: C_24  and  C_25
REMARK   11  A    between atoms: C_24  and  N_57
REMARK                            x       y       z     vdW  Elec       q    Type
REMARK                         _______ _______ _______ _____ _____    ______ ____
ROOT
ATOM      1  C   UNL     1      -2.093   2.522   5.879  0.00  0.00    +0.121 A 
ATOM      2  C   UNL     1      -2.435   1.299   5.319  0.00  0.00    +0.046 A 
ATOM      3  C   UNL     1      -1.762   0.839   4.204  0.00  0.00    +0.005 A 
ATOM      4  C   UNL     1      -0.749   1.596   3.646  0.00  0.00    -0.064 A 
ATOM      5  C   UNL     1      -0.402   2.812   4.205  0.00  0.00    +0.005 A 
ATOM      6  C   UNL     1      -1.075   3.279   5.317  0.00  0.00    +0.046 A 
ENDROOT
BRANCH   1   7
ATOM      7  O   UNL     1      -2.754   2.977   6.976  0.00  0.00    -0.489 OA
BRANCH   7   8
ATOM      8  C   UNL     1      -2.348   4.244   7.498  0.00  0.00    +0.265 C 
BRANCH   8   9
ATOM      9  C   UNL     1      -3.199   4.587   8.723  0.00  0.00    +0.182 C 
BRANCH   9  15
ATOM     10  C   UNL     1      -1.131  10.552  11.163  0.00  0.00    +0.154 C 
ATOM     11  N   UNL     1      -2.164   9.882  10.370  0.00  0.00    -0.295 N 
ATOM     12  C   UNL     1      -2.216   8.520  10.084  0.00  0.00    +0.070 A 
ATOM     13  C   UNL     1      -1.403   7.446  10.414  0.00  0.00    +0.028 A 
ATOM     14  C   UNL     1      -1.728   6.177   9.976  0.00  0.00    +0.008 A 
ATOM     15  C   UNL     1      -2.857   5.974   9.200  0.00  0.00    -0.014 A 
ATOM     16  C   UNL     1      -3.673   7.037   8.867  0.00  0.00    +0.034 A 
ATOM     17  C   UNL     1      -3.358   8.314   9.306  0.00  0.00    +0.070 A 
ATOM     18  N   UNL     1      -3.963   9.558   9.143  0.00  0.00    -0.295 N 
ATOM     19  C   UNL     1      -3.224  10.477   9.792  0.00  0.00    +0.330 A 
ATOM     20  O   UNL     1      -3.476  11.667   9.848  0.00  0.00    -0.246 OA
ATOM     21  C   UNL     1      -5.194   9.820   8.393  0.00  0.00    +0.154 C 
ENDBRANCH   9  15
BRANCH   9  22
ATOM     22  O   UNL     1      -2.935   3.646   9.765  0.00  0.00    -0.384 OA
ATOM     23  H   UNL     1      -2.013   3.628  10.055  0.00  0.00    +0.210 HD
ENDBRANCH   9  22
ENDBRANCH   8   9
ENDBRANCH   7   8
ENDBRANCH   1   7
BRANCH   4  24
ATOM     24  C   UNL     1      -0.016   1.091   2.429  0.00  0.00    -0.046 C 
BRANCH  24  25
ATOM     25  N   UNL     1      -0.709   1.566   1.217  0.00  0.00    +0.384 N 
ATOM     26  H   UNL     1      -0.723   2.592   1.214  0.00  0.00    -0.085 HD
ATOM     27  H   UNL     1      -1.672   1.210   1.216  0.00  0.00    -0.085 HD
BRANCH  25  28
ATOM     28  C   UNL     1      -0.013   1.086   0.008  0.00  0.00    -0.046 C 
BRANCH  28  29
ATOM     29  C   UNL     1      -0.742   1.585  -1.213  0.00  0.00    -0.064 A 
ATOM     30  C   UNL     1      -1.750   0.824  -1.775  0.00  0.00    +0.004 A 
ATOM     31  C   UNL     1      -2.422   1.283  -2.891  0.00  0.00    +0.038 A 
ATOM     32  C   UNL     1      -2.079   2.501  -3.454  0.00  0.00    +0.123 A 
ATOM     33  C   UNL     1      -1.065   3.260  -2.893  0.00  0.00    +0.038 A 
ATOM     34  C   UNL     1      -0.398   2.801  -1.774  0.00  0.00    +0.004 A 
ATOM     35  F   UNL     1      -2.732   2.948  -4.548  0.00  0.00    -0.205 F 
ENDBRANCH  28  29
ENDBRANCH  25  28
ENDBRANCH  24  25
ENDBRANCH   4  24
TORSDOF 9
