REMARK  Name = ZINC09248769
REMARK  9 active torsions:
REMARK  status: ('A' for Active; 'I' for Inactive)
REMARK    1  A    between atoms: C_1  and  C_2
REMARK    2  A    between atoms: C_4  and  C_28
REMARK    3  A    between atoms: N_5  and  C_7
REMARK    4  A    between atoms: C_10  and  C_13
REMARK    5  A    between atoms: C_13  and  O_15
REMARK    6  A    between atoms: O_15  and  C_16
REMARK    7  A    between atoms: C_16  and  C_18
REMARK    8  A    between atoms: C_16  and  C_19
REMARK    9  A    between atoms: C_24  and  C_27
REMARK                            x       y       z     vdW  Elec       q    Type
REMARK                         _______ _______ _______ _____ _____    ______ ____
ROOT
ATOM      1  C   UNL     1       0.161  -3.450   1.099  0.00  0.00    +0.066 A 
ATOM      2  C   UNL     1      -0.453  -4.558   0.523  0.00  0.00    +0.028 A 
ATOM      3  C   UNL     1      -0.378  -5.786   1.140  0.00  0.00    +0.017 A 
ATOM      4  C   UNL     1       0.316  -5.920   2.346  0.00  0.00    +0.059 A 
ATOM      5  C   UNL     1       0.932  -4.805   2.921  0.00  0.00    +0.017 A 
ATOM      6  C   UNL     1       0.857  -3.581   2.296  0.00  0.00    +0.028 A 
ENDROOT
BRANCH   1  11
ATOM      7  C   UNL     1       1.468   0.989  -0.677  0.00  0.00    +0.069 C 
ATOM      8  C   UNL     1       0.673  -0.239  -0.313  0.00  0.00    +0.079 A 
ATOM      9  C   UNL     1      -0.679  -0.456  -0.604  0.00  0.00    +0.085 A 
ATOM     10  C   UNL     1      -1.022  -1.670  -0.115  0.00  0.00    +0.060 A 
ATOM     11  N   UNL     1       0.083  -2.204   0.470  0.00  0.00    -0.235 N 
ATOM     12  N   UNL     1       1.130  -1.285   0.325  0.00  0.00    -0.170 NA
ATOM     13  C   UNL     1      -2.382  -2.313  -0.201  0.00  0.00    +0.067 C 
ATOM     14 CL   UNL     1      -1.731   0.640  -1.446  0.00  0.00    -0.080 Cl
ENDBRANCH   1  11
BRANCH   4  15
ATOM     15  C   UNL     1       0.398  -7.235   3.010  0.00  0.00    +0.340 C 
ATOM     16  O   UNL     1      -0.138  -8.203   2.508  0.00  0.00    -0.245 OA
BRANCH  15  17
ATOM     17  O   UNL     1       1.068  -7.362   4.172  0.00  0.00    -0.449 OA
BRANCH  17  18
ATOM     18  C   UNL     1       1.107  -8.664   4.759  0.00  0.00    +0.259 C 
ATOM     19  C   UNL     1      -0.089  -8.837   5.698  0.00  0.00    +0.062 C 
BRANCH  18  20
ATOM     20  C   UNL     1       2.385  -8.825   5.540  0.00  0.00    +0.256 C 
ATOM     21  O   UNL     1       3.142  -7.886   5.665  0.00  0.00    -0.272 OA
ATOM     22  N   UNL     1       2.688 -10.013   6.100  0.00  0.00    -0.298 N 
ATOM     23  C   UNL     1       1.784 -11.162   5.953  0.00  0.00    +0.108 C 
ATOM     24  C   UNL     1       2.580 -12.347   5.396  0.00  0.00    +0.022 C 
ATOM     25  C   UNL     1       3.791 -12.611   6.294  0.00  0.00    -0.011 C 
ATOM     26  C   UNL     1       4.700 -11.379   6.303  0.00  0.00    +0.022 C 
ATOM     27  C   UNL     1       3.931 -10.185   6.865  0.00  0.00    +0.108 C 
ATOM     28  C   UNL     1       4.569 -13.815   5.761  0.00  0.00    +0.007 C 
ENDBRANCH  18  20
ENDBRANCH  17  18
ENDBRANCH  15  17
ENDBRANCH   4  15
TORSDOF 5
