REMARK  Name = ZINC46728601
REMARK  10 active torsions:
REMARK  status: ('A' for Active; 'I' for Inactive)
REMARK    1  A    between atoms: C_1  and  C_2
REMARK    2  A    between atoms: C_2  and  O_3
REMARK    3  A    between atoms: O_3  and  C_4
REMARK    4  A    between atoms: C_6  and  C_30
REMARK    5  A    between atoms: C_9  and  O_10
REMARK    6  A    between atoms: O_10  and  C_11
REMARK    7  A    between atoms: C_11  and  C_12
REMARK    8  A    between atoms: N_14  and  N_15
REMARK    9  A    between atoms: C_16  and  C_18
REMARK   10  A    between atoms: C_25  and  C_28
REMARK                            x       y       z     vdW  Elec       q    Type
REMARK                         _______ _______ _______ _____ _____    ______ ____
ROOT
ATOM      1  C   UNL     1       3.689  -0.150  -4.335  0.00  0.00    +0.267 C 
ATOM      2  O   UNL     1       2.889   0.126  -5.204  0.00  0.00    -0.271 OA
ATOM      3  N   UNL     1       4.932   0.368  -4.373  0.00  0.00    -0.231 N 
ATOM      4  H   UNL     1       5.571   0.146  -3.677  0.00  0.00    +0.173 HD
ENDROOT
BRANCH   3   5
ATOM      5  N   UNL     1       5.302   1.226  -5.416  0.00  0.00    -0.230 N 
ATOM      6  C   UNL     1       6.545   1.744  -5.454  0.00  0.00    +0.267 C 
ATOM      7  O   UNL     1       7.347   1.467  -4.582  0.00  0.00    -0.268 OA
ATOM      8  H   UNL     1       4.663   1.448  -6.112  0.00  0.00    +0.173 HD
BRANCH   6   9
ATOM      9  C   UNL     1       6.932   2.643  -6.546  0.00  0.00    +0.076 A 
ATOM     10  C   UNL     1       8.144   3.269  -6.772  0.00  0.00    +0.024 A 
ATOM     11  C   UNL     1       8.232   4.075  -7.898  0.00  0.00    -0.036 A 
ATOM     12  C   UNL     1       7.113   4.170  -8.672  0.00  0.00    -0.006 A 
ATOM     13  S   UNL     1       5.965   3.206  -7.934  0.00  0.00    -0.088 S 
ATOM     14  C   UNL     1       6.957   4.973  -9.930  0.00  0.00    +0.043 C 
ATOM     15  C   UNL     1       8.121   5.970 -10.016  0.00  0.00    +0.009 C 
ATOM     16  C   UNL     1       9.431   5.223  -9.746  0.00  0.00    -0.009 C 
ATOM     17  C   UNL     1       9.507   4.826  -8.272  0.00  0.00    +0.039 C 
ATOM     18  C   UNL     1      10.613   6.131 -10.088  0.00  0.00    +0.008 C 
ENDBRANCH   6   9
ENDBRANCH   3   5
BRANCH   1  19
ATOM     19  C   UNL     1       3.291  -1.074  -3.212  0.00  0.00    +0.326 C 
BRANCH  19  20
ATOM     20  O   UNL     1       1.935  -1.487  -3.393  0.00  0.00    -0.478 OA
BRANCH  20  26
ATOM     21  C   UNL     1       0.777  -1.811  -1.336  0.00  0.00    +0.164 A 
ATOM     22  C   UNL     1       0.244  -2.665  -0.389  0.00  0.00    +0.068 A 
ATOM     23  C   UNL     1       0.355  -4.048  -0.559  0.00  0.00    +0.057 A 
ATOM     24  C   UNL     1       1.003  -4.561  -1.686  0.00  0.00    +0.038 A 
ATOM     25  C   UNL     1       1.532  -3.703  -2.627  0.00  0.00    +0.064 A 
ATOM     26  C   UNL     1       1.417  -2.329  -2.460  0.00  0.00    +0.177 A 
ATOM     27 BR   UNL     1       2.409  -4.398  -4.151  0.00  0.00    -0.046 Br
BRANCH  23  28
ATOM     28  C   UNL     1      -0.195  -4.937   0.419  0.00  0.00    +0.099 C 
ATOM     29  N   UNL     1      -0.631  -5.643   1.196  0.00  0.00    -0.191 NA
ENDBRANCH  23  28
BRANCH  21  30
ATOM     30  O   UNL     1       0.671  -0.465  -1.174  0.00  0.00    -0.488 OA
BRANCH  30  32
ATOM     31  C   UNL     1      -0.019   1.526   0.010  0.00  0.00    +0.048 C 
ATOM     32  C   UNL     1       0.002  -0.004   0.002  0.00  0.00    +0.226 C 
ENDBRANCH  30  32
ENDBRANCH  21  30
ENDBRANCH  20  26
ENDBRANCH  19  20
ENDBRANCH   1  19
TORSDOF 8
