REMARK  Name = ZINC37608956
REMARK  6 active torsions:
REMARK  status: ('A' for Active; 'I' for Inactive)
REMARK    1  A    between atoms: C_1  and  C_2
REMARK    2  A    between atoms: C_2  and  C_4
REMARK    3  A    between atoms: C_2  and  N_21
REMARK    4  A    between atoms: C_4  and  C_5
REMARK    5  A    between atoms: C_8  and  C_11
REMARK    6  A    between atoms: C_15  and  N_17
REMARK                            x       y       z     vdW  Elec       q    Type
REMARK                         _______ _______ _______ _____ _____    ______ ____
ROOT
ATOM      1  C   UNL     1       0.632  -2.000  -1.327  0.00  0.00    +0.106 A 
ATOM      2  N   UNL     1       0.148  -2.710  -2.370  0.00  0.00    -0.342 N 
ATOM      3  H   UNL     1      -0.203  -2.350  -3.199  0.00  0.00    +0.167 HD
ATOM      4  C   UNL     1       0.247  -4.041  -2.034  0.00  0.00    +0.066 A 
ATOM      5  C   UNL     1       0.793  -4.085  -0.788  0.00  0.00    +0.139 A 
ATOM      6  N   UNL     1       1.017  -2.827  -0.393  0.00  0.00    -0.240 NA
ENDROOT
BRANCH   4   7
ATOM      7  C   UNL     1      -0.160  -5.196  -2.864  0.00  0.00    +0.002 A 
ATOM      8  C   UNL     1      -0.703  -4.990  -4.132  0.00  0.00    +0.011 A 
ATOM      9  C   UNL     1      -1.081  -6.071  -4.902  0.00  0.00    +0.023 A 
ATOM     10  C   UNL     1      -0.922  -7.359  -4.417  0.00  0.00    +0.071 A 
ATOM     11  C   UNL     1      -0.383  -7.569  -3.159  0.00  0.00    +0.145 A 
ATOM     12  C   UNL     1       0.004  -6.496  -2.383  0.00  0.00    +0.044 A 
ATOM     13 CL   UNL     1      -1.400  -8.714  -5.390  0.00  0.00    -0.081 Cl
BRANCH  11  14
ATOM     14  N   UNL     1      -0.217  -8.948  -2.648  0.00  0.00    +0.058 N 
ATOM     15  O   UNL     1       0.253  -9.133  -1.549  0.00  0.00    -0.126 OA
ATOM     16  O   UNL     1      -0.551  -9.890  -3.329  0.00  0.00    -0.126 OA
ENDBRANCH  11  14
ENDBRANCH   4   7
BRANCH   1  17
ATOM     17  C   UNL     1       0.718  -0.497  -1.257  0.00  0.00    +0.058 C 
BRANCH  17  19
ATOM     18  C   UNL     1      -0.019   1.526   0.010  0.00  0.00    -0.014 C 
ATOM     19  C   UNL     1       0.002  -0.004   0.002  0.00  0.00    -0.071 C 
BRANCH  19  20
ATOM     20  N   UNL     1       0.713  -0.491   1.192  0.00  0.00    +0.380 N 
ATOM     21  H   UNL     1       0.240  -0.165   2.022  0.00  0.00    -0.090 HD
ATOM     22  H   UNL     1       0.726  -1.500   1.187  0.00  0.00    -0.090 HD
ATOM     23  H   UNL     1       1.659  -0.141   1.185  0.00  0.00    -0.090 HD
ENDBRANCH  19  20
ENDBRANCH  17  19
ENDBRANCH   1  17
TORSDOF 5
