REMARK  Name = ZINC43093137
REMARK  7 active torsions:
REMARK  status: ('A' for Active; 'I' for Inactive)
REMARK    1  A    between atoms: C_1  and  C_2
REMARK    2  A    between atoms: C_2  and  C_4
REMARK    3  A    between atoms: C_2  and  N_24
REMARK    4  A    between atoms: C_4  and  C_6
REMARK    5  A    between atoms: C_4  and  N_13
REMARK    6  A    between atoms: C_18  and  C_20
REMARK    7  A    between atoms: N_22  and  C_23
REMARK                            x       y       z     vdW  Elec       q    Type
REMARK                         _______ _______ _______ _____ _____    ______ ____
ROOT
ATOM      1  C   UNL     1       1.522  -0.323   1.653  0.00  0.00    +0.074 C 
ENDROOT
BRANCH   1   2
ATOM      2  C   UNL     1       2.449  -0.151   2.829  0.00  0.00    -0.018 A 
ATOM      3  C   UNL     1       3.442  -1.083   3.067  0.00  0.00    +0.006 A 
ATOM      4  C   UNL     1       4.293  -0.926   4.146  0.00  0.00    +0.000 A 
ATOM      5  C   UNL     1       4.151   0.163   4.985  0.00  0.00    +0.001 A 
ATOM      6  C   UNL     1       3.158   1.095   4.747  0.00  0.00    +0.015 A 
ATOM      7  C   UNL     1       2.310   0.941   3.666  0.00  0.00    +0.022 A 
ATOM      8 BR   UNL     1       0.956   2.219   3.335  0.00  0.00    -0.050 Br
ENDBRANCH   1   2
BRANCH   1   9
ATOM      9  N   UNL     1       1.067  -1.718   1.587  0.00  0.00    -0.286 NA
ATOM     10  C   UNL     1       1.990  -2.536   0.790  0.00  0.00    +0.086 C 
ATOM     11  C   UNL     1       1.412  -3.943   0.622  0.00  0.00    +0.015 C 
ATOM     12  C   UNL     1       1.205  -4.572   2.002  0.00  0.00    +0.003 C 
ATOM     13  C   UNL     1       0.279  -3.677   2.830  0.00  0.00    +0.028 C 
ATOM     14  C   UNL     1       0.889  -2.277   2.934  0.00  0.00    +0.143 C 
BRANCH  14  15
ATOM     15  C   UNL     1      -0.029  -1.387   3.731  0.00  0.00    +0.230 C 
ATOM     16  O   UNL     1      -0.856  -0.705   3.163  0.00  0.00    -0.274 OA
ATOM     17  N   UNL     1       0.070  -1.348   5.074  0.00  0.00    -0.317 N 
ATOM     18  C   UNL     1      -0.823  -0.482   5.849  0.00  0.00    +0.128 C 
ATOM     19  H   UNL     1       0.731  -1.893   5.528  0.00  0.00    +0.148 HD
ENDBRANCH  14  15
ENDBRANCH   1   9
BRANCH   1  21
ATOM     20  C   UNL     1       2.728   1.489   0.426  0.00  0.00    -0.012 C 
ATOM     21  C   UNL     1       2.263   0.033   0.363  0.00  0.00    -0.056 C 
BRANCH  21  22
ATOM     22  N   UNL     1       1.362  -0.144  -0.784  0.00  0.00    +0.381 N 
ATOM     23  H   UNL     1       1.871   0.020  -1.640  0.00  0.00    -0.090 HD
ATOM     24  H   UNL     1       0.999  -1.085  -0.784  0.00  0.00    -0.090 HD
ATOM     25  H   UNL     1       0.598   0.512  -0.716  0.00  0.00    -0.090 HD
ENDBRANCH  21  22
ENDBRANCH   1  21
TORSDOF 5
