REMARK  Name = ZINC49508873
REMARK  8 active torsions:
REMARK  status: ('A' for Active; 'I' for Inactive)
REMARK    1  A    between atoms: C_1  and  N_2
REMARK    2  A    between atoms: N_5  and  C_8
REMARK    3  A    between atoms: C_8  and  C_10
REMARK    4  A    between atoms: C_8  and  C_31
REMARK    5  A    between atoms: C_10  and  N_11
REMARK    6  A    between atoms: C_12  and  C_14
REMARK    7  A    between atoms: N_16  and  C_17
REMARK    8  A    between atoms: N_39  and  C_40
REMARK                            x       y       z     vdW  Elec       q    Type
REMARK                         _______ _______ _______ _____ _____    ______ ____
ROOT
ATOM      1  N   UNL     1       1.982  -5.896  -1.450  0.00  0.00    -0.306 N 
ATOM      2  C   UNL     1       2.576  -6.547  -2.470  0.00  0.00    +0.299 C 
ATOM      3  O   UNL     1       3.220  -5.929  -3.292  0.00  0.00    -0.265 OA
ATOM      4  H   UNL     1       1.468  -6.391  -0.793  0.00  0.00    +0.149 HD
ENDROOT
BRANCH   2   5
ATOM      5  C   UNL     1       2.441  -8.030  -2.589  0.00  0.00    +0.303 C 
ATOM      6  O   UNL     1       1.797  -8.649  -1.767  0.00  0.00    -0.265 OA
ATOM      7  N   UNL     1       3.035  -8.681  -3.609  0.00  0.00    -0.278 N 
ATOM      8  H   UNL     1       3.492  -8.181  -4.303  0.00  0.00    +0.155 HD
BRANCH   7   9
ATOM      9  C   UNL     1       2.991 -10.077  -3.667  0.00  0.00    +0.034 A 
ATOM     10  C   UNL     1       1.862 -10.756  -3.231  0.00  0.00    +0.028 A 
ATOM     11  C   UNL     1       1.811 -12.138  -3.295  0.00  0.00    -0.024 A 
ATOM     12  C   UNL     1       2.893 -12.845  -3.801  0.00  0.00    +0.043 A 
ATOM     13  C   UNL     1       4.031 -12.166  -4.220  0.00  0.00    -0.023 A 
ATOM     14  C   UNL     1       4.076 -10.787  -4.165  0.00  0.00    +0.028 A 
ATOM     15  C   UNL     1       5.231 -12.927  -4.721  0.00  0.00    +0.046 C 
ATOM     16  C   UNL     1       4.780 -14.197  -5.441  0.00  0.00    +0.101 C 
ATOM     17  C   UNL     1       3.761 -14.922  -4.604  0.00  0.00    +0.220 C 
ATOM     18  O   UNL     1       3.760 -16.135  -4.579  0.00  0.00    -0.275 OA
ATOM     19  N   UNL     1       2.853 -14.243  -3.883  0.00  0.00    -0.271 N 
ATOM     20  C   UNL     1       1.798 -14.973  -3.167  0.00  0.00    +0.114 C 
ATOM     21  C   UNL     1       0.473 -14.239  -3.410  0.00  0.00    +0.024 C 
ATOM     22  C   UNL     1       0.570 -12.838  -2.807  0.00  0.00    +0.038 C 
ENDBRANCH   7   9
ENDBRANCH   2   5
BRANCH   1  23
ATOM     23  C   UNL     1       2.115  -4.442  -1.334  0.00  0.00    +0.128 C 
BRANCH  23  24
ATOM     24  C   UNL     1       1.460  -3.973  -0.033  0.00  0.00    +0.104 C 
BRANCH  24  25
ATOM     25  C   UNL     1       2.195  -4.565   1.142  0.00  0.00    -0.028 A 
ATOM     26  C   UNL     1       3.377  -3.995   1.579  0.00  0.00    +0.007 A 
ATOM     27  C   UNL     1       4.052  -4.534   2.652  0.00  0.00    +0.024 A 
ATOM     28  C   UNL     1       3.548  -5.660   3.308  0.00  0.00    +0.033 A 
ATOM     29  C   UNL     1       2.363  -6.224   2.862  0.00  0.00    -0.025 A 
ATOM     30  C   UNL     1       1.687  -5.676   1.788  0.00  0.00    +0.010 A 
ATOM     31  C   UNL     1       2.040  -7.417   3.733  0.00  0.00    +0.056 C 
ATOM     32  C   UNL     1       3.194  -7.477   4.748  0.00  0.00    +0.109 C 
ATOM     33  N   UNL     1       4.069  -6.354   4.401  0.00  0.00    -0.332 N 
ATOM     34  C   UNL     1       5.309  -6.010   5.101  0.00  0.00    +0.129 C 
ENDBRANCH  24  25
BRANCH  24  39
ATOM     35  C   UNL     1       0.480   1.569   0.245  0.00  0.00    -0.096 C 
ATOM     36  N   UNL     1       0.369   0.106   0.170  0.00  0.00    +0.379 N 
ATOM     37  C   UNL     1       1.029  -0.372  -1.052  0.00  0.00    -0.064 C 
ATOM     38  C   UNL     1       0.897  -1.894  -1.141  0.00  0.00    +0.066 C 
ATOM     39  N   UNL     1       1.516  -2.507   0.043  0.00  0.00    -0.297 NA
ATOM     40  C   UNL     1       0.881  -2.018   1.275  0.00  0.00    +0.066 C 
ATOM     41  C   UNL     1       1.014  -0.495   1.344  0.00  0.00    -0.064 C 
ATOM     42  H   UNL     1      -0.605  -0.156   0.150  0.00  0.00    -0.082 HD
ENDBRANCH  24  39
ENDBRANCH  23  24
ENDBRANCH   1  23
TORSDOF 6
