REMARK  Name = ZINC22449841
REMARK  2 active torsions:
REMARK  status: ('A' for Active; 'I' for Inactive)
REMARK    1  A    between atoms: C_1  and  C_2
REMARK    2  A    between atoms: C_15  and  C_17
REMARK                            x       y       z     vdW  Elec       q    Type
REMARK                         _______ _______ _______ _____ _____    ______ ____
ROOT
ATOM      1  C   UNL     1       2.796   7.712   0.120  0.00  0.00    +0.009 C 
ATOM      2  C   UNL     1       1.368   7.179  -0.008  0.00  0.00    +0.003 C 
ATOM      3  C   UNL     1       0.495   7.785   1.095  0.00  0.00    +0.006 C 
ATOM      4  C   UNL     1      -0.917   7.202   0.995  0.00  0.00    +0.019 C 
ATOM      5  C   UNL     1      -0.844   5.678   1.107  0.00  0.00    +0.108 C 
ATOM      6  N   UNL     1       0.002   5.147   0.030  0.00  0.00    -0.301 N 
ATOM      7  C   UNL     1       1.375   5.655   0.133  0.00  0.00    +0.111 C 
ATOM      8  C   UNL     1      -0.015   3.778   0.023  0.00  0.00    +0.199 A 
ATOM      9  N   UNL     1      -1.208   3.124   0.031  0.00  0.00    -0.295 N 
ATOM     10  H   UNL     1      -2.148   3.695   0.049  0.00  0.00    +0.172 HD
ATOM     11  C   UNL     1      -1.233   1.774   0.018  0.00  0.00    +0.253 A 
ATOM     12  O   UNL     1      -2.294   1.172   0.019  0.00  0.00    -0.268 OA
ATOM     13  C   UNL     1      -0.013   1.076   0.008  0.00  0.00    +0.102 A 
ATOM     14  C   UNL     1       1.153   1.785   0.001  0.00  0.00    +0.152 A 
ATOM     15  N   UNL     1       1.125   3.116   0.008  0.00  0.00    -0.212 NA
ENDROOT
BRANCH  14  16
ATOM     16  C   UNL     1       2.474   1.061  -0.016  0.00  0.00    +0.434 C 
ATOM     17  F   UNL     1       2.250  -0.320  -0.022  0.00  0.00    -0.164 F 
ATOM     18  F   UNL     1       3.189   1.422  -1.164  0.00  0.00    -0.164 F 
ATOM     19  F   UNL     1       3.212   1.409   1.121  0.00  0.00    -0.164 F 
ENDBRANCH  14  16
TORSDOF 1
