REMARK  Name = ZINC39760476
REMARK  4 active torsions:
REMARK  status: ('A' for Active; 'I' for Inactive)
REMARK    1  A    between atoms: C_8  and  C_30
REMARK    2  A    between atoms: N_10  and  C_12
REMARK    3  A    between atoms: C_12  and  C_13
REMARK    4  A    between atoms: C_18  and  C_23
REMARK                            x       y       z     vdW  Elec       q    Type
REMARK                         _______ _______ _______ _____ _____    ______ ____
ROOT
ATOM      1  C   UNL     1       6.096  -2.267  -0.727  0.00  0.00    +0.138 C 
ATOM      2  N   UNL     1       5.863  -1.225  -1.490  0.00  0.00    -0.160 NA
ATOM      3  C   UNL     1       6.821  -0.625  -2.204  0.00  0.00    +0.272 C 
ATOM      4  O   UNL     1       6.571   0.343  -2.904  0.00  0.00    -0.268 OA
ATOM      5  C   UNL     1       8.205  -1.175  -2.118  0.00  0.00    +0.075 C 
ATOM      6  C   UNL     1       9.341  -0.731  -2.752  0.00  0.00    -0.015 C 
ATOM      7  C   UNL     1      10.621  -1.486  -2.478  0.00  0.00    +0.112 C 
ATOM      8  S   UNL     1      10.053  -2.786  -1.310  0.00  0.00    -0.100 S 
ATOM      9  C   UNL     1       8.337  -2.340  -1.232  0.00  0.00    +0.112 C 
ATOM     10  N   UNL     1       7.292  -2.813  -0.590  0.00  0.00    -0.226 NA
ENDROOT
BRANCH   6  11
ATOM     11  C   UNL     1       9.311   0.420  -3.653  0.00  0.00    -0.020 A 
ATOM     12  C   UNL     1       8.577   0.363  -4.848  0.00  0.00    +0.009 A 
ATOM     13  C   UNL     1       8.555   1.452  -5.690  0.00  0.00    +0.020 A 
ATOM     14  C   UNL     1       9.255   2.603  -5.361  0.00  0.00    +0.041 A 
ATOM     15  C   UNL     1       9.982   2.668  -4.183  0.00  0.00    +0.020 A 
ATOM     16  C   UNL     1      10.012   1.591  -3.326  0.00  0.00    +0.009 A 
ATOM     17 CL   UNL     1       9.220   3.969  -6.431  0.00  0.00    -0.084 Cl
ENDBRANCH   6  11
BRANCH   1  18
ATOM     18  C   UNL     1       4.943  -2.867   0.036  0.00  0.00    +0.159 C 
BRANCH  18  27
ATOM     19  C   UNL     1       0.073   1.321  -0.209  0.00  0.00    +0.000 A 
ATOM     20  C   UNL     1       1.212   1.986   0.204  0.00  0.00    +0.000 A 
ATOM     21  C   UNL     1       2.386   1.285   0.396  0.00  0.00    +0.005 A 
ATOM     22  C   UNL     1       2.430  -0.084   0.175  0.00  0.00    -0.030 A 
ATOM     23  C   UNL     1       1.294  -0.746  -0.240  0.00  0.00    -0.041 A 
ATOM     24  C   UNL     1       0.115  -0.042  -0.429  0.00  0.00    +0.004 A 
ATOM     25  C   UNL     1       1.296  -2.230  -0.503  0.00  0.00    +0.063 C 
ATOM     26  C   UNL     1       2.522  -2.874   0.144  0.00  0.00    +0.148 C 
ATOM     27  N   UNL     1       3.716  -2.114  -0.258  0.00  0.00    -0.280 NA
ATOM     28  C   UNL     1       3.732  -0.805   0.403  0.00  0.00    +0.121 C 
BRANCH  26  29
ATOM     29  C   UNL     1       2.647  -4.303  -0.317  0.00  0.00    +0.228 C 
ATOM     30  O   UNL     1       3.222  -4.557  -1.355  0.00  0.00    -0.274 OA
ATOM     31  N   UNL     1       2.120  -5.298   0.422  0.00  0.00    -0.328 N 
ATOM     32  H   UNL     1       1.661  -5.095   1.252  0.00  0.00    +0.145 HD
ATOM     33  H   UNL     1       2.200  -6.218   0.125  0.00  0.00    +0.145 HD
ENDBRANCH  26  29
ENDBRANCH  18  27
ENDBRANCH   1  18
TORSDOF 4
