REMARK  Name = ZINC05306880
REMARK  7 active torsions:
REMARK  status: ('A' for Active; 'I' for Inactive)
REMARK    1  A    between atoms: C_1  and  C_2
REMARK    2  A    between atoms: C_2  and  C_3
REMARK    3  A    between atoms: C_3  and  C_4
REMARK    4  A    between atoms: C_4  and  C_5
REMARK    5  A    between atoms: C_5  and  C_20
REMARK    6  A    between atoms: N_8  and  C_12
REMARK    7  A    between atoms: C_12  and  C_13
REMARK                            x       y       z     vdW  Elec       q    Type
REMARK                         _______ _______ _______ _____ _____    ______ ____
ROOT
ATOM      1  C   UNL     1       1.149   3.593   0.010  0.00  0.00    +0.138 C 
ATOM      2  C   UNL     1       1.001   4.131  -1.399  0.00  0.00    +0.251 C 
ATOM      3  O   UNL     1       1.765   3.974  -2.327  0.00  0.00    -0.272 OA
ATOM      4  N   UNL     1      -0.156   4.823  -1.405  0.00  0.00    -0.215 N 
ATOM      5  C   UNL     1      -0.753   4.796  -0.208  0.00  0.00    +0.310 C 
ATOM      6  O   UNL     1      -1.808   5.349   0.033  0.00  0.00    -0.252 OA
ATOM      7  N   UNL     1      -0.054   4.090   0.699  0.00  0.00    -0.281 N 
ATOM      8  H   UNL     1      -0.296   3.938   1.626  0.00  0.00    +0.152 HD
ENDROOT
BRANCH   1   9
ATOM      9  C   UNL     1       1.171   2.086   0.002  0.00  0.00    -0.015 A 
ATOM     10  C   UNL     1      -0.017   1.378   0.010  0.00  0.00    +0.009 A 
ATOM     11  C   UNL     1       0.002  -0.004   0.002  0.00  0.00    +0.039 A 
ATOM     12  C   UNL     1       1.211  -0.679  -0.013  0.00  0.00    +0.123 A 
ATOM     13  C   UNL     1       2.399   0.031  -0.021  0.00  0.00    +0.039 A 
ATOM     14  C   UNL     1       2.378   1.413  -0.013  0.00  0.00    +0.009 A 
ATOM     15  F   UNL     1       1.230  -2.030  -0.020  0.00  0.00    -0.205 F 
ENDBRANCH   1   9
BRANCH   1  16
ATOM     16  C   UNL     1       2.414   4.144   0.671  0.00  0.00    +0.040 C 
BRANCH  16  17
ATOM     17  C   UNL     1       2.311   5.667   0.779  0.00  0.00    +0.003 C 
BRANCH  17  19
ATOM     18  C   UNL     1       3.473   7.741   1.548  0.00  0.00    +0.004 C 
ATOM     19  C   UNL     1       3.576   6.218   1.440  0.00  0.00    -0.003 C 
ENDBRANCH  17  19
ENDBRANCH  16  17
ENDBRANCH   1  16
BRANCH   4  20
ATOM     20  C   UNL     1      -0.692   5.519  -2.577  0.00  0.00    +0.213 C 
BRANCH  20  21
ATOM     21  C   UNL     1      -0.175   6.934  -2.602  0.00  0.00    +0.234 C 
ATOM     22  O   UNL     1       0.570   7.323  -1.726  0.00  0.00    -0.274 OA
ATOM     23  N   UNL     1      -0.538   7.768  -3.596  0.00  0.00    -0.300 N 
ATOM     24  C   UNL     1      -1.425   7.426  -4.719  0.00  0.00    +0.108 C 
ATOM     25  C   UNL     1      -1.534   8.679  -5.613  0.00  0.00    +0.020 C 
ATOM     26  C   UNL     1      -0.249   9.472  -5.256  0.00  0.00    +0.020 C 
ATOM     27  C   UNL     1      -0.108   9.170  -3.743  0.00  0.00    +0.108 C 
ENDBRANCH  20  21
ENDBRANCH   4  20
TORSDOF 6
