REMARK  Name = ZINC36313059
REMARK  19 active torsions:
REMARK  status: ('A' for Active; 'I' for Inactive)
REMARK    1  A    between atoms: C_1  and  C_2
REMARK    2  A    between atoms: C_2  and  C_3
REMARK    3  A    between atoms: C_3  and  C_4
REMARK    4  A    between atoms: C_4  and  O_6
REMARK    5  A    between atoms: O_6  and  C_7
REMARK    6  A    between atoms: C_7  and  C_8
REMARK    7  A    between atoms: C_8  and  C_10
REMARK    8  A    between atoms: C_8  and  O_37
REMARK    9  A    between atoms: C_10  and  N_11
REMARK   10  A    between atoms: N_11  and  C_12
REMARK   11  A    between atoms: N_11  and  C_20
REMARK   12  A    between atoms: C_12  and  C_13
REMARK   13  A    between atoms: C_20  and  C_21
REMARK   14  A    between atoms: C_22  and  C_31
REMARK   15  A    between atoms: C_25  and  N_26
REMARK   16  A    between atoms: N_26  and  C_27
REMARK   17  A    between atoms: N_26  and  C_29
REMARK   18  A    between atoms: C_27  and  C_28
REMARK   19  A    between atoms: C_29  and  C_30
REMARK                            x       y       z     vdW  Elec       q    Type
REMARK                         _______ _______ _______ _____ _____    ______ ____
ROOT
ATOM      1  N   UNL     1      -4.675  -6.495  -0.013  0.00  0.00    +0.387 N 
ATOM      2  H   UNL     1      -5.211  -5.915   0.615  0.00  0.00    -0.081 HD
ENDROOT
BRANCH   1   3
ATOM      3  C   UNL     1      -5.208  -6.366  -1.375  0.00  0.00    -0.040 C 
BRANCH   3   4
ATOM      4  C   UNL     1      -6.663  -6.761  -1.384  0.00  0.00    -0.029 A 
ATOM      5  C   UNL     1      -7.039  -8.004  -1.858  0.00  0.00    +0.004 A 
ATOM      6  C   UNL     1      -8.373  -8.366  -1.866  0.00  0.00    +0.000 A 
ATOM      7  C   UNL     1      -9.332  -7.485  -1.401  0.00  0.00    +0.003 A 
ATOM      8  C   UNL     1      -8.959  -6.243  -0.926  0.00  0.00    +0.038 A 
ATOM      9  C   UNL     1      -7.622  -5.881  -0.913  0.00  0.00    +0.125 A 
ATOM     10  F   UNL     1      -7.255  -4.668  -0.445  0.00  0.00    -0.205 F 
ENDBRANCH   3   4
ENDBRANCH   1   3
BRANCH   1  11
ATOM     11  C   UNL     1      -4.765  -7.897   0.418  0.00  0.00    -0.035 C 
BRANCH  11  12
ATOM     12  C   UNL     1      -4.239  -8.025   1.824  0.00  0.00    +0.025 A 
ATOM     13  C   UNL     1      -2.912  -8.334   2.189  0.00  0.00    +0.117 A 
ATOM     14  N   UNL     1      -2.847  -8.354   3.500  0.00  0.00    -0.076 NA
ATOM     15  O   UNL     1      -4.136  -8.058   4.007  0.00  0.00    -0.339 OA
ATOM     16  C   UNL     1      -4.958  -7.859   2.963  0.00  0.00    +0.222 A 
BRANCH  13  17
ATOM     17  C   UNL     1      -1.787  -8.590   1.255  0.00  0.00    +0.004 A 
ATOM     18  C   UNL     1      -1.982  -9.385   0.128  0.00  0.00    +0.010 A 
ATOM     19  C   UNL     1      -0.932  -9.620  -0.738  0.00  0.00    +0.001 A 
ATOM     20  C   UNL     1       0.311  -9.068  -0.487  0.00  0.00    +0.000 A 
ATOM     21  C   UNL     1       0.510  -8.278   0.631  0.00  0.00    +0.001 A 
ATOM     22  C   UNL     1      -0.534  -8.032   1.500  0.00  0.00    +0.010 A 
ENDBRANCH  13  17
BRANCH  16  23
ATOM     23  N   UNL     1      -6.302  -7.541   3.037  0.00  0.00    -0.300 N 
BRANCH  23  24
ATOM     24  C   UNL     1      -6.949  -7.391   4.342  0.00  0.00    +0.104 C 
ATOM     25  C   UNL     1      -6.949  -5.915   4.745  0.00  0.00    +0.024 C 
ENDBRANCH  23  24
BRANCH  23  26
ATOM     26  C   UNL     1      -7.079  -7.354   1.808  0.00  0.00    +0.104 C 
ATOM     27  C   UNL     1      -7.652  -8.699   1.358  0.00  0.00    +0.024 C 
ENDBRANCH  23  26
ENDBRANCH  16  23
ENDBRANCH  11  12
ENDBRANCH   1  11
BRANCH   1  28
ATOM     28  C   UNL     1      -3.269  -6.067   0.005  0.00  0.00    -0.043 C 
BRANCH  28  29
ATOM     29  C   UNL     1      -3.191  -4.564  -0.271  0.00  0.00    +0.136 C 
BRANCH  29  30
ATOM     30  O   UNL     1      -3.578  -4.307  -1.622  0.00  0.00    -0.390 OA
ATOM     31  H   UNL     1      -3.024  -4.748  -2.281  0.00  0.00    +0.210 HD
ENDBRANCH  29  30
BRANCH  29  32
ATOM     32  C   UNL     1      -1.756  -4.080  -0.051  0.00  0.00    +0.261 C 
BRANCH  32  33
ATOM     33  O   UNL     1      -1.706  -2.659  -0.195  0.00  0.00    -0.462 OA
BRANCH  33  34
ATOM     34  C   UNL     1      -0.510  -2.071  -0.031  0.00  0.00    +0.307 C 
ATOM     35  O   UNL     1       0.462  -2.742   0.226  0.00  0.00    -0.251 OA
BRANCH  34  36
ATOM     36  C   UNL     1      -0.380  -0.576  -0.168  0.00  0.00    +0.120 C 
BRANCH  36  38
ATOM     37  C   UNL     1       1.208   1.350  -0.074  0.00  0.00    +0.004 C 
ATOM     38  C   UNL     1       1.076  -0.168   0.065  0.00  0.00    +0.008 C 
ENDBRANCH  36  38
ENDBRANCH  34  36
ENDBRANCH  33  34
ENDBRANCH  32  33
ENDBRANCH  29  32
ENDBRANCH  28  29
ENDBRANCH   1  28
TORSDOF 16
