REMARK  Name = ZINC54621791
REMARK  7 active torsions:
REMARK  status: ('A' for Active; 'I' for Inactive)
REMARK    1  A    between atoms: C_1  and  C_2
REMARK    2  A    between atoms: C_4  and  N_29
REMARK    3  A    between atoms: C_7  and  N_8
REMARK    4  A    between atoms: N_8  and  C_9
REMARK    5  A    between atoms: C_9  and  C_11
REMARK    6  A    between atoms: C_9  and  C_18
REMARK    7  A    between atoms: C_27  and  O_28
REMARK                            x       y       z     vdW  Elec       q    Type
REMARK                         _______ _______ _______ _____ _____    ______ ____
ROOT
ATOM      1  C   UNL     1       0.047  -0.758   3.678  0.00  0.00    +0.135 C 
ENDROOT
BRANCH   1   2
ATOM      2  C   UNL     1       0.756   0.058   4.728  0.00  0.00    +0.021 A 
ATOM      3  C   UNL     1       0.710   1.448   4.662  0.00  0.00    +0.010 A 
ATOM      4  C   UNL     1       1.341   2.215   5.595  0.00  0.00    +0.010 A 
ATOM      5  C   UNL     1       2.049   1.598   6.640  0.00  0.00    +0.004 A 
ATOM      6  C   UNL     1       2.712   2.357   7.623  0.00  0.00    +0.011 A 
ATOM      7  C   UNL     1       3.380   1.690   8.609  0.00  0.00    +0.020 A 
ATOM      8  C   UNL     1       3.391   0.296   8.622  0.00  0.00    +0.111 A 
ATOM      9  N   UNL     1       2.772  -0.406   7.705  0.00  0.00    -0.251 NA
ATOM     10  C   UNL     1       2.100   0.185   6.713  0.00  0.00    +0.113 A 
ATOM     11  C   UNL     1       1.430  -0.577   5.732  0.00  0.00    +0.148 A 
BRANCH  11  12
ATOM     12  O   UNL     1       1.460  -1.934   5.783  0.00  0.00    -0.504 OA
ATOM     13  H   UNL     1       2.201  -2.329   5.304  0.00  0.00    +0.292 HD
ENDBRANCH  11  12
ENDBRANCH   1   2
BRANCH   1  14
ATOM     14  C   UNL     1      -1.345  -1.086   4.153  0.00  0.00    -0.023 A 
ATOM     15  C   UNL     1      -2.352  -0.144   4.044  0.00  0.00    +0.008 A 
ATOM     16  C   UNL     1      -3.629  -0.444   4.478  0.00  0.00    +0.038 A 
ATOM     17  C   UNL     1      -3.900  -1.687   5.023  0.00  0.00    +0.123 A 
ATOM     18  C   UNL     1      -2.892  -2.629   5.132  0.00  0.00    +0.038 A 
ATOM     19  C   UNL     1      -1.616  -2.329   4.692  0.00  0.00    +0.008 A 
ATOM     20  F   UNL     1      -5.149  -1.981   5.448  0.00  0.00    -0.205 F 
ENDBRANCH   1  14
BRANCH   1  21
ATOM     21  N   UNL     1      -0.029   0.009   2.433  0.00  0.00    -0.333 N 
ATOM     22  H   UNL     1      -0.004   0.978   2.457  0.00  0.00    +0.147 HD
BRANCH  21  29
ATOM     23  C   UNL     1      -0.172   1.576   0.062  0.00  0.00    +0.046 C 
ATOM     24  C   UNL     1      -0.212   0.070   0.027  0.00  0.00    -0.027 A 
ATOM     25  C   UNL     1      -0.314  -0.591  -1.182  0.00  0.00    +0.038 A 
ATOM     26  C   UNL     1      -0.350  -1.973  -1.215  0.00  0.00    +0.127 A 
ATOM     27  C   UNL     1      -0.284  -2.698  -0.040  0.00  0.00    +0.034 A 
ATOM     28  C   UNL     1      -0.181  -2.044   1.172  0.00  0.00    +0.025 A 
ATOM     29  C   UNL     1      -0.139  -0.656   1.209  0.00  0.00    +0.031 A 
BRANCH  26  30
ATOM     30  N   UNL     1      -0.461  -2.677  -2.512  0.00  0.00    +0.056 N 
ATOM     31  O   UNL     1      -0.519  -2.044  -3.541  0.00  0.00    -0.126 OA
ATOM     32  O   UNL     1      -0.493  -3.885  -2.543  0.00  0.00    -0.126 OA
ENDBRANCH  26  30
ENDBRANCH  21  29
ENDBRANCH   1  21
TORSDOF 6
