REMARK  Name = ZINC09089893
REMARK  7 active torsions:
REMARK  status: ('A' for Active; 'I' for Inactive)
REMARK    1  A    between atoms: C_1  and  C_2
REMARK    2  A    between atoms: C_2  and  O_3
REMARK    3  A    between atoms: O_3  and  C_4
REMARK    4  A    between atoms: C_7  and  N_10
REMARK    5  A    between atoms: C_14  and  C_19
REMARK    6  A    between atoms: C_19  and  N_57
REMARK    7  A    between atoms: N_22  and  C_25
REMARK                            x       y       z     vdW  Elec       q    Type
REMARK                         _______ _______ _______ _____ _____    ______ ____
ROOT
ATOM      1  N   UNL     1      -2.405   4.945   0.042  0.00  0.00    -0.213 NA
ATOM      2  C   UNL     1      -2.385   3.622   0.029  0.00  0.00    +0.233 A 
ATOM      3  N   UNL     1      -3.564   2.904   0.037  0.00  0.00    -0.314 N 
ATOM      4  H   UNL     1      -4.418   3.364   0.052  0.00  0.00    +0.170 HD
ATOM      5  C   UNL     1      -3.513   1.553   0.023  0.00  0.00    +0.097 A 
ATOM      6  N   UNL     1      -2.356   0.942   0.002  0.00  0.00    -0.204 NA
ATOM      7  C   UNL     1      -1.209   1.637  -0.006  0.00  0.00    +0.217 A 
ATOM      8  N   UNL     1      -1.218   2.960   0.012  0.00  0.00    -0.179 NA
ATOM      9  N   UNL     1      -0.010   0.967  -0.028  0.00  0.00    -0.327 N 
ATOM     10  H   UNL     1       0.004  -0.003  -0.037  0.00  0.00    +0.145 HD
ATOM     11  H   UNL     1       0.823   1.464  -0.037  0.00  0.00    +0.145 HD
ENDROOT
BRANCH   1  15
ATOM     12  C   UNL     1       1.137   7.067   0.349  0.00  0.00    +0.121 A 
ATOM     13  C   UNL     1       0.590   6.810  -0.901  0.00  0.00    +0.048 A 
ATOM     14  C   UNL     1      -0.589   6.104  -1.008  0.00  0.00    +0.031 A 
ATOM     15  C   UNL     1      -1.234   5.646   0.143  0.00  0.00    +0.068 A 
ATOM     16  C   UNL     1      -0.683   5.911   1.399  0.00  0.00    +0.031 A 
ATOM     17  C   UNL     1       0.500   6.615   1.496  0.00  0.00    +0.048 A 
BRANCH  12  18
ATOM     18  O   UNL     1       2.300   7.765   0.450  0.00  0.00    -0.492 OA
BRANCH  18  20
ATOM     19  C   UNL     1       4.112   8.788   1.679  0.00  0.00    +0.048 C 
ATOM     20  C   UNL     1       2.807   7.994   1.766  0.00  0.00    +0.225 C 
ENDBRANCH  18  20
ENDBRANCH  12  18
ENDBRANCH   1  15
BRANCH   5  21
ATOM     21  C   UNL     1      -4.789   0.751   0.032  0.00  0.00    -0.003 C 
BRANCH  21  27
ATOM     22  C   UNL     1      -4.215  -0.408   2.080  0.00  0.00    -0.059 C 
ATOM     23  C   UNL     1      -4.620  -0.604   3.542  0.00  0.00    +0.086 C 
ATOM     24  N   UNL     1      -5.973  -1.174   3.601  0.00  0.00    -0.331 N 
ATOM     25  C   UNL     1      -6.944  -0.289   2.941  0.00  0.00    +0.086 C 
ATOM     26  C   UNL     1      -6.538  -0.093   1.478  0.00  0.00    -0.059 C 
ATOM     27  N   UNL     1      -5.186   0.501   1.434  0.00  0.00    +0.386 N 
ATOM     28  H   UNL     1      -5.196   1.393   1.942  0.00  0.00    -0.081 HD
BRANCH  24  29
ATOM     29  C   UNL     1      -6.351  -1.435   4.922  0.00  0.00    +0.065 A 
ATOM     30  C   UNL     1      -7.566  -2.050   5.190  0.00  0.00    +0.026 A 
ATOM     31  C   UNL     1      -7.936  -2.306   6.496  0.00  0.00    +0.002 A 
ATOM     32  C   UNL     1      -7.099  -1.951   7.537  0.00  0.00    +0.003 A 
ATOM     33  C   UNL     1      -5.887  -1.338   7.275  0.00  0.00    +0.040 A 
ATOM     34  C   UNL     1      -5.507  -1.083   5.970  0.00  0.00    +0.144 A 
ATOM     35  F   UNL     1      -4.321  -0.489   5.714  0.00  0.00    -0.204 F 
ENDBRANCH  24  29
ENDBRANCH  21  27
ENDBRANCH   5  21
TORSDOF 6
