REMARK  Name = ZINC23235401
REMARK  6 active torsions:
REMARK  status: ('A' for Active; 'I' for Inactive)
REMARK    1  A    between atoms: C_6  and  S_7
REMARK    2  A    between atoms: S_7  and  N_10
REMARK    3  A    between atoms: C_14  and  C_16
REMARK    4  A    between atoms: N_18  and  C_19
REMARK    5  A    between atoms: C_19  and  C_20
REMARK    6  A    between atoms: C_20  and  C_21
REMARK                            x       y       z     vdW  Elec       q    Type
REMARK                         _______ _______ _______ _____ _____    ______ ____
ROOT
ATOM      1  N   UNL     1      -3.005  -3.831  -0.008  0.00  0.00    -0.165 NA
ATOM      2  C   UNL     1      -3.683  -4.287  -1.235  0.00  0.00    +0.110 C 
ATOM      3  C   UNL     1      -4.621  -3.118  -1.627  0.00  0.00    +0.019 C 
ATOM      4  C   UNL     1      -3.759  -1.885  -1.247  0.00  0.00    +0.031 C 
ATOM      5  C   UNL     1      -3.014  -2.361   0.018  0.00  0.00    +0.165 C 
ENDROOT
BRANCH   5   6
ATOM      6  C   UNL     1      -1.601  -1.839   0.007  0.00  0.00    +0.232 C 
ATOM      7  O   UNL     1      -0.668  -2.615  -0.006  0.00  0.00    -0.274 OA
ATOM      8  N   UNL     1      -1.372  -0.511   0.012  0.00  0.00    -0.314 N 
ATOM      9  H   UNL     1      -2.218   0.192   0.024  0.00  0.00    +0.149 HD
BRANCH   8  10
ATOM     10  C   UNL     1       0.002  -0.004   0.002  0.00  0.00    +0.108 C 
BRANCH  10  11
ATOM     11  C   UNL     1      -0.019   1.526   0.010  0.00  0.00    +0.049 C 
BRANCH  11  12
ATOM     12  C   UNL     1       1.395   2.047  -0.000  0.00  0.00    -0.072 C 
ATOM     13  C   UNL     1       1.921   2.352  -1.143  0.00  0.00    -0.028 C 
ATOM     14  C   UNL     1       3.317   2.877  -1.313  0.00  0.00    +0.027 C 
ATOM     15  C   UNL     1       3.858   3.382   0.026  0.00  0.00    +0.004 C 
ATOM     16  C   UNL     1       3.616   2.300   1.086  0.00  0.00    +0.005 C 
ATOM     17  C   UNL     1       2.108   2.175   1.314  0.00  0.00    +0.030 C 
ENDBRANCH  11  12
ENDBRANCH  10  11
ENDBRANCH   8  10
ENDBRANCH   5   6
BRANCH   1  18
ATOM     18  S   UNL     1      -2.343  -4.812   1.150  0.00  0.00    +0.062 S 
ATOM     19  O   UNL     1      -2.047  -6.048   0.514  0.00  0.00    -0.153 OA
ATOM     20  O   UNL     1      -1.352  -4.043   1.817  0.00  0.00    -0.153 OA
BRANCH  18  26
ATOM     21  C   UNL     1      -4.432  -6.239   2.172  0.00  0.00    +0.032 A 
ATOM     22  C   UNL     1      -5.424  -6.503   3.099  0.00  0.00    +0.051 A 
ATOM     23  C   UNL     1      -5.590  -5.669   4.194  0.00  0.00    +0.162 A 
ATOM     24  C   UNL     1      -4.756  -4.570   4.359  0.00  0.00    +0.164 A 
ATOM     25  C   UNL     1      -3.760  -4.314   3.428  0.00  0.00    +0.078 A 
ATOM     26  C   UNL     1      -3.604  -5.145   2.335  0.00  0.00    +0.109 A 
ATOM     27  O   UNL     1      -4.897  -3.742   5.431  0.00  0.00    -0.485 OA
ATOM     28  C   UNL     1      -6.138  -3.816   6.141  0.00  0.00    +0.270 C 
ATOM     29  C   UNL     1      -6.473  -5.296   6.370  0.00  0.00    +0.270 C 
ATOM     30  O   UNL     1      -6.576  -5.936   5.094  0.00  0.00    -0.485 OA
ENDBRANCH  18  26
ENDBRANCH   1  18
TORSDOF 6
