REMARK  Name = ZINC43147170
REMARK  10 active torsions:
REMARK  status: ('A' for Active; 'I' for Inactive)
REMARK    1  A    between atoms: C_1  and  C_2
REMARK    2  A    between atoms: C_2  and  C_4
REMARK    3  A    between atoms: C_2  and  O_20
REMARK    4  A    between atoms: N_6  and  N_7
REMARK    5  A    between atoms: N_10  and  C_11
REMARK    6  A    between atoms: C_11  and  C_12
REMARK    7  A    between atoms: C_12  and  N_17
REMARK    8  A    between atoms: N_17  and  C_18
REMARK    9  A    between atoms: N_17  and  C_19
REMARK   10  A    between atoms: O_20  and  C_21
REMARK                            x       y       z     vdW  Elec       q    Type
REMARK                         _______ _______ _______ _____ _____    ______ ____
ROOT
ATOM      1  N   UNL     1       0.579  -0.637  -3.290  0.00  0.00    -0.218 N 
ATOM      2  C   UNL     1       0.033  -0.515  -4.516  0.00  0.00    +0.316 C 
ATOM      3  O   UNL     1       0.575  -1.026  -5.477  0.00  0.00    -0.251 OA
ATOM      4  N   UNL     1      -1.114   0.174  -4.677  0.00  0.00    -0.300 N 
ATOM      5  H   UNL     1       1.405  -1.133  -3.175  0.00  0.00    +0.174 HD
ATOM      6  H   UNL     1      -1.547   0.582  -3.911  0.00  0.00    +0.150 HD
ENDROOT
BRANCH   1   9
ATOM      7  C   UNL     1       0.501  -0.171  -0.957  0.00  0.00    +0.270 C 
ATOM      8  O   UNL     1       1.533  -0.790  -0.812  0.00  0.00    -0.270 OA
ATOM      9  N   UNL     1      -0.046  -0.048  -2.183  0.00  0.00    -0.230 N 
ATOM     10  H   UNL     1      -0.871   0.448  -2.299  0.00  0.00    +0.173 HD
BRANCH   7  12
ATOM     11  C   UNL     1      -0.155   1.985   0.078  0.00  0.00    +0.062 C 
ATOM     12  C   UNL     1      -0.171   0.463   0.234  0.00  0.00    +0.257 C 
BRANCH  12  13
ATOM     13  O   UNL     1       0.528   0.099   1.425  0.00  0.00    -0.477 OA
BRANCH  13  14
ATOM     14  C   UNL     1      -0.172   0.140   2.590  0.00  0.00    +0.157 A 
ATOM     15  C   UNL     1      -1.520   0.464   2.578  0.00  0.00    +0.048 A 
ATOM     16  C   UNL     1      -2.231   0.505   3.762  0.00  0.00    +0.004 A 
ATOM     17  C   UNL     1      -1.599   0.224   4.960  0.00  0.00    +0.003 A 
ATOM     18  C   UNL     1      -0.255  -0.100   4.976  0.00  0.00    +0.042 A 
ATOM     19  C   UNL     1       0.460  -0.149   3.792  0.00  0.00    +0.165 A 
ATOM     20  F   UNL     1       1.772  -0.470   3.807  0.00  0.00    -0.202 F 
ENDBRANCH  13  14
ENDBRANCH  12  13
ENDBRANCH   7  12
ENDBRANCH   1   9
BRANCH   4  21
ATOM     21  C   UNL     1      -1.708   0.307  -6.010  0.00  0.00    +0.094 C 
BRANCH  21  22
ATOM     22  C   UNL     1      -2.925   1.232  -5.936  0.00  0.00    -0.050 C 
ATOM     23  C   UNL     1      -4.028   0.586  -5.072  0.00  0.00    -0.010 C 
ATOM     24  C   UNL     1      -5.347   0.984  -5.780  0.00  0.00    -0.001 C 
ATOM     25  C   UNL     1      -4.970   0.894  -7.280  0.00  0.00    -0.001 C 
ATOM     26  C   UNL     1      -3.524   1.427  -7.340  0.00  0.00    -0.010 C 
BRANCH  22  27
ATOM     27  N   UNL     1      -2.536   2.530  -5.370  0.00  0.00    +0.381 N 
ATOM     28  C   UNL     1      -1.557   3.176  -6.253  0.00  0.00    -0.096 C 
ATOM     29  C   UNL     1      -3.724   3.385  -5.245  0.00  0.00    -0.096 C 
ATOM     30  H   UNL     1      -2.126   2.390  -4.458  0.00  0.00    -0.082 HD
ENDBRANCH  22  27
ENDBRANCH  21  22
ENDBRANCH   4  21
TORSDOF 7
