REMARK  Name = ZINC12196865
REMARK  9 active torsions:
REMARK  status: ('A' for Active; 'I' for Inactive)
REMARK    1  A    between atoms: C_1  and  N_2
REMARK    2  A    between atoms: C_6  and  S_12
REMARK    3  A    between atoms: S_12  and  N_15
REMARK    4  A    between atoms: N_15  and  C_16
REMARK    5  A    between atoms: C_16  and  C_17
REMARK    6  A    between atoms: C_17  and  C_19
REMARK    7  A    between atoms: C_17  and  N_52
REMARK    8  A    between atoms: C_28  and  N_52
REMARK    9  A    between atoms: C_29  and  N_52
REMARK                            x       y       z     vdW  Elec       q    Type
REMARK                         _______ _______ _______ _____ _____    ______ ____
ROOT
ATOM      1  N   UNL     1      -2.528  -1.213   1.977  0.00  0.00    -0.191 NA
ATOM      2  H   UNL     1      -3.187  -1.629   1.400  0.00  0.00    +0.148 HD
ENDROOT
BRANCH   1   3
ATOM      3  S   UNL     1      -2.659  -1.356   3.621  0.00  0.00    +0.058 S 
ATOM      4  O   UNL     1      -3.837  -2.110   3.871  0.00  0.00    -0.153 OA
ATOM      5  O   UNL     1      -1.382  -1.758   4.097  0.00  0.00    -0.153 OA
BRANCH   3  11
ATOM      6  C   UNL     1      -3.017   5.115   6.217  0.00  0.00    +0.138 C 
ATOM      7  N   UNL     1      -3.882   4.029   5.750  0.00  0.00    -0.274 N 
ATOM      8  C   UNL     1      -3.407   2.807   5.273  0.00  0.00    +0.040 A 
ATOM      9  C   UNL     1      -2.106   2.330   5.125  0.00  0.00    +0.026 A 
ATOM     10  C   UNL     1      -1.885   1.062   4.629  0.00  0.00    +0.030 A 
ATOM     11  C   UNL     1      -2.950   0.260   4.262  0.00  0.00    +0.106 A 
ATOM     12  C   UNL     1      -4.245   0.726   4.406  0.00  0.00    +0.034 A 
ATOM     13  C   UNL     1      -4.468   1.989   4.907  0.00  0.00    -0.015 A 
ATOM     14  C   UNL     1      -5.728   2.778   5.182  0.00  0.00    +0.133 C 
ATOM     15  C   UNL     1      -5.224   4.096   5.730  0.00  0.00    +0.224 C 
ATOM     16  O   UNL     1      -5.904   5.035   6.086  0.00  0.00    -0.275 OA
ENDBRANCH   3  11
ENDBRANCH   1   3
BRANCH   1  17
ATOM     17  C   UNL     1      -1.416  -0.459   1.393  0.00  0.00    +0.095 C 
BRANCH  17  18
ATOM     18  C   UNL     1      -1.203  -0.902  -0.056  0.00  0.00    -0.023 C 
BRANCH  18  19
ATOM     19  C   UNL     1      -0.095  -0.088  -0.673  0.00  0.00    -0.056 A 
ATOM     20  C   UNL     1      -0.323   1.227  -1.031  0.00  0.00    +0.006 A 
ATOM     21  C   UNL     1       0.690   1.978  -1.598  0.00  0.00    +0.050 A 
ATOM     22  C   UNL     1       1.938   1.413  -1.808  0.00  0.00    +0.166 A 
ATOM     23  C   UNL     1       2.167   0.087  -1.446  0.00  0.00    +0.166 A 
ATOM     24  C   UNL     1       1.147  -0.659  -0.879  0.00  0.00    +0.051 A 
ATOM     25  O   UNL     1       3.459  -0.230  -1.752  0.00  0.00    -0.453 OA
ATOM     26  C   UNL     1       3.897   0.784  -2.675  0.00  0.00    +0.466 C 
ATOM     27  O   UNL     1       3.086   1.925  -2.339  0.00  0.00    -0.453 OA
ENDBRANCH  18  19
BRANCH  18  30
ATOM     28  C   UNL     1      -3.204   0.442  -0.287  0.00  0.00    -0.096 C 
ATOM     29  C   UNL     1      -2.160  -0.522  -2.248  0.00  0.00    -0.096 C 
ATOM     30  N   UNL     1      -2.459  -0.721  -0.814  0.00  0.00    +0.381 N 
ATOM     31  H   UNL     1      -3.037  -1.563  -0.708  0.00  0.00    -0.082 HD
ENDBRANCH  18  30
ENDBRANCH  17  18
ENDBRANCH   1  17
TORSDOF 6
