REMARK  Name = ZINC48020714
REMARK  8 active torsions:
REMARK  status: ('A' for Active; 'I' for Inactive)
REMARK    1  A    between atoms: C_1  and  C_2
REMARK    2  A    between atoms: C_5  and  C_29
REMARK    3  A    between atoms: N_8  and  C_10
REMARK    4  A    between atoms: C_10  and  C_11
REMARK    5  A    between atoms: C_11  and  N_12
REMARK    6  A    between atoms: N_15  and  C_16
REMARK    7  A    between atoms: C_16  and  C_18
REMARK    8  A    between atoms: C_16  and  C_19
REMARK                            x       y       z     vdW  Elec       q    Type
REMARK                         _______ _______ _______ _____ _____    ______ ____
ROOT
ATOM      1  N   UNL     1       2.819  -0.203   4.893  0.00  0.00    -0.301 N 
ATOM      2  C   UNL     1       2.398   0.248   6.091  0.00  0.00    +0.300 C 
ATOM      3  O   UNL     1       1.450   1.007   6.155  0.00  0.00    -0.253 OA
ATOM      4  N   UNL     1       3.026  -0.142   7.217  0.00  0.00    -0.293 N 
ATOM      5  H   UNL     1       3.575  -0.809   4.842  0.00  0.00    +0.150 HD
ATOM      6  H   UNL     1       3.782  -0.748   7.166  0.00  0.00    +0.151 HD
ENDROOT
BRANCH   4   7
ATOM      7  C   UNL     1       2.568   0.348   8.519  0.00  0.00    +0.102 C 
ATOM      8  C   UNL     1       1.427  -0.536   9.025  0.00  0.00    +0.033 C 
BRANCH   7   9
ATOM      9  C   UNL     1       3.710   0.306   9.502  0.00  0.00    -0.024 A 
ATOM     10  C   UNL     1       4.587  -0.763   9.495  0.00  0.00    +0.009 A 
ATOM     11  C   UNL     1       5.634  -0.806  10.396  0.00  0.00    +0.050 A 
ATOM     12  C   UNL     1       5.808   0.223  11.310  0.00  0.00    +0.162 A 
ATOM     13  C   UNL     1       4.928   1.298  11.315  0.00  0.00    +0.162 A 
ATOM     14  C   UNL     1       3.881   1.338  10.406  0.00  0.00    +0.055 A 
ATOM     15  O   UNL     1       5.085   2.322  12.198  0.00  0.00    -0.485 OA
ATOM     16  C   UNL     1       5.922   2.072  13.332  0.00  0.00    +0.270 C 
ATOM     17  C   UNL     1       7.205   1.389  12.840  0.00  0.00    +0.270 C 
ATOM     18  O   UNL     1       6.841   0.164  12.193  0.00  0.00    -0.485 OA
ENDBRANCH   7   9
ENDBRANCH   4   7
BRANCH   1  19
ATOM     19  C   UNL     1       2.136   0.221   3.668  0.00  0.00    +0.087 C 
BRANCH  19  20
ATOM     20  C   UNL     1       2.808  -0.431   2.458  0.00  0.00    -0.060 C 
BRANCH  20  26
ATOM     21  C   UNL     1      -0.019   1.526   0.010  0.00  0.00    +0.005 C 
ATOM     22  C   UNL     1       0.002  -0.004   0.002  0.00  0.00    -0.031 C 
ATOM     23  C   UNL     1       0.721  -0.499  -1.257  0.00  0.00    +0.003 C 
ATOM     24  C   UNL     1       2.177  -0.027  -1.220  0.00  0.00    -0.031 C 
ATOM     25  C   UNL     1       2.839  -0.534   0.063  0.00  0.00    -0.076 C 
ATOM     26  N   UNL     1       2.123  -0.005   1.230  0.00  0.00    +0.381 N 
ATOM     27  C   UNL     1       0.744  -0.512   1.240  0.00  0.00    -0.076 C 
ATOM     28  C   UNL     1       2.924  -0.581  -2.434  0.00  0.00    +0.005 C 
ATOM     29  H   UNL     1       2.109   1.003   1.187  0.00  0.00    -0.082 HD
ENDBRANCH  20  26
ENDBRANCH  19  20
ENDBRANCH   1  19
TORSDOF 5
