REMARK  Name = ZINC12320651
REMARK  8 active torsions:
REMARK  status: ('A' for Active; 'I' for Inactive)
REMARK    1  A    between atoms: C_1  and  C_2
REMARK    2  A    between atoms: N_10  and  C_11
REMARK    3  A    between atoms: C_11  and  C_12
REMARK    4  A    between atoms: C_12  and  N_13
REMARK    5  A    between atoms: C_14  and  C_16
REMARK    6  A    between atoms: C_16  and  C_17
REMARK    7  A    between atoms: C_24  and  C_25
REMARK    8  A    between atoms: C_24  and  N_55
REMARK                            x       y       z     vdW  Elec       q    Type
REMARK                         _______ _______ _______ _____ _____    ______ ____
ROOT
ATOM      1  N   UNL     1       1.540   7.303  -1.739  0.00  0.00    -0.314 N 
ATOM      2  C   UNL     1       2.165   7.888  -2.781  0.00  0.00    +0.212 C 
ATOM      3  O   UNL     1       1.923   7.526  -3.913  0.00  0.00    -0.276 OA
ATOM      4  H   UNL     1       1.733   7.593  -0.834  0.00  0.00    +0.149 HD
ENDROOT
BRANCH   1   5
ATOM      5  C   UNL     1       0.571   6.231  -1.975  0.00  0.00    +0.125 C 
BRANCH   5   6
ATOM      6  C   UNL     1       0.013   5.745  -0.636  0.00  0.00    +0.141 C 
BRANCH   6  16
ATOM      7  C   UNL     1      -2.999   6.189  -1.068  0.00  0.00    +0.063 C 
ATOM      8  C   UNL     1      -2.299   4.855  -1.065  0.00  0.00    +0.017 A 
ATOM      9  C   UNL     1      -2.900   3.669  -1.252  0.00  0.00    +0.031 A 
ATOM     10  C   UNL     1      -1.857   2.643  -1.172  0.00  0.00    +0.000 A 
ATOM     11  C   UNL     1      -1.854   1.252  -1.287  0.00  0.00    +0.010 A 
ATOM     12  C   UNL     1      -0.681   0.563  -1.154  0.00  0.00    +0.001 A 
ATOM     13  C   UNL     1       0.509   1.237  -0.915  0.00  0.00    +0.002 A 
ATOM     14  C   UNL     1       0.529   2.610  -0.803  0.00  0.00    +0.026 A 
ATOM     15  C   UNL     1      -0.654   3.331  -0.930  0.00  0.00    +0.049 A 
ATOM     16  N   UNL     1      -0.957   4.672  -0.871  0.00  0.00    -0.343 N 
ENDBRANCH   6  16
ENDBRANCH   5   6
ENDBRANCH   1   5
BRANCH   2  17
ATOM     17  C   UNL     1       3.162   8.991  -2.539  0.00  0.00    +0.089 C 
BRANCH  17  18
ATOM     18  C   UNL     1       3.625   9.564  -3.880  0.00  0.00    +0.028 C 
ATOM     19  C   UNL     1       2.439  10.112  -4.623  0.00  0.00    +0.200 C 
ATOM     20  O   UNL     1       1.616  10.757  -4.010  0.00  0.00    -0.278 OA
ATOM     21  N   UNL     1       2.255   9.919  -5.934  0.00  0.00    -0.318 N 
ATOM     22  C   UNL     1       3.167   9.129  -6.756  0.00  0.00    +0.085 C 
ATOM     23  C   UNL     1       4.511   8.970  -6.043  0.00  0.00    -0.058 C 
ATOM     24  H   UNL     1       1.480  10.322  -6.357  0.00  0.00    +0.149 HD
ATOM     25  N   UNL     1       4.247   8.487  -4.672  0.00  0.00    +0.391 N 
ATOM     26  H   UNL     1       3.604   7.688  -4.716  0.00  0.00    -0.080 HD
BRANCH  25  27
ATOM     27  C   UNL     1       5.511   8.055  -4.034  0.00  0.00    -0.039 C 
BRANCH  27  28
ATOM     28  C   UNL     1       6.187   7.037  -4.917  0.00  0.00    -0.026 A 
ATOM     29  C   UNL     1       7.132   7.301  -5.936  0.00  0.00    +0.043 A 
ATOM     30  C   UNL     1       7.473   6.113  -6.467  0.00  0.00    +0.195 A 
ATOM     31  O   UNL     1       6.789   5.150  -5.828  0.00  0.00    -0.471 OA
ATOM     32  C   UNL     1       6.012   5.704  -4.883  0.00  0.00    +0.196 A 
ENDBRANCH  27  28
ENDBRANCH  25  27
ENDBRANCH  17  18
ENDBRANCH   2  17
TORSDOF 7
