REMARK  Name = ZINC65968165
REMARK  7 active torsions:
REMARK  status: ('A' for Active; 'I' for Inactive)
REMARK    1  A    between atoms: C_1  and  C_2
REMARK    2  A    between atoms: C_5  and  N_13
REMARK    3  A    between atoms: C_7  and  S_8
REMARK    4  A    between atoms: S_8  and  N_11
REMARK    5  A    between atoms: N_11  and  C_12
REMARK    6  A    between atoms: C_14  and  C_16
REMARK    7  A    between atoms: C_16  and  N_17
REMARK                            x       y       z     vdW  Elec       q    Type
REMARK                         _______ _______ _______ _____ _____    ______ ____
ROOT
ATOM      1  N   UNL     1      -0.521  -3.836  -0.445  0.00  0.00    -0.287 N 
ATOM      2  C   UNL     1      -0.647  -4.385  -1.669  0.00  0.00    +0.201 C 
ATOM      3  O   UNL     1      -0.491  -3.702  -2.659  0.00  0.00    -0.278 OA
ATOM      4  H   UNL     1      -0.577  -4.396   0.346  0.00  0.00    +0.155 HD
ENDROOT
BRANCH   1   9
ATOM      5  C   UNL     1       0.340   1.746   0.087  0.00  0.00    +0.046 C 
ATOM      6  C   UNL     1       0.111   0.263  -0.054  0.00  0.00    -0.024 A 
ATOM      7  C   UNL     1      -0.664  -0.407   0.875  0.00  0.00    +0.007 A 
ATOM      8  C   UNL     1      -0.875  -1.766   0.748  0.00  0.00    +0.023 A 
ATOM      9  C   UNL     1      -0.309  -2.459  -0.314  0.00  0.00    +0.035 A 
ATOM     10  C   UNL     1       0.468  -1.783  -1.245  0.00  0.00    +0.052 A 
ATOM     11  C   UNL     1       0.672  -0.423  -1.115  0.00  0.00    +0.110 A 
BRANCH  11  12
ATOM     12  S   UNL     1       1.652   0.437  -2.300  0.00  0.00    +0.058 S 
ATOM     13  O   UNL     1       2.111  -0.535  -3.230  0.00  0.00    -0.153 OA
ATOM     14  O   UNL     1       0.902   1.576  -2.698  0.00  0.00    -0.153 OA
BRANCH  12  15
ATOM     15  N   UNL     1       2.991   1.004  -1.509  0.00  0.00    -0.193 NA
ATOM     16  C   UNL     1       3.952   0.063  -0.928  0.00  0.00    +0.127 C 
ATOM     17  H   UNL     1       3.139   1.960  -1.430  0.00  0.00    +0.148 HD
ENDBRANCH  12  15
ENDBRANCH  11  12
ENDBRANCH   1   9
BRANCH   2  18
ATOM     18  C   UNL     1      -0.981  -5.848  -1.808  0.00  0.00    +0.019 C 
BRANCH  18  19
ATOM     19  N   UNL     1      -1.061  -6.199  -3.232  0.00  0.00    +0.387 N 
ATOM     20  C   UNL     1      -2.073  -5.383  -3.839  0.00  0.00    -0.074 C 
ATOM     21  C   UNL     1      -2.671  -5.906  -5.114  0.00  0.00    -0.027 C 
ATOM     22  C   UNL     1      -3.931  -6.715  -4.813  0.00  0.00    +0.005 C 
ATOM     23  C   UNL     1      -3.540  -8.115  -4.351  0.00  0.00    -0.012 C 
ATOM     24  C   UNL     1      -2.817  -8.828  -5.496  0.00  0.00    +0.007 C 
ATOM     25  C   UNL     1      -1.503  -8.091  -5.759  0.00  0.00    -0.012 C 
ATOM     26  C   UNL     1      -1.735  -6.622  -6.042  0.00  0.00    +0.005 C 
ATOM     27  C   UNL     1      -0.600  -8.259  -4.534  0.00  0.00    -0.012 C 
ATOM     28  C   UNL     1      -1.263  -7.616  -3.336  0.00  0.00    -0.067 C 
ATOM     29  C   UNL     1      -2.679  -8.089  -3.100  0.00  0.00    -0.012 C 
ATOM     30  H   UNL     1      -0.177  -5.973  -3.662  0.00  0.00    -0.081 HD
ENDBRANCH  18  19
ENDBRANCH   2  18
TORSDOF 5
