REMARK  Name = ZINC44020684
REMARK  5 active torsions:
REMARK  status: ('A' for Active; 'I' for Inactive)
REMARK    1  A    between atoms: C_1  and  C_2
REMARK    2  A    between atoms: C_2  and  C_3
REMARK    3  A    between atoms: C_3  and  N_4
REMARK    4  A    between atoms: C_8  and  N_13
REMARK    5  A    between atoms: C_19  and  C_23
REMARK                            x       y       z     vdW  Elec       q    Type
REMARK                         _______ _______ _______ _____ _____    ______ ____
ROOT
ATOM      1  N   UNL     1      -1.440  -1.999   0.007  0.00  0.00    -0.261 N 
ATOM      2  C   UNL     1      -1.642  -2.664  -1.147  0.00  0.00    +0.258 A 
ATOM      3  O   UNL     1      -1.845  -2.050  -2.181  0.00  0.00    -0.267 OA
ATOM      4  C   UNL     1      -1.617  -4.068  -1.152  0.00  0.00    +0.112 A 
ATOM      5  C   UNL     1      -1.387  -4.732   0.020  0.00  0.00    +0.111 A 
ATOM      6  N   UNL     1      -1.186  -4.014   1.174  0.00  0.00    -0.295 N 
ATOM      7  H   UNL     1      -1.022  -4.479   2.009  0.00  0.00    +0.172 HD
ATOM      8  C   UNL     1      -1.210  -2.669   1.151  0.00  0.00    +0.331 A 
ATOM      9  O   UNL     1      -1.026  -2.049   2.181  0.00  0.00    -0.246 OA
ENDROOT
BRANCH   5  10
ATOM     10  N   UNL     1      -1.357  -6.106   0.044  0.00  0.00    -0.280 N 
ATOM     11  C   UNL     1      -1.237  -6.774   1.249  0.00  0.00    +0.164 A 
ATOM     12  N   UNL     1      -1.226  -6.282   2.466  0.00  0.00    -0.225 NA
ATOM     13  C   UNL     1      -1.101  -7.060   3.563  0.00  0.00    +0.080 A 
ATOM     14  C   UNL     1      -1.074  -6.660   4.919  0.00  0.00    +0.029 A 
ATOM     15  C   UNL     1      -0.940  -7.586   5.920  0.00  0.00    +0.005 A 
ATOM     16  C   UNL     1      -0.827  -8.941   5.644  0.00  0.00    -0.049 A 
ATOM     17  C   UNL     1      -0.850  -9.368   4.329  0.00  0.00    +0.020 A 
ATOM     18  C   UNL     1      -0.984  -8.447   3.320  0.00  0.00    +0.041 A 
ATOM     19  S   UNL     1      -1.067  -8.528   1.547  0.00  0.00    -0.052 S 
ATOM     20  C   UNL     1      -0.680  -9.937   6.765  0.00  0.00    +0.044 C 
ATOM     21  H   UNL     1      -1.419  -6.607  -0.784  0.00  0.00    +0.155 HD
ENDBRANCH   5  10
BRANCH   1  22
ATOM     22  C   UNL     1      -1.466  -0.534   0.016  0.00  0.00    +0.130 C 
BRANCH  22  24
ATOM     23  C   UNL     1      -0.085   1.532  -0.242  0.00  0.00    +0.005 C 
ATOM     24  C   UNL     1      -0.058   0.002  -0.251  0.00  0.00    +0.018 C 
ENDBRANCH  22  24
ENDBRANCH   1  22
TORSDOF 3
