REMARK  Name = ZINC62700904
REMARK  8 active torsions:
REMARK  status: ('A' for Active; 'I' for Inactive)
REMARK    1  A    between atoms: C_1  and  C_2
REMARK    2  A    between atoms: C_2  and  C_4
REMARK    3  A    between atoms: C_2  and  O_11
REMARK    4  A    between atoms: N_9  and  C_10
REMARK    5  A    between atoms: O_11  and  C_12
REMARK    6  A    between atoms: C_15  and  C_19
REMARK    7  A    between atoms: C_19  and  N_20
REMARK    8  A    between atoms: N_20  and  C_21
REMARK                            x       y       z     vdW  Elec       q    Type
REMARK                         _______ _______ _______ _____ _____    ______ ____
ROOT
ATOM      1  O   UNL     1       0.693  -0.477   1.160  0.00  0.00    -0.479 OA
ENDROOT
BRANCH   1   2
ATOM      2  C   UNL     1       2.014  -0.764   1.015  0.00  0.00    +0.136 A 
ATOM      3  C   UNL     1       2.657  -0.490  -0.183  0.00  0.00    +0.047 A 
ATOM      4  C   UNL     1       4.000  -0.782  -0.328  0.00  0.00    +0.005 A 
ATOM      5  C   UNL     1       4.703  -1.347   0.721  0.00  0.00    -0.063 A 
ATOM      6  C   UNL     1       4.065  -1.621   1.916  0.00  0.00    +0.020 A 
ATOM      7  C   UNL     1       2.723  -1.325   2.068  0.00  0.00    +0.060 A 
ATOM      8 BR   UNL     1       1.852  -1.692   3.706  0.00  0.00    -0.047 Br
BRANCH   5   9
ATOM      9  C   UNL     1       6.167  -1.665   0.560  0.00  0.00    -0.047 C 
BRANCH   9  10
ATOM     10  N   UNL     1       6.968  -0.504   0.970  0.00  0.00    +0.380 N 
ATOM     11  C   UNL     1       8.396  -0.814   0.813  0.00  0.00    -0.100 C 
ATOM     12  H   UNL     1       6.731   0.290   0.394  0.00  0.00    -0.086 HD
ATOM     13  H   UNL     1       6.775  -0.287   1.937  0.00  0.00    -0.086 HD
ENDBRANCH   9  10
ENDBRANCH   5   9
ENDBRANCH   1   2
BRANCH   1  15
ATOM     14  C   UNL     1       0.195   1.505  -0.130  0.00  0.00    +0.062 C 
ATOM     15  C   UNL     1       0.001  -0.007   0.002  0.00  0.00    +0.256 C 
BRANCH  15  16
ATOM     16  C   UNL     1      -1.468  -0.315   0.135  0.00  0.00    +0.261 C 
ATOM     17  O   UNL     1      -1.895  -0.799   1.161  0.00  0.00    -0.271 OA
ATOM     18  N   UNL     1      -2.307  -0.053  -0.887  0.00  0.00    -0.237 N 
ATOM     19  C   UNL     1      -3.621  -0.329  -0.768  0.00  0.00    +0.306 C 
ATOM     20  O   UNL     1      -4.049  -0.814   0.261  0.00  0.00    -0.252 OA
ATOM     21  N   UNL     1      -4.460  -0.066  -1.790  0.00  0.00    -0.302 N 
ATOM     22  C   UNL     1      -5.888  -0.366  -1.660  0.00  0.00    +0.129 C 
ATOM     23  H   UNL     1      -1.965   0.334  -1.708  0.00  0.00    +0.159 HD
ATOM     24  H   UNL     1      -4.118   0.321  -2.611  0.00  0.00    +0.150 HD
ENDBRANCH  15  16
ENDBRANCH   1  15
TORSDOF 5
