REMARK  Name = ZINC64128587
REMARK  7 active torsions:
REMARK  status: ('A' for Active; 'I' for Inactive)
REMARK    1  A    between atoms: C_1  and  C_2
REMARK    2  A    between atoms: C_2  and  N_3
REMARK    3  A    between atoms: C_4  and  C_23
REMARK    4  A    between atoms: N_6  and  C_9
REMARK    5  A    between atoms: C_9  and  N_10
REMARK    6  A    between atoms: N_13  and  C_16
REMARK    7  A    between atoms: C_16  and  C_17
REMARK                            x       y       z     vdW  Elec       q    Type
REMARK                         _______ _______ _______ _____ _____    ______ ____
ROOT
ATOM      1  C   UNL     1       0.873  -1.923   4.957  0.00  0.00    +0.232 C 
ENDROOT
BRANCH   1   2
ATOM      2  N   UNL     1       1.408  -0.806   5.746  0.00  0.00    -0.287 NA
ATOM      3  C   UNL     1       0.451   0.308   5.799  0.00  0.00    +0.067 C 
ATOM      4  C   UNL     1       1.069   1.472   6.577  0.00  0.00    -0.063 C 
ATOM      5  N   UNL     1       1.406   1.028   7.936  0.00  0.00    +0.382 N 
ATOM      6  C   UNL     1       2.381  -0.068   7.868  0.00  0.00    -0.063 C 
ATOM      7  C   UNL     1       1.774  -1.244   7.100  0.00  0.00    +0.067 C 
ATOM      8  H   UNL     1       0.570   0.706   8.402  0.00  0.00    -0.082 HD
BRANCH   5   9
ATOM      9  C   UNL     1       1.982   2.150   8.689  0.00  0.00    -0.075 C 
BRANCH   9  10
ATOM     10  C   UNL     1       0.918   3.231   8.888  0.00  0.00    -0.028 C 
ATOM     11  C   UNL     1      -0.200   2.688   9.780  0.00  0.00    +0.002 C 
ATOM     12  C   UNL     1      -1.264   3.769   9.980  0.00  0.00    +0.000 C 
ATOM     13  C   UNL     1      -0.630   4.992  10.645  0.00  0.00    +0.000 C 
ATOM     14  C   UNL     1       0.488   5.535   9.752  0.00  0.00    +0.000 C 
ATOM     15  C   UNL     1       1.552   4.454   9.553  0.00  0.00    +0.002 C 
ENDBRANCH   9  10
ENDBRANCH   5   9
ENDBRANCH   1   2
BRANCH   1  19
ATOM     16  N   UNL     1       0.719  -1.135   1.447  0.00  0.00    -0.301 N 
ATOM     17  C   UNL     1       2.062  -1.432   1.587  0.00  0.00    +0.198 A 
ATOM     18  N   UNL     1       2.288  -1.746   2.835  0.00  0.00    -0.146 NA
ATOM     19  N   UNL     1       1.075  -1.655   3.531  0.00  0.00    -0.226 N 
ATOM     20  C   UNL     1       0.128  -1.272   2.651  0.00  0.00    +0.180 A 
ATOM     21  S   UNL     1      -1.528  -1.008   2.998  0.00  0.00    -0.011 S 
BRANCH  17  22
ATOM     22  C   UNL     1       3.067  -1.400   0.512  0.00  0.00    +0.172 A 
ATOM     23  C   UNL     1       4.390  -1.697   0.645  0.00  0.00    +0.053 A 
ATOM     24  C   UNL     1       4.971  -1.535  -0.627  0.00  0.00    +0.042 A 
ATOM     25  C   UNL     1       3.988  -1.152  -1.466  0.00  0.00    +0.196 A 
ATOM     26  O   UNL     1       2.838  -1.077  -0.776  0.00  0.00    -0.460 OA
ENDBRANCH  17  22
BRANCH  16  28
ATOM     27  C   UNL     1       0.103   0.789   0.068  0.00  0.00    +0.027 C 
ATOM     28  C   UNL     1       0.053  -0.734   0.205  0.00  0.00    +0.122 C 
ENDBRANCH  16  28
ENDBRANCH   1  19
TORSDOF 6
