REMARK  Name = ZINC41237563
REMARK  4 active torsions:
REMARK  status: ('A' for Active; 'I' for Inactive)
REMARK    1  A    between atoms: C_1  and  C_2
REMARK    2  A    between atoms: C_5  and  N_9
REMARK    3  A    between atoms: N_9  and  S_10
REMARK    4  A    between atoms: S_10  and  C_13
REMARK                            x       y       z     vdW  Elec       q    Type
REMARK                         _______ _______ _______ _____ _____    ______ ____
ROOT
ATOM      1  S   UNL     1       1.063  -4.903   1.070  0.00  0.00    +0.072 S 
ATOM      2  O   UNL     1       0.910  -6.303   0.879  0.00  0.00    -0.150 OA
ATOM      3  O   UNL     1       2.322  -4.253   0.968  0.00  0.00    -0.150 OA
ENDROOT
BRANCH   1   4
ATOM      4  C   UNL     1       0.438  -4.543   2.678  0.00  0.00    +0.110 A 
ATOM      5  C   UNL     1       0.786  -3.360   3.303  0.00  0.00    +0.032 A 
ATOM      6  C   UNL     1       0.300  -3.070   4.565  0.00  0.00    +0.049 A 
ATOM      7  C   UNL     1      -0.538  -3.967   5.204  0.00  0.00    +0.142 A 
ATOM      8  C   UNL     1      -0.888  -5.160   4.574  0.00  0.00    +0.078 A 
ATOM      9  C   UNL     1      -0.403  -5.442   3.308  0.00  0.00    +0.055 A 
ATOM     10  N   UNL     1      -1.736  -6.061   5.233  0.00  0.00    -0.280 N 
ATOM     11  C   UNL     1      -2.440  -5.633   6.304  0.00  0.00    +0.255 C 
ATOM     12  O   UNL     1      -3.156  -6.403   6.909  0.00  0.00    -0.272 OA
ATOM     13  C   UNL     1      -2.333  -4.195   6.744  0.00  0.00    +0.325 C 
ATOM     14  O   UNL     1      -1.026  -3.697   6.445  0.00  0.00    -0.481 OA
ATOM     15  H   UNL     1      -1.816  -6.977   4.926  0.00  0.00    +0.155 HD
ENDBRANCH   1   4
BRANCH   1  16
ATOM     16  N   UNL     1       0.059  -4.165  -0.022  0.00  0.00    -0.216 N 
ATOM     17  H   UNL     1       0.407  -3.480  -0.614  0.00  0.00    +0.174 HD
BRANCH  16  22
ATOM     18  C   UNL     1      -5.410  -5.638  -0.298  0.00  0.00    +0.045 C 
ATOM     19  C   UNL     1      -3.957  -5.247  -0.224  0.00  0.00    -0.036 A 
ATOM     20  C   UNL     1      -3.602  -3.910  -0.211  0.00  0.00    +0.006 A 
ATOM     21  C   UNL     1      -2.271  -3.548  -0.144  0.00  0.00    +0.025 A 
ATOM     22  C   UNL     1      -1.287  -4.528  -0.089  0.00  0.00    +0.049 A 
ATOM     23  C   UNL     1      -1.646  -5.869  -0.102  0.00  0.00    +0.040 A 
ATOM     24  C   UNL     1      -2.981  -6.225  -0.164  0.00  0.00    +0.023 A 
ATOM     25 BR   UNL     1      -3.472  -8.051  -0.173  0.00  0.00    -0.050 Br
ENDBRANCH  16  22
ENDBRANCH   1  16
TORSDOF 3
