REMARK  Name = ZINC58006103
REMARK  8 active torsions:
REMARK  status: ('A' for Active; 'I' for Inactive)
REMARK    1  A    between atoms: C_1  and  C_2
REMARK    2  A    between atoms: C_2  and  C_3
REMARK    3  A    between atoms: C_3  and  C_23
REMARK    4  A    between atoms: N_6  and  C_15
REMARK    5  A    between atoms: C_8  and  N_14
REMARK    6  A    between atoms: C_15  and  C_16
REMARK    7  A    between atoms: C_19  and  N_22
REMARK    8  A    between atoms: C_23  and  C_24
REMARK                            x       y       z     vdW  Elec       q    Type
REMARK                         _______ _______ _______ _____ _____    ______ ____
ROOT
ATOM      1  C   UNL     1       0.957  -0.422  -1.324  0.00  0.00    +0.186 C 
ATOM      2  C   UNL     1       0.334   0.122  -2.585  0.00  0.00    +0.264 C 
ATOM      3  O   UNL     1      -0.407  -0.574  -3.248  0.00  0.00    -0.271 OA
ATOM      4  N   UNL     1       0.605   1.386  -2.973  0.00  0.00    -0.259 N 
ATOM      5  C   UNL     1       1.561   2.130  -2.263  0.00  0.00    +0.100 A 
ATOM      6  C   UNL     1       1.701   3.496  -2.484  0.00  0.00    +0.050 A 
ATOM      7  C   UNL     1       2.643   4.218  -1.763  0.00  0.00    +0.025 A 
ATOM      8  C   UNL     1       3.437   3.580  -0.828  0.00  0.00    +0.005 A 
ATOM      9  C   UNL     1       3.303   2.221  -0.609  0.00  0.00    +0.048 A 
ATOM     10  C   UNL     1       2.370   1.491  -1.329  0.00  0.00    +0.145 A 
ATOM     11  O   UNL     1       2.254   0.149  -1.143  0.00  0.00    -0.475 OA
ENDROOT
BRANCH   6  12
ATOM     12  N   UNL     1       0.897   4.141  -3.430  0.00  0.00    -0.356 N 
ATOM     13  H   UNL     1      -0.053   4.249  -3.266  0.00  0.00    +0.142 HD
ATOM     14  H   UNL     1       1.289   4.480  -4.250  0.00  0.00    +0.142 HD
ENDBRANCH   6  12
BRANCH   1  16
ATOM     15  C   UNL     1      -0.152   1.446  -0.088  0.00  0.00    +0.008 C 
ATOM     16  C   UNL     1       0.073  -0.067  -0.126  0.00  0.00    +0.054 C 
ENDBRANCH   1  16
BRANCH   1  17
ATOM     17  C   UNL     1       1.080  -1.943  -1.433  0.00  0.00    +0.054 C 
ATOM     18  C   UNL     1       1.964  -2.299  -2.630  0.00  0.00    +0.008 C 
ENDBRANCH   1  17
BRANCH   4  19
ATOM     19  C   UNL     1      -0.090   1.975  -4.121  0.00  0.00    +0.149 C 
BRANCH  19  20
ATOM     20  C   UNL     1       0.703   1.715  -5.375  0.00  0.00    -0.030 A 
ATOM     21  C   UNL     1       1.767   2.535  -5.701  0.00  0.00    +0.007 A 
ATOM     22  C   UNL     1       2.496   2.300  -6.850  0.00  0.00    +0.023 A 
ATOM     23  C   UNL     1       2.159   1.238  -7.680  0.00  0.00    +0.025 A 
ATOM     24  C   UNL     1       1.089   0.416  -7.350  0.00  0.00    +0.023 A 
ATOM     25  C   UNL     1       0.368   0.653  -6.196  0.00  0.00    +0.007 A 
BRANCH  23  26
ATOM     26  N   UNL     1       2.893   0.998  -8.843  0.00  0.00    -0.358 N 
ATOM     27  H   UNL     1       3.640   1.573  -9.073  0.00  0.00    +0.142 HD
ATOM     28  H   UNL     1       2.657   0.256  -9.421  0.00  0.00    +0.142 HD
ENDBRANCH  23  26
ENDBRANCH  19  20
ENDBRANCH   4  19
TORSDOF 6
