REMARK  Name = ZINC12360580
REMARK  4 active torsions:
REMARK  status: ('A' for Active; 'I' for Inactive)
REMARK    1  A    between atoms: C_7  and  C_18
REMARK    2  A    between atoms: C_8  and  N_17
REMARK    3  A    between atoms: C_9  and  C_10
REMARK    4  A    between atoms: C_10  and  C_12
REMARK                            x       y       z     vdW  Elec       q    Type
REMARK                         _______ _______ _______ _____ _____    ______ ____
ROOT
ATOM      1  C   UNL     1      -1.296   4.686  -3.379  0.00  0.00    +0.003 A 
ATOM      2  C   UNL     1      -1.329   6.004  -2.907  0.00  0.00    +0.018 A 
ATOM      3  C   UNL     1      -1.321   6.251  -1.577  0.00  0.00    +0.092 A 
ATOM      4  N   UNL     1      -1.269   5.229  -0.678  0.00  0.00    -0.311 N 
ATOM      5  C   UNL     1      -1.233   3.935  -1.112  0.00  0.00    +0.061 A 
ATOM      6  C   UNL     1      -1.248   3.655  -2.484  0.00  0.00    +0.027 A 
ATOM      7  C   UNL     1      -1.186   3.089   0.020  0.00  0.00    +0.083 A 
ATOM      8  C   UNL     1      -1.187   3.921   1.158  0.00  0.00    +0.067 A 
ATOM      9  C   UNL     1      -1.238   5.236   0.709  0.00  0.00    +0.116 A 
ENDROOT
BRANCH   7  10
ATOM     10  C   UNL     1      -1.140   1.628   0.011  0.00  0.00    +0.245 C 
ATOM     11  O   UNL     1      -2.174   0.986   0.031  0.00  0.00    -0.270 OA
ATOM     12  N   UNL     1       0.048   0.991  -0.019  0.00  0.00    -0.325 N 
ATOM     13  H   UNL     1       0.078   0.022  -0.025  0.00  0.00    +0.145 HD
ATOM     14  H   UNL     1       0.872   1.503  -0.039  0.00  0.00    +0.145 HD
ENDBRANCH   7  10
BRANCH   8  15
ATOM     15  N   UNL     1      -1.143   3.505   2.480  0.00  0.00    -0.356 N 
ATOM     16  H   UNL     1      -1.186   2.559   2.693  0.00  0.00    +0.142 HD
ATOM     17  H   UNL     1      -1.070   4.159   3.193  0.00  0.00    +0.142 HD
ENDBRANCH   8  15
BRANCH   9  18
ATOM     18  C   UNL     1      -1.255   6.387   1.528  0.00  0.00    +0.218 C 
ATOM     19  O   UNL     1      -0.211   6.955   1.804  0.00  0.00    -0.284 OA
BRANCH  18  20
ATOM     20  C   UNL     1      -2.530   6.900   2.047  0.00  0.00    +0.061 A 
ATOM     21  C   UNL     1      -2.775   8.049   2.781  0.00  0.00    +0.019 A 
ATOM     22  C   UNL     1      -4.078   8.296   3.141  0.00  0.00    +0.008 A 
ATOM     23  C   UNL     1      -5.044   7.415   2.777  0.00  0.00    +0.046 A 
ATOM     24  S   UNL     1      -4.165   6.202   1.904  0.00  0.00    -0.093 S 
ENDBRANCH  18  20
ENDBRANCH   9  18
TORSDOF 4
