REMARK  Name = ZINC09838280
REMARK  9 active torsions:
REMARK  status: ('A' for Active; 'I' for Inactive)
REMARK    1  A    between atoms: C_1  and  N_59
REMARK    2  A    between atoms: C_2  and  C_3
REMARK    3  A    between atoms: C_2  and  N_59
REMARK    4  A    between atoms: C_3  and  N_4
REMARK    5  A    between atoms: C_5  and  C_7
REMARK    6  A    between atoms: N_12  and  S_14
REMARK    7  A    between atoms: S_14  and  C_17
REMARK    8  A    between atoms: C_26  and  C_27
REMARK    9  A    between atoms: C_26  and  N_59
REMARK                            x       y       z     vdW  Elec       q    Type
REMARK                         _______ _______ _______ _____ _____    ______ ____
ROOT
ATOM      1  C   UNL     1       3.346   6.079   2.101  0.00  0.00    +0.091 C 
ATOM      2  C   UNL     1       2.585   6.208   3.422  0.00  0.00    +0.015 C 
ATOM      3  C   UNL     1       1.092   5.981   3.178  0.00  0.00    +0.018 C 
ATOM      4  C   UNL     1       0.876   4.571   2.632  0.00  0.00    +0.109 C 
ATOM      5  N   UNL     1       1.718   4.385   1.442  0.00  0.00    -0.176 NA
ATOM      6  C   UNL     1       3.156   4.664   1.544  0.00  0.00    +0.122 C 
ENDROOT
BRANCH   1   8
ATOM      7  N   UNL     1       5.219   7.521   2.828  0.00  0.00    -0.317 N 
ATOM      8  C   UNL     1       4.812   6.334   2.337  0.00  0.00    +0.217 C 
ATOM      9  O   UNL     1       5.626   5.471   2.086  0.00  0.00    -0.275 OA
ATOM     10  H   UNL     1       4.568   8.212   3.029  0.00  0.00    +0.149 HD
BRANCH   7  11
ATOM     11  C   UNL     1       6.644   7.770   3.058  0.00  0.00    +0.085 C 
BRANCH  11  12
ATOM     12  C   UNL     1       6.833   9.183   3.613  0.00  0.00    -0.060 C 
BRANCH  12  14
ATOM     13  C   UNL     1       8.782   8.565   4.909  0.00  0.00    -0.096 C 
ATOM     14  N   UNL     1       8.276   9.425   3.819  0.00  0.00    +0.382 N 
ATOM     15  H   UNL     1       8.779   9.198   2.954  0.00  0.00    -0.082 HD
BRANCH  14  16
ATOM     16  C   UNL     1       8.507  10.847   4.150  0.00  0.00    -0.043 C 
BRANCH  16  17
ATOM     17  C   UNL     1       9.990  11.115   4.137  0.00  0.00    -0.064 A 
ATOM     18  C   UNL     1      10.726  10.980   5.300  0.00  0.00    +0.002 A 
ATOM     19  C   UNL     1      12.088  11.220   5.287  0.00  0.00    +0.000 A 
ATOM     20  C   UNL     1      12.711  11.606   4.114  0.00  0.00    +0.000 A 
ATOM     21  C   UNL     1      11.973  11.745   2.954  0.00  0.00    +0.000 A 
ATOM     22  C   UNL     1      10.613  11.500   2.965  0.00  0.00    +0.002 A 
ENDBRANCH  16  17
ENDBRANCH  14  16
ENDBRANCH  12  14
ENDBRANCH  11  12
ENDBRANCH   7  11
ENDBRANCH   1   8
BRANCH   5  23
ATOM     23  S   UNL     1       1.056   3.875   0.012  0.00  0.00    +0.063 S 
ATOM     24  O   UNL     1       1.925   4.323  -1.019  0.00  0.00    -0.153 OA
ATOM     25  O   UNL     1      -0.320   4.226   0.054  0.00  0.00    -0.153 OA
BRANCH  23  26
ATOM     26  C   UNL     1       1.128   2.115   0.003  0.00  0.00    +0.133 A 
ATOM     27  C   UNL     1      -0.017   1.391   0.010  0.00  0.00    +0.031 A 
ATOM     28  C   UNL     1       0.002  -0.004   0.002  0.00  0.00    +0.004 A 
ATOM     29  C   UNL     1       1.166  -0.697  -0.013  0.00  0.00    +0.031 A 
ATOM     30  C   UNL     1       2.404  -0.004  -0.021  0.00  0.00    +0.102 A 
ATOM     31  C   UNL     1       2.385   1.456  -0.013  0.00  0.00    +0.126 A 
ATOM     32  N   UNL     1       3.612   1.973  -0.022  0.00  0.00    -0.189 NA
ATOM     33  S   UNL     1       4.599   0.756  -0.039  0.00  0.00    +0.117 S 
ATOM     34  N   UNL     1       3.645  -0.487  -0.036  0.00  0.00    -0.191 NA
ENDBRANCH  23  26
ENDBRANCH   5  23
TORSDOF 8
