REMARK  Name = ZINC33371643
REMARK  7 active torsions:
REMARK  status: ('A' for Active; 'I' for Inactive)
REMARK    1  A    between atoms: C_1  and  C_2
REMARK    2  A    between atoms: C_7  and  N_25
REMARK    3  A    between atoms: C_16  and  O_24
REMARK    4  A    between atoms: C_18  and  O_23
REMARK    5  A    between atoms: N_25  and  C_26
REMARK    6  A    between atoms: C_26  and  C_27
REMARK    7  A    between atoms: C_27  and  C_28
REMARK                            x       y       z     vdW  Elec       q    Type
REMARK                         _______ _______ _______ _____ _____    ______ ____
ROOT
ATOM      1  C   UNL     1       1.541   2.067  -1.740  0.00  0.00    +0.052 C 
ATOM      2  C   UNL     1       0.148   1.790  -2.308  0.00  0.00    +0.174 C 
ATOM      3  C   UNL     1      -0.816   1.474  -1.163  0.00  0.00    +0.044 C 
ATOM      4  C   UNL     1      -0.052   0.789  -0.028  0.00  0.00    +0.002 C 
ATOM      5  C   UNL     1      -0.772   1.044   1.298  0.00  0.00    -0.016 C 
ATOM      6  C   UNL     1      -0.778   2.544   1.596  0.00  0.00    -0.072 C 
ATOM      7  C   UNL     1      -2.093   3.156   1.108  0.00  0.00    -0.015 C 
ATOM      8  C   UNL     1      -1.962   4.679   1.063  0.00  0.00    +0.002 C 
ATOM      9  C   UNL     1      -1.445   5.109  -0.311  0.00  0.00    +0.027 C 
ATOM     10  C   UNL     1      -0.300   6.070  -0.139  0.00  0.00    -0.026 C 
ATOM     11  C   UNL     1       0.159   6.782  -1.161  0.00  0.00    +0.005 C 
ATOM     12  C   UNL     1      -0.415   6.643  -2.508  0.00  0.00    -0.004 A 
ATOM     13  C   UNL     1      -0.813   7.793  -3.192  0.00  0.00    +0.054 A 
ATOM     14  C   UNL     1      -1.385   7.694  -4.452  0.00  0.00    +0.121 A 
ATOM     15  C   UNL     1      -1.568   6.452  -5.046  0.00  0.00    +0.091 A 
ATOM     16  C   UNL     1      -1.172   5.301  -4.389  0.00  0.00    +0.135 A 
ATOM     17  C   UNL     1      -0.584   5.383  -3.117  0.00  0.00    +0.108 A 
ATOM     18  C   UNL     1      -0.146   4.157  -2.438  0.00  0.00    +0.344 C 
ATOM     19  O   UNL     1       0.374   4.222  -1.341  0.00  0.00    -0.245 OA
ATOM     20  O   UNL     1      -0.321   2.958  -3.030  0.00  0.00    -0.458 OA
ENDROOT
BRANCH   6  21
ATOM     21  N   UNL     1       0.347   3.186   0.903  0.00  0.00    +0.381 N 
ATOM     22  H   UNL     1       0.457   2.748  -0.101  0.00  0.00    -0.086 HD
ATOM     23  H   UNL     1       0.155   4.265   0.813  0.00  0.00    -0.086 HD
BRANCH  21  24
ATOM     24  C   UNL     1       1.601   2.990   1.642  0.00  0.00    -0.078 C 
BRANCH  24  25
ATOM     25  C   UNL     1       2.718   3.796   0.975  0.00  0.00    +0.016 C 
BRANCH  25  26
ATOM     26  C   UNL     1       3.971   3.701   1.805  0.00  0.00    -0.049 A 
ATOM     27  C   UNL     1       4.168   4.569   2.863  0.00  0.00    +0.003 A 
ATOM     28  C   UNL     1       5.316   4.479   3.627  0.00  0.00    +0.000 A 
ATOM     29  C   UNL     1       6.272   3.526   3.329  0.00  0.00    +0.000 A 
ATOM     30  C   UNL     1       6.078   2.661   2.268  0.00  0.00    +0.000 A 
ATOM     31  C   UNL     1       4.928   2.749   1.506  0.00  0.00    +0.003 A 
ENDBRANCH  25  26
ENDBRANCH  24  25
ENDBRANCH  21  24
ENDBRANCH   6  21
BRANCH  16  32
ATOM     32  O   UNL     1      -1.352   4.091  -4.975  0.00  0.00    -0.506 OA
ATOM     33  H   UNL     1      -1.038   3.175  -4.453  0.00  0.00    +0.292 HD
ENDBRANCH  16  32
BRANCH  14  34
ATOM     34  O   UNL     1      -1.768   8.818  -5.108  0.00  0.00    -0.507 OA
ATOM     35  H   UNL     1      -2.221   8.744  -6.107  0.00  0.00    +0.292 HD
ENDBRANCH  14  34
TORSDOF 6
