REMARK  Name = ZINC13063670
REMARK  11 active torsions:
REMARK  status: ('A' for Active; 'I' for Inactive)
REMARK    1  A    between atoms: C_1  and  C_2
REMARK    2  A    between atoms: C_2  and  C_3
REMARK    3  A    between atoms: C_10  and  C_15
REMARK    4  A    between atoms: C_15  and  N_73
REMARK    5  A    between atoms: C_16  and  N_73
REMARK    6  A    between atoms: C_22  and  C_24
REMARK    7  A    between atoms: C_22  and  C_26
REMARK    8  A    between atoms: C_22  and  N_73
REMARK    9  A    between atoms: C_24  and  C_25
REMARK   10  A    between atoms: N_30  and  C_31
REMARK   11  A    between atoms: C_31  and  C_32
REMARK                            x       y       z     vdW  Elec       q    Type
REMARK                         _______ _______ _______ _____ _____    ______ ____
ROOT
ATOM      1  N   UNL     1       3.937  -0.380   0.728  0.00  0.00    +0.391 N 
ATOM      2  H   UNL     1       3.427  -0.465   1.615  0.00  0.00    -0.080 HD
ENDROOT
BRANCH   1   3
ATOM      3  C   UNL     1       3.506  -1.464  -0.179  0.00  0.00    -0.067 C 
ATOM      4  C   UNL     1       3.295  -2.736   0.645  0.00  0.00    -0.015 C 
ATOM      5  C   UNL     1       2.831  -3.868  -0.274  0.00  0.00    -0.002 C 
ATOM      6  C   UNL     1       3.894  -4.124  -1.345  0.00  0.00    -0.000 C 
ATOM      7  C   UNL     1       4.104  -2.852  -2.169  0.00  0.00    -0.002 C 
ATOM      8  C   UNL     1       4.568  -1.720  -1.250  0.00  0.00    -0.015 C 
ENDBRANCH   1   3
BRANCH   1   9
ATOM      9  C   UNL     1       5.387  -0.492   0.996  0.00  0.00    -0.036 C 
BRANCH   9  17
ATOM     10  C   UNL     1       7.221  -6.047   3.013  0.00  0.00    -0.047 A 
ATOM     11  C   UNL     1       6.795  -5.885   4.325  0.00  0.00    +0.005 A 
ATOM     12  C   UNL     1       6.185  -4.716   4.727  0.00  0.00    +0.026 A 
ATOM     13  C   UNL     1       5.992  -3.687   3.810  0.00  0.00    +0.049 A 
ATOM     14  C   UNL     1       6.425  -3.856   2.482  0.00  0.00    -0.001 A 
ATOM     15  C   UNL     1       7.042  -5.051   2.096  0.00  0.00    +0.013 A 
ATOM     16  C   UNL     1       6.218  -2.767   1.524  0.00  0.00    +0.017 A 
ATOM     17  C   UNL     1       5.615  -1.632   1.955  0.00  0.00    +0.001 A 
ATOM     18  C   UNL     1       5.204  -1.512   3.300  0.00  0.00    +0.251 A 
ATOM     19  O   UNL     1       4.668  -0.481   3.668  0.00  0.00    -0.268 OA
ATOM     20  N   UNL     1       5.385  -2.508   4.185  0.00  0.00    -0.322 N 
ATOM     21  H   UNL     1       5.087  -2.394   5.101  0.00  0.00    +0.169 HD
BRANCH  10  23
ATOM     22  C   UNL     1       6.824  -8.321   2.107  0.00  0.00    +0.009 C 
ATOM     23  C   UNL     1       7.885  -7.334   2.598  0.00  0.00    +0.032 C 
ENDBRANCH  10  23
ENDBRANCH   9  17
ENDBRANCH   1   9
BRANCH   1  24
ATOM     24  C   UNL     1       3.636   0.934   0.124  0.00  0.00    +0.003 C 
BRANCH  24  25
ATOM     25  C   UNL     1       4.577   1.219  -1.018  0.00  0.00    +0.138 A 
ATOM     26  N   UNL     1       5.853   0.922  -1.073  0.00  0.00    -0.115 NA
ATOM     27  N   UNL     1       6.307   1.328  -2.208  0.00  0.00    -0.023 NA
ATOM     28  N   UNL     1       5.355   1.876  -2.878  0.00  0.00    -0.044 NA
ATOM     29  N   UNL     1       4.272   1.829  -2.178  0.00  0.00    -0.228 N 
BRANCH  29  30
ATOM     30  C   UNL     1       2.958   2.342  -2.572  0.00  0.00    +0.178 C 
BRANCH  30  31
ATOM     31  C   UNL     1       2.177   1.244  -3.295  0.00  0.00    +0.140 C 
ATOM     32  C   UNL     1       0.837   1.808  -3.815  0.00  0.00    +0.035 C 
ATOM     33  C   UNL     1      -0.142   0.632  -3.550  0.00  0.00    +0.031 C 
ATOM     34  C   UNL     1       0.450   0.046  -2.243  0.00  0.00    +0.160 C 
ATOM     35  O   UNL     1       1.873   0.182  -2.382  0.00  0.00    -0.375 OA
ENDBRANCH  30  31
ENDBRANCH  29  30
ENDBRANCH  24  25
BRANCH  24  36
ATOM     36  C   UNL     1       3.791   2.016   1.195  0.00  0.00    -0.011 C 
ATOM     37  C   UNL     1       2.742   1.804   2.289  0.00  0.00    +0.002 C 
ENDBRANCH  24  36
ENDBRANCH   1  24
TORSDOF 9
