REMARK  Name = ZINC57840608
REMARK  8 active torsions:
REMARK  status: ('A' for Active; 'I' for Inactive)
REMARK    1  A    between atoms: C_1  and  C_2
REMARK    2  A    between atoms: C_2  and  C_4
REMARK    3  A    between atoms: C_2  and  N_12
REMARK    4  A    between atoms: C_13  and  C_15
REMARK    5  A    between atoms: C_15  and  C_17
REMARK    6  A    between atoms: C_15  and  O_18
REMARK    7  A    between atoms: O_18  and  C_19
REMARK    8  A    between atoms: C_19  and  C_21
REMARK                            x       y       z     vdW  Elec       q    Type
REMARK                         _______ _______ _______ _____ _____    ______ ____
ROOT
ATOM      1  C   UNL     1      -3.351  -1.248  -1.364  0.00  0.00    +0.259 C 
ATOM      2  C   UNL     1      -4.318  -0.226  -0.761  0.00  0.00    +0.062 C 
ENDROOT
BRANCH   1   4
ATOM      3  N   UNL     1      -1.367  -0.520  -0.079  0.00  0.00    -0.306 N 
ATOM      4  C   UNL     1      -1.943  -0.717  -1.281  0.00  0.00    +0.254 C 
ATOM      5  O   UNL     1      -1.329  -0.466  -2.296  0.00  0.00    -0.272 OA
ATOM      6  H   UNL     1      -1.858  -0.720   0.733  0.00  0.00    +0.149 HD
BRANCH   3   8
ATOM      7  C   UNL     1      -0.028   1.526  -0.017  0.00  0.00    +0.033 C 
ATOM      8  C   UNL     1       0.002  -0.004   0.002  0.00  0.00    +0.102 C 
BRANCH   8   9
ATOM      9  C   UNL     1       0.643  -0.478   1.280  0.00  0.00    -0.009 A 
ATOM     10  C   UNL     1      -0.141  -0.765   2.382  0.00  0.00    +0.008 A 
ATOM     11  C   UNL     1       0.446  -1.201   3.555  0.00  0.00    +0.020 A 
ATOM     12  C   UNL     1       1.820  -1.350   3.627  0.00  0.00    +0.042 A 
ATOM     13  C   UNL     1       2.606  -1.063   2.525  0.00  0.00    +0.040 A 
ATOM     14  C   UNL     1       2.017  -0.632   1.350  0.00  0.00    +0.047 A 
ATOM     15 CL   UNL     1       3.001  -0.278  -0.036  0.00  0.00    -0.083 Cl
ATOM     16 CL   UNL     1       2.558  -1.896   5.101  0.00  0.00    -0.083 Cl
ENDBRANCH   8   9
ENDBRANCH   3   8
ENDBRANCH   1   4
BRANCH   1  17
ATOM     17  O   UNL     1      -3.693  -1.478  -2.732  0.00  0.00    -0.448 OA
BRANCH  17  18
ATOM     18  C   UNL     1      -4.573  -2.467  -2.984  0.00  0.00    +0.361 C 
ATOM     19  O   UNL     1      -5.037  -3.116  -2.067  0.00  0.00    -0.243 OA
BRANCH  18  20
ATOM     20  C   UNL     1      -4.973  -2.763  -4.373  0.00  0.00    +0.175 A 
ATOM     21  C   UNL     1      -5.938  -3.837  -4.657  0.00  0.00    +0.021 A 
ATOM     22  C   UNL     1      -6.513  -4.617  -3.660  0.00  0.00    +0.011 A 
ATOM     23  C   UNL     1      -7.410  -5.606  -4.006  0.00  0.00    +0.001 A 
ATOM     24  C   UNL     1      -7.742  -5.830  -5.336  0.00  0.00    +0.001 A 
ATOM     25  C   UNL     1      -7.183  -5.069  -6.340  0.00  0.00    +0.014 A 
ATOM     26  C   UNL     1      -6.277  -4.066  -6.011  0.00  0.00    +0.050 A 
ATOM     27  C   UNL     1      -5.634  -3.209  -7.018  0.00  0.00    +0.272 A 
ATOM     28  O   UNL     1      -5.878  -3.348  -8.202  0.00  0.00    -0.266 OA
ATOM     29  N   UNL     1      -4.768  -2.264  -6.598  0.00  0.00    -0.242 N 
ATOM     30  H   UNL     1      -4.346  -1.700  -7.265  0.00  0.00    +0.192 HD
ATOM     31  N   UNL     1      -4.478  -2.067  -5.368  0.00  0.00    -0.164 NA
ENDBRANCH  18  20
ENDBRANCH  17  18
ENDBRANCH   1  17
TORSDOF 6
