REMARK  Name = ZINC39606221
REMARK  8 active torsions:
REMARK  status: ('A' for Active; 'I' for Inactive)
REMARK    1  A    between atoms: C_1  and  C_2
REMARK    2  A    between atoms: C_2  and  C_3
REMARK    3  A    between atoms: C_3  and  C_5
REMARK    4  A    between atoms: C_3  and  C_6
REMARK    5  A    between atoms: C_6  and  N_7
REMARK    6  A    between atoms: C_8  and  C_10
REMARK    7  A    between atoms: C_21  and  C_23
REMARK    8  A    between atoms: C_26  and  C_31
REMARK                            x       y       z     vdW  Elec       q    Type
REMARK                         _______ _______ _______ _____ _____    ______ ____
ROOT
ATOM      1  C   UNL     1      -4.439  -4.381  -0.471  0.00  0.00    +0.100 C 
ATOM      2  C   UNL     1      -5.152  -3.741  -1.684  0.00  0.00    +0.121 C 
ATOM      3  N   UNL     1      -4.969  -4.717  -2.784  0.00  0.00    -0.296 N 
ATOM      4  C   UNL     1      -5.133  -6.039  -2.134  0.00  0.00    +0.115 C 
ATOM      5  C   UNL     1      -4.432  -5.889  -0.769  0.00  0.00    -0.004 C 
ATOM      6  C   UNL     1      -2.998  -6.404  -0.854  0.00  0.00    -0.010 C 
ATOM      7  C   UNL     1      -3.017  -7.917  -1.093  0.00  0.00    -0.082 C 
ATOM      8  N   UNL     1      -3.732  -8.579   0.004  0.00  0.00    +0.379 N 
ATOM      9  C   UNL     1      -5.135  -8.147   0.021  0.00  0.00    -0.082 C 
ATOM     10  C   UNL     1      -5.205  -6.644   0.308  0.00  0.00    -0.010 C 
ATOM     11  C   UNL     1      -4.712  -4.461  -4.082  0.00  0.00    +0.250 C 
ATOM     12  O   UNL     1      -4.508  -3.320  -4.447  0.00  0.00    -0.270 OA
ATOM     13  H   UNL     1      -3.691  -9.579  -0.124  0.00  0.00    -0.086 HD
ATOM     14  H   UNL     1      -3.297  -8.337   0.882  0.00  0.00    -0.086 HD
ENDROOT
BRANCH  11  15
ATOM     15  C   UNL     1      -4.678  -5.567  -5.060  0.00  0.00    +0.075 A 
ATOM     16  C   UNL     1      -5.544  -6.654  -4.921  0.00  0.00    +0.016 A 
ATOM     17  C   UNL     1      -5.509  -7.683  -5.837  0.00  0.00    +0.007 A 
ATOM     18  C   UNL     1      -4.617  -7.644  -6.895  0.00  0.00    -0.012 A 
ATOM     19  C   UNL     1      -3.755  -6.572  -7.043  0.00  0.00    +0.162 A 
ATOM     20  C   UNL     1      -3.783  -5.528  -6.133  0.00  0.00    +0.171 A 
ATOM     21  F   UNL     1      -2.946  -4.478  -6.280  0.00  0.00    -0.202 F 
ATOM     22  F   UNL     1      -2.888  -6.542  -8.079  0.00  0.00    -0.202 F 
ATOM     23  C   UNL     1      -4.585  -8.775  -7.891  0.00  0.00    +0.047 C 
ENDBRANCH  11  15
BRANCH   1  25
ATOM     24  N   UNL     1      -2.444  -3.762   0.853  0.00  0.00    -0.315 N 
ATOM     25  C   UNL     1      -3.029  -3.861  -0.357  0.00  0.00    +0.218 C 
ATOM     26  O   UNL     1      -2.421  -3.533  -1.354  0.00  0.00    -0.275 OA
ATOM     27  H   UNL     1      -2.930  -4.025   1.650  0.00  0.00    +0.149 HD
BRANCH  24  28
ATOM     28  C   UNL     1      -1.073  -3.257   0.964  0.00  0.00    +0.107 C 
BRANCH  28  29
ATOM     29  C   UNL     1      -0.651  -3.246   2.434  0.00  0.00    +0.003 C 
ATOM     30  C   UNL     1      -0.598  -4.681   2.961  0.00  0.00    +0.009 C 
BRANCH  29  32
ATOM     31  C   UNL     1       1.099  -2.478   4.043  0.00  0.00    +0.004 C 
ATOM     32  C   UNL     1       0.731  -2.603   2.563  0.00  0.00    +0.001 C 
ENDBRANCH  29  32
ENDBRANCH  28  29
ENDBRANCH  24  28
ENDBRANCH   1  25
TORSDOF 5
