REMARK  Name = ZINC26539507
REMARK  4 active torsions:
REMARK  status: ('A' for Active; 'I' for Inactive)
REMARK    1  A    between atoms: C_1  and  N_2
REMARK    2  A    between atoms: C_6  and  S_12
REMARK    3  A    between atoms: S_12  and  N_15
REMARK    4  A    between atoms: N_15  and  C_16
REMARK                            x       y       z     vdW  Elec       q    Type
REMARK                         _______ _______ _______ _____ _____    ______ ____
ROOT
ATOM      1  S   UNL     1      -2.558   5.190  -0.961  0.00  0.00    +0.092 S 
ATOM      2  O   UNL     1      -3.865   5.699  -0.733  0.00  0.00    -0.148 OA
ATOM      3  O   UNL     1      -1.392   5.987  -0.808  0.00  0.00    -0.148 OA
ENDROOT
BRANCH   1   9
ATOM      4  C   UNL     1      -3.114   2.689  -7.507  0.00  0.00    +0.156 C 
ATOM      5  N   UNL     1      -2.182   3.186  -6.492  0.00  0.00    -0.277 N 
ATOM      6  C   UNL     1      -2.515   3.620  -5.209  0.00  0.00    +0.090 A 
ATOM      7  C   UNL     1      -3.713   3.722  -4.519  0.00  0.00    +0.031 A 
ATOM      8  C   UNL     1      -3.721   4.202  -3.224  0.00  0.00    +0.031 A 
ATOM      9  C   UNL     1      -2.537   4.580  -2.614  0.00  0.00    +0.114 A 
ATOM     10  C   UNL     1      -1.340   4.485  -3.297  0.00  0.00    +0.077 A 
ATOM     11  C   UNL     1      -1.321   4.000  -4.595  0.00  0.00    +0.159 A 
ATOM     12  O   UNL     1      -0.325   3.795  -5.491  0.00  0.00    -0.407 OA
ATOM     13  C   UNL     1      -0.847   3.307  -6.627  0.00  0.00    +0.421 A 
ATOM     14  O   UNL     1      -0.213   3.017  -7.623  0.00  0.00    -0.223 OA
ENDBRANCH   1   9
BRANCH   1  15
ATOM     15  N   UNL     1      -2.376   3.887   0.044  0.00  0.00    -0.096 NA
BRANCH  15  16
ATOM     16  C   UNL     1      -1.185   3.153   0.029  0.00  0.00    +0.092 A 
ATOM     17  C   UNL     1      -1.215   1.760   0.017  0.00  0.00    +0.032 A 
ATOM     18  C   UNL     1      -0.013   1.076   0.008  0.00  0.00    +0.050 A 
ATOM     19  C   UNL     1       1.176   1.795   0.001  0.00  0.00    +0.154 A 
ATOM     20  N   UNL     1       1.167   3.118   0.008  0.00  0.00    -0.234 NA
ATOM     21  C   UNL     1       0.041   3.804   0.022  0.00  0.00    +0.139 A 
ATOM     22  N   UNL     1       2.398   1.112  -0.014  0.00  0.00    -0.222 N 
ATOM     23  C   UNL     1       3.631   1.680  -0.029  0.00  0.00    +0.116 A 
ATOM     24  C   UNL     1       4.542   0.679  -0.037  0.00  0.00    +0.041 A 
ATOM     25  C   UNL     1       3.849  -0.536  -0.037  0.00  0.00    +0.135 A 
ATOM     26  N   UNL     1       2.566  -0.278  -0.023  0.00  0.00    -0.173 NA
ENDBRANCH  15  16
ENDBRANCH   1  15
TORSDOF 3
