REMARK  Name = ZINC27347351
REMARK  13 active torsions:
REMARK  status: ('A' for Active; 'I' for Inactive)
REMARK    1  A    between atoms: C_1  and  C_2
REMARK    2  A    between atoms: C_2  and  O_3
REMARK    3  A    between atoms: O_3  and  C_4
REMARK    4  A    between atoms: C_7  and  C_10
REMARK    5  A    between atoms: N_16  and  C_17
REMARK    6  A    between atoms: C_17  and  C_18
REMARK    7  A    between atoms: C_18  and  C_19
REMARK    8  A    between atoms: N_21  and  C_22
REMARK    9  A    between atoms: C_22  and  C_23
REMARK   10  A    between atoms: C_23  and  C_25
REMARK   11  A    between atoms: C_23  and  N_32
REMARK   12  A    between atoms: N_32  and  C_33
REMARK   13  A    between atoms: N_32  and  C_34
REMARK                            x       y       z     vdW  Elec       q    Type
REMARK                         _______ _______ _______ _____ _____    ______ ____
ROOT
ATOM      1  C   UNL     1      -3.451  -2.879   2.539  0.00  0.00    +0.117 C 
ENDROOT
BRANCH   1   2
ATOM      2  C   UNL     1      -1.981  -2.550   2.489  0.00  0.00    +0.215 C 
ATOM      3  O   UNL     1      -1.162  -3.388   2.801  0.00  0.00    -0.276 OA
ATOM      4  N   UNL     1      -1.578  -1.325   2.098  0.00  0.00    -0.316 N 
ATOM      5  H   UNL     1      -2.321  -0.565   1.816  0.00  0.00    +0.149 HD
BRANCH   4   6
ATOM      6  C   UNL     1      -0.149  -1.006   2.050  0.00  0.00    +0.093 C 
BRANCH   6   7
ATOM      7  C   UNL     1       0.044   0.377   1.423  0.00  0.00    -0.020 C 
BRANCH   7   8
ATOM      8  C   UNL     1       1.496   0.770   1.511  0.00  0.00    -0.041 A 
ATOM      9  C   UNL     1       2.310   0.661   0.399  0.00  0.00    +0.003 A 
ATOM     10  C   UNL     1       3.642   1.021   0.480  0.00  0.00    +0.000 A 
ATOM     11  C   UNL     1       4.160   1.493   1.672  0.00  0.00    +0.001 A 
ATOM     12  C   UNL     1       3.347   1.603   2.784  0.00  0.00    +0.020 A 
ATOM     13  C   UNL     1       2.012   1.247   2.702  0.00  0.00    +0.043 A 
ATOM     14 CL   UNL     1       0.988   1.392   4.096  0.00  0.00    -0.083 Cl
ENDBRANCH   7   8
BRANCH   7  15
ATOM     15  N   UNL     1      -0.368   0.337   0.013  0.00  0.00    +0.382 N 
ATOM     16  C   UNL     1      -1.818   0.536  -0.117  0.00  0.00    -0.096 C 
ATOM     17  C   UNL     1       0.049  -0.920  -0.622  0.00  0.00    -0.096 C 
ATOM     18  H   UNL     1       0.135   1.163  -0.510  0.00  0.00    -0.082 HD
ENDBRANCH   7  15
ENDBRANCH   6   7
ENDBRANCH   4   6
ENDBRANCH   1   2
BRANCH   1  19
ATOM     19  C   UNL     1      -3.635  -4.322   3.012  0.00  0.00    +0.135 C 
BRANCH  19  26
ATOM     20  C   UNL     1      -5.868  -4.586   4.182  0.00  0.00    +0.163 A 
ATOM     21  N   UNL     1      -7.078  -4.934   3.843  0.00  0.00    -0.153 NA
ATOM     22  N   UNL     1      -7.074  -5.236   2.474  0.00  0.00    -0.254 N 
ATOM     23  H   UNL     1      -8.002  -5.560   1.980  0.00  0.00    +0.191 HD
ATOM     24  C   UNL     1      -5.819  -5.046   2.020  0.00  0.00    +0.176 A 
ATOM     25  S   UNL     1      -5.281  -5.277   0.411  0.00  0.00    -0.011 S 
ATOM     26  N   UNL     1      -5.064  -4.642   3.061  0.00  0.00    -0.303 N 
BRANCH  20  30
ATOM     27  C   UNL     1      -4.612  -3.457   8.082  0.00  0.00    +0.121 A 
ATOM     28  C   UNL     1      -5.757  -4.225   7.918  0.00  0.00    +0.046 A 
ATOM     29  C   UNL     1      -6.167  -4.593   6.655  0.00  0.00    +0.015 A 
ATOM     30  C   UNL     1      -5.430  -4.193   5.540  0.00  0.00    +0.019 A 
ATOM     31  C   UNL     1      -4.277  -3.426   5.708  0.00  0.00    +0.015 A 
ATOM     32  C   UNL     1      -3.876  -3.057   6.974  0.00  0.00    +0.046 A 
BRANCH  27  33
ATOM     33  O   UNL     1      -4.210  -3.096   9.329  0.00  0.00    -0.492 OA
BRANCH  33  35
ATOM     34  C   UNL     1      -2.732  -2.000  10.895  0.00  0.00    +0.048 C 
ATOM     35  C   UNL     1      -3.023  -2.306   9.425  0.00  0.00    +0.225 C 
ENDBRANCH  33  35
ENDBRANCH  27  33
ENDBRANCH  20  30
ENDBRANCH  19  26
ENDBRANCH   1  19
TORSDOF 10
