REMARK  Name = ZINC24853984
REMARK  10 active torsions:
REMARK  status: ('A' for Active; 'I' for Inactive)
REMARK    1  A    between atoms: C_1  and  N_2
REMARK    2  A    between atoms: C_3  and  C_23
REMARK    3  A    between atoms: C_6  and  S_7
REMARK    4  A    between atoms: S_7  and  C_8
REMARK    5  A    between atoms: C_8  and  C_9
REMARK    6  A    between atoms: N_14  and  C_15
REMARK    7  A    between atoms: C_15  and  C_16
REMARK    8  A    between atoms: C_16  and  C_17
REMARK    9  A    between atoms: C_26  and  O_29
REMARK   10  A    between atoms: O_29  and  C_30
REMARK                            x       y       z     vdW  Elec       q    Type
REMARK                         _______ _______ _______ _____ _____    ______ ____
ROOT
ATOM      1  C   UNL     1      -0.334   2.045  -0.670  0.00  0.00    +0.173 C 
ENDROOT
BRANCH   1   2
ATOM      2  C   UNL     1       0.993   2.691  -0.975  0.00  0.00    +0.231 C 
ATOM      3  O   UNL     1       1.985   2.006  -1.103  0.00  0.00    -0.274 OA
ATOM      4  N   UNL     1       1.076   4.030  -1.107  0.00  0.00    -0.240 N 
ATOM      5  C   UNL     1       2.262   4.608  -1.380  0.00  0.00    +0.306 C 
ATOM      6  O   UNL     1       3.257   3.922  -1.508  0.00  0.00    -0.252 OA
ATOM      7  N   UNL     1       2.345   5.946  -1.511  0.00  0.00    -0.299 N 
ATOM      8  H   UNL     1       0.175   4.651  -0.991  0.00  0.00    +0.159 HD
ATOM      9  H   UNL     1       1.444   6.567  -1.396  0.00  0.00    +0.150 HD
BRANCH   7  10
ATOM     10  C   UNL     1       3.635   6.575  -1.808  0.00  0.00    +0.110 C 
BRANCH  10  11
ATOM     11  C   UNL     1       3.453   8.091  -1.905  0.00  0.00    +0.049 C 
BRANCH  11  12
ATOM     12  C   UNL     1       4.780   8.737  -2.211  0.00  0.00    -0.072 C 
ATOM     13  C   UNL     1       5.061   8.991  -3.449  0.00  0.00    -0.028 C 
ATOM     14  C   UNL     1       6.343   9.621  -3.908  0.00  0.00    +0.027 C 
ATOM     15  C   UNL     1       7.053  10.291  -2.729  0.00  0.00    +0.004 C 
ATOM     16  C   UNL     1       7.116   9.290  -1.569  0.00  0.00    +0.005 C 
ATOM     17  C   UNL     1       5.691   9.052  -1.060  0.00  0.00    +0.030 C 
ENDBRANCH  11  12
ENDBRANCH  10  11
ENDBRANCH   7  10
ENDBRANCH   1   2
BRANCH   1  18
ATOM     18  S   UNL     1      -0.119   0.251  -0.555  0.00  0.00    -0.077 S 
BRANCH  18  24
ATOM     19  C   UNL     1      -1.431  -2.741  -0.050  0.00  0.00    +0.153 C 
ATOM     20  N   UNL     1      -2.223  -1.510  -0.007  0.00  0.00    -0.305 N 
ATOM     21  C   UNL     1      -3.572  -1.397   0.238  0.00  0.00    +0.165 A 
ATOM     22  N   UNL     1      -3.868  -0.119   0.183  0.00  0.00    -0.128 NA
ATOM     23  N   UNL     1      -2.811   0.566  -0.070  0.00  0.00    -0.122 NA
ATOM     24  C   UNL     1      -1.776  -0.234  -0.202  0.00  0.00    +0.192 A 
BRANCH  21  25
ATOM     25  C   UNL     1      -4.511  -2.505   0.511  0.00  0.00    +0.019 A 
ATOM     26  C   UNL     1      -5.883  -2.323   0.324  0.00  0.00    +0.015 A 
ATOM     27  C   UNL     1      -6.755  -3.361   0.576  0.00  0.00    +0.046 A 
ATOM     28  C   UNL     1      -6.272  -4.583   1.024  0.00  0.00    +0.120 A 
ATOM     29  C   UNL     1      -4.909  -4.766   1.217  0.00  0.00    +0.046 A 
ATOM     30  C   UNL     1      -4.030  -3.736   0.963  0.00  0.00    +0.015 A 
BRANCH  28  31
ATOM     31  O   UNL     1      -7.135  -5.601   1.276  0.00  0.00    -0.495 OA
ATOM     32  C   UNL     1      -8.524  -5.344   1.058  0.00  0.00    +0.277 C 
ENDBRANCH  28  31
ENDBRANCH  21  25
ENDBRANCH  18  24
ENDBRANCH   1  18
TORSDOF 8
