REMARK  Name = ZINC24629692
REMARK  12 active torsions:
REMARK  status: ('A' for Active; 'I' for Inactive)
REMARK    1  A    between atoms: C_1  and  C_2
REMARK    2  A    between atoms: C_4  and  C_16
REMARK    3  A    between atoms: C_5  and  C_15
REMARK    4  A    between atoms: N_6  and  C_7
REMARK    5  A    between atoms: C_16  and  C_18
REMARK    6  A    between atoms: C_18  and  O_19
REMARK    7  A    between atoms: O_19  and  C_20
REMARK    8  A    between atoms: C_20  and  C_22
REMARK    9  A    between atoms: C_22  and  O_23
REMARK   10  A    between atoms: O_23  and  C_24
REMARK   11  A    between atoms: C_29  and  O_30
REMARK   12  A    between atoms: O_30  and  C_31
REMARK                            x       y       z     vdW  Elec       q    Type
REMARK                         _______ _______ _______ _____ _____    ______ ____
ROOT
ATOM      1  C   UNL     1      -3.633   1.999  -0.202  0.00  0.00    +0.202 C 
ATOM      2  O   UNL     1      -3.525   3.195  -0.377  0.00  0.00    -0.288 OA
ENDROOT
BRANCH   1   6
ATOM      3  C   UNL     1      -7.391  -1.387   0.408  0.00  0.00    +0.063 C 
ATOM      4  C   UNL     1      -6.609  -0.115   0.200  0.00  0.00    +0.017 A 
ATOM      5  C   UNL     1      -5.270  -0.025   0.144  0.00  0.00    +0.034 A 
ATOM      6  C   UNL     1      -4.960   1.395  -0.071  0.00  0.00    +0.042 A 
ATOM      7  C   UNL     1      -6.179   2.045  -0.119  0.00  0.00    +0.027 A 
ATOM      8  N   UNL     1      -7.150   1.127   0.039  0.00  0.00    -0.343 N 
ATOM      9  C   UNL     1      -6.385   3.525  -0.317  0.00  0.00    +0.064 C 
BRANCH   8  10
ATOM     10  C   UNL     1      -8.585   1.422   0.043  0.00  0.00    +0.110 C 
ATOM     11  C   UNL     1      -9.204   0.925   1.361  0.00  0.00    +0.049 C 
ATOM     12  C   UNL     1     -10.752   0.960   1.212  0.00  0.00    +0.168 C 
ATOM     13  S   UNL     1     -10.939   0.336  -0.512  0.00  0.00    -0.029 S 
ATOM     14  O   UNL     1     -11.116  -1.073  -0.476  0.00  0.00    -0.174 OA
ATOM     15  O   UNL     1     -11.889   1.143  -1.195  0.00  0.00    -0.174 OA
ATOM     16  C   UNL     1      -9.259   0.713  -1.156  0.00  0.00    +0.191 C 
ENDBRANCH   8  10
ENDBRANCH   1   6
BRANCH   1  17
ATOM     17  C   UNL     1      -2.401   1.135  -0.118  0.00  0.00    +0.311 C 
BRANCH  17  18
ATOM     18  O   UNL     1      -1.218   1.963  -0.276  0.00  0.00    -0.454 OA
BRANCH  18  19
ATOM     19  C   UNL     1      -0.029   1.342  -0.225  0.00  0.00    +0.346 C 
ATOM     20  O   UNL     1       0.022   0.147  -0.055  0.00  0.00    -0.247 OA
BRANCH  19  21
ATOM     21  C   UNL     1       1.242   2.135  -0.387  0.00  0.00    +0.349 C 
BRANCH  21  22
ATOM     22  O   UNL     1       2.366   1.256  -0.303  0.00  0.00    -0.477 OA
BRANCH  22  23
ATOM     23  C   UNL     1       3.599   1.816  -0.430  0.00  0.00    +0.163 A 
ATOM     24  C   UNL     1       3.724   3.180  -0.637  0.00  0.00    +0.049 A 
ATOM     25  C   UNL     1       4.978   3.748  -0.761  0.00  0.00    +0.004 A 
ATOM     26  C   UNL     1       6.109   2.957  -0.689  0.00  0.00    +0.004 A 
ATOM     27  C   UNL     1       5.991   1.594  -0.488  0.00  0.00    +0.049 A 
ATOM     28  C   UNL     1       4.737   1.019  -0.358  0.00  0.00    +0.162 A 
BRANCH  28  29
ATOM     29  O   UNL     1       4.620  -0.322  -0.162  0.00  0.00    -0.491 OA
ATOM     30  C   UNL     1       5.831  -1.077  -0.099  0.00  0.00    +0.277 C 
ENDBRANCH  28  29
ENDBRANCH  22  23
ENDBRANCH  21  22
ENDBRANCH  19  21
ENDBRANCH  18  19
ENDBRANCH  17  18
ENDBRANCH   1  17
TORSDOF 9
