REMARK  Name = ZINC14028761
REMARK  14 active torsions:
REMARK  status: ('A' for Active; 'I' for Inactive)
REMARK    1  A    between atoms: C_1  and  C_2
REMARK    2  A    between atoms: C_2  and  C_3
REMARK    3  A    between atoms: C_3  and  C_4
REMARK    4  A    between atoms: C_4  and  C_5
REMARK    5  A    between atoms: C_5  and  C_6
REMARK    6  A    between atoms: C_6  and  O_7
REMARK    7  A    between atoms: O_7  and  C_8
REMARK    8  A    between atoms: C_11  and  C_14
REMARK    9  A    between atoms: N_16  and  C_17
REMARK   10  A    between atoms: C_17  and  N_19
REMARK   11  A    between atoms: C_25  and  C_27
REMARK   12  A    between atoms: C_27  and  C_28
REMARK   13  A    between atoms: C_28  and  O_30
REMARK   14  A    between atoms: O_30  and  C_31
REMARK                            x       y       z     vdW  Elec       q    Type
REMARK                         _______ _______ _______ _____ _____    ______ ____
ROOT
ATOM      1  C   UNL     1      -0.370   4.727   0.801  0.00  0.00    +0.140 C 
ATOM      2  S   UNL     1      -1.893   5.291   1.344  0.00  0.00    -0.018 S 
ENDROOT
BRANCH   1   3
ATOM      3  N   UNL     1      -0.293   3.607   0.056  0.00  0.00    -0.299 N 
ATOM      4  C   UNL     1      -1.494   2.821  -0.273  0.00  0.00    +0.126 C 
ATOM      5  C   UNL     1      -1.656   2.810  -1.794  0.00  0.00    +0.123 C 
ATOM      6  N   UNL     1      -0.389   2.508  -2.447  0.00  0.00    -0.312 N 
ATOM      7  C   UNL     1       0.810   2.672  -1.886  0.00  0.00    +0.234 C 
ATOM      8  O   UNL     1       1.797   2.454  -2.556  0.00  0.00    -0.274 OA
ATOM      9  C   UNL     1       0.995   3.120  -0.462  0.00  0.00    +0.171 C 
ATOM     10  H   UNL     1      -0.420   2.158  -3.351  0.00  0.00    +0.149 HD
BRANCH   9  11
ATOM     11  C   UNL     1       1.474   1.939   0.384  0.00  0.00    +0.152 C 
BRANCH  11  12
ATOM     12  C   UNL     1       1.800   2.417   1.775  0.00  0.00    +0.310 C 
ATOM     13  O   UNL     1       1.803   3.600   2.022  0.00  0.00    -0.251 OA
BRANCH  12  14
ATOM     14  O   UNL     1       2.087   1.529   2.740  0.00  0.00    -0.461 OA
BRANCH  14  15
ATOM     15  C   UNL     1       2.392   2.061   4.056  0.00  0.00    +0.176 C 
ATOM     16  C   UNL     1       3.896   2.318   4.167  0.00  0.00    +0.044 C 
ATOM     17  C   UNL     1       4.217   2.878   5.553  0.00  0.00    +0.004 C 
ATOM     18  C   UNL     1       3.793   1.869   6.622  0.00  0.00    +0.000 C 
ATOM     19  C   UNL     1       2.288   1.613   6.512  0.00  0.00    +0.004 C 
ATOM     20  C   UNL     1       1.967   1.052   5.125  0.00  0.00    +0.044 C 
ENDBRANCH  14  15
ENDBRANCH  12  14
ENDBRANCH  11  12
ENDBRANCH   9  11
ENDBRANCH   1   3
BRANCH   1  23
ATOM     21  C   UNL     1       0.685   6.469   1.943  0.00  0.00    +0.250 C 
ATOM     22  O   UNL     1      -0.386   6.819   2.398  0.00  0.00    -0.270 OA
ATOM     23  N   UNL     1       0.751   5.404   1.120  0.00  0.00    -0.264 N 
ATOM     24  H   UNL     1       1.606   5.124   0.757  0.00  0.00    +0.157 HD
BRANCH  21  28
ATOM     25  C   UNL     1       4.218   8.599   2.948  0.00  0.00    +0.121 A 
ATOM     26  C   UNL     1       2.994   9.002   3.469  0.00  0.00    +0.046 A 
ATOM     27  C   UNL     1       1.846   8.314   3.146  0.00  0.00    +0.016 A 
ATOM     28  C   UNL     1       1.912   7.209   2.292  0.00  0.00    +0.037 A 
ATOM     29  C   UNL     1       3.146   6.804   1.774  0.00  0.00    +0.016 A 
ATOM     30  C   UNL     1       4.288   7.501   2.099  0.00  0.00    +0.046 A 
BRANCH  25  31
ATOM     31  O   UNL     1       5.347   9.279   3.270  0.00  0.00    -0.492 OA
BRANCH  31  32
ATOM     32  C   UNL     1       6.571   8.812   2.699  0.00  0.00    +0.229 C 
BRANCH  32  33
ATOM     33  C   UNL     1       7.725   9.697   3.172  0.00  0.00    +0.041 C 
BRANCH  33  34
ATOM     34  C   UNL     1       9.036   9.197   2.562  0.00  0.00    +0.003 C 
BRANCH  34  35
ATOM     35  C   UNL     1      10.190  10.082   3.035  0.00  0.00    -0.000 C 
BRANCH  35  37
ATOM     36  C   UNL     1      12.655  10.467   2.898  0.00  0.00    +0.004 C 
ATOM     37  C   UNL     1      11.501   9.581   2.424  0.00  0.00    -0.003 C 
ENDBRANCH  35  37
ENDBRANCH  34  35
ENDBRANCH  33  34
ENDBRANCH  32  33
ENDBRANCH  31  32
ENDBRANCH  25  31
ENDBRANCH  21  28
ENDBRANCH   1  23
TORSDOF 13
