REMARK  Name = ZINC39353300
REMARK  7 active torsions:
REMARK  status: ('A' for Active; 'I' for Inactive)
REMARK    1  A    between atoms: C_1  and  C_2
REMARK    2  A    between atoms: C_5  and  C_8
REMARK    3  A    between atoms: C_12  and  S_18
REMARK    4  A    between atoms: N_14  and  C_15
REMARK    5  A    between atoms: C_15  and  C_16
REMARK    6  A    between atoms: S_18  and  C_19
REMARK    7  A    between atoms: C_19  and  C_20
REMARK                            x       y       z     vdW  Elec       q    Type
REMARK                         _______ _______ _______ _____ _____    ______ ____
ROOT
ATOM      1  C   UNL     1       0.022  -4.152   0.021  0.00  0.00    +0.050 C 
ATOM      2  N   UNL     1      -0.805  -4.673  -1.098  0.00  0.00    -0.267 NA
ATOM      3  N   UNL     1      -1.066  -6.070  -0.742  0.00  0.00    -0.262 NA
ATOM      4  C   UNL     1      -0.925  -6.172   0.725  0.00  0.00    +0.078 C 
ATOM      5  N   UNL     1      -0.569  -4.817   1.213  0.00  0.00    +0.413 N 
ATOM      6  H   UNL     1      -0.310  -4.609  -1.974  0.00  0.00    +0.139 HD
ATOM      7  H   UNL     1      -1.989  -6.352  -1.036  0.00  0.00    +0.140 HD
ATOM      8  H   UNL     1      -1.395  -4.325   1.519  0.00  0.00    -0.075 HD
ENDROOT
BRANCH   1  13
ATOM      9  C   UNL     1      -0.470   1.592   0.427  0.00  0.00    +0.044 C 
ATOM     10  C   UNL     1      -0.342   0.094   0.321  0.00  0.00    -0.050 A 
ATOM     11  C   UNL     1       0.909  -0.495   0.334  0.00  0.00    +0.003 A 
ATOM     12  C   UNL     1       1.027  -1.869   0.237  0.00  0.00    +0.003 A 
ATOM     13  C   UNL     1      -0.106  -2.654   0.128  0.00  0.00    -0.046 A 
ATOM     14  C   UNL     1      -1.357  -2.065   0.116  0.00  0.00    +0.003 A 
ATOM     15  C   UNL     1      -1.474  -0.691   0.217  0.00  0.00    +0.003 A 
ENDBRANCH   1  13
BRANCH   5  16
ATOM     16  C   UNL     1       0.417  -4.899   2.299  0.00  0.00    -0.045 C 
BRANCH  16  17
ATOM     17  C   UNL     1      -0.244  -5.449   3.536  0.00  0.00    -0.053 C 
ATOM     18  C   UNL     1       0.255  -6.506   4.130  0.00  0.00    +0.002 C 
ENDBRANCH  16  17
ENDBRANCH   5  16
BRANCH   4  19
ATOM     19  S   UNL     1      -2.491  -6.712   1.465  0.00  0.00    -0.152 S 
BRANCH  19  20
ATOM     20  C   UNL     1      -3.680  -5.442   0.950  0.00  0.00    +0.143 C 
BRANCH  20  21
ATOM     21  C   UNL     1      -5.041  -5.774   1.505  0.00  0.00    +0.120 A 
ATOM     22  N   UNL     1      -6.074  -4.938   1.222  0.00  0.00    -0.310 N 
ATOM     23  H   UNL     1      -5.919  -4.152   0.675  0.00  0.00    +0.170 HD
ATOM     24  C   UNL     1      -7.315  -5.192   1.696  0.00  0.00    +0.259 A 
ATOM     25  O   UNL     1      -8.250  -4.452   1.450  0.00  0.00    -0.267 OA
ATOM     26  C   UNL     1      -7.492  -6.397   2.520  0.00  0.00    +0.065 A 
ATOM     27  C   UNL     1      -8.729  -6.748   3.057  0.00  0.00    +0.015 A 
ATOM     28  C   UNL     1      -8.838  -7.888   3.822  0.00  0.00    +0.001 A 
ATOM     29  C   UNL     1      -7.727  -8.687   4.062  0.00  0.00    +0.002 A 
ATOM     30  C   UNL     1      -6.496  -8.357   3.541  0.00  0.00    +0.028 A 
ATOM     31  C   UNL     1      -6.360  -7.207   2.762  0.00  0.00    +0.078 A 
ATOM     32  N   UNL     1      -5.167  -6.847   2.225  0.00  0.00    -0.233 NA
ENDBRANCH  20  21
ENDBRANCH  19  20
ENDBRANCH   4  19
TORSDOF 6
