REMARK  Name = ZINC18956398
REMARK  6 active torsions:
REMARK  status: ('A' for Active; 'I' for Inactive)
REMARK    1  A    between atoms: C_1  and  C_2
REMARK    2  A    between atoms: C_2  and  C_4
REMARK    3  A    between atoms: C_2  and  N_14
REMARK    4  A    between atoms: C_15  and  C_17
REMARK    5  A    between atoms: C_17  and  N_18
REMARK    6  A    between atoms: C_25  and  N_29
REMARK                            x       y       z     vdW  Elec       q    Type
REMARK                         _______ _______ _______ _____ _____    ______ ____
ROOT
ATOM      1  N   UNL     1       0.008   0.937  -0.055  0.00  0.00    -0.307 N 
ATOM      2  C   UNL     1      -1.182   1.567  -0.105  0.00  0.00    +0.231 C 
ATOM      3  O   UNL     1      -1.227   2.779  -0.100  0.00  0.00    -0.274 OA
ATOM      4  H   UNL     1       0.044  -0.033  -0.060  0.00  0.00    +0.149 HD
ENDROOT
BRANCH   1   6
ATOM      5  C   UNL     1       1.704   2.047  -1.423  0.00  0.00    +0.033 C 
ATOM      6  C   UNL     1       1.248   1.716  -0.001  0.00  0.00    +0.101 C 
BRANCH   6   7
ATOM      7  C   UNL     1       2.316   0.912   0.695  0.00  0.00    -0.020 A 
ATOM      8  C   UNL     1       2.273  -0.449   0.671  0.00  0.00    +0.006 A 
ATOM      9  C   UNL     1       3.254  -1.209   1.305  0.00  0.00    +0.001 A 
ATOM     10  C   UNL     1       4.278  -0.613   1.975  0.00  0.00    +0.008 A 
ATOM     11  C   UNL     1       4.353   0.789   2.026  0.00  0.00    -0.018 A 
ATOM     12  C   UNL     1       3.357   1.562   1.377  0.00  0.00    -0.013 A 
ATOM     13  C   UNL     1       3.433   2.965   1.428  0.00  0.00    +0.009 A 
ATOM     14  C   UNL     1       4.457   3.560   2.097  0.00  0.00    +0.001 A 
ATOM     15  C   UNL     1       5.436   2.800   2.735  0.00  0.00    +0.001 A 
ATOM     16  C   UNL     1       5.396   1.440   2.707  0.00  0.00    +0.008 A 
ENDBRANCH   6   7
ENDBRANCH   1   6
BRANCH   2  17
ATOM     17  C   UNL     1      -2.457   0.766  -0.168  0.00  0.00    +0.212 C 
BRANCH  17  18
ATOM     18  N   UNL     1      -3.604   1.677  -0.214  0.00  0.00    -0.225 N 
ATOM     19  C   UNL     1      -4.150   2.156  -1.346  0.00  0.00    +0.254 C 
ATOM     20  O   UNL     1      -3.776   1.907  -2.474  0.00  0.00    -0.270 OA
ATOM     21  C   UNL     1      -5.282   3.036  -0.986  0.00  0.00    +0.052 A 
ATOM     22  C   UNL     1      -6.193   3.787  -1.712  0.00  0.00    +0.014 A 
ATOM     23  C   UNL     1      -7.161   4.524  -1.048  0.00  0.00    +0.003 A 
ATOM     24  C   UNL     1      -7.223   4.516   0.333  0.00  0.00    +0.033 A 
ATOM     25  C   UNL     1      -6.318   3.770   1.072  0.00  0.00    +0.139 A 
ATOM     26  C   UNL     1      -5.346   3.028   0.422  0.00  0.00    +0.080 A 
ATOM     27  C   UNL     1      -4.253   2.138   0.870  0.00  0.00    +0.256 C 
ATOM     28  O   UNL     1      -3.985   1.871   2.024  0.00  0.00    -0.269 OA
BRANCH  25  29
ATOM     29  N   UNL     1      -6.391   3.766   2.551  0.00  0.00    +0.057 N 
ATOM     30  O   UNL     1      -7.248   4.419   3.120  0.00  0.00    -0.126 OA
ATOM     31  O   UNL     1      -5.595   3.110   3.198  0.00  0.00    -0.126 OA
ENDBRANCH  25  29
ENDBRANCH  17  18
ENDBRANCH   2  17
TORSDOF 5
