REMARK  Name = ZINC09757962
REMARK  5 active torsions:
REMARK  status: ('A' for Active; 'I' for Inactive)
REMARK    1  A    between atoms: C_6  and  C_7
REMARK    2  A    between atoms: C_7  and  C_9
REMARK    3  A    between atoms: C_7  and  N_12
REMARK    4  A    between atoms: N_18  and  S_21
REMARK    5  A    between atoms: S_21  and  C_24
REMARK                            x       y       z     vdW  Elec       q    Type
REMARK                         _______ _______ _______ _____ _____    ______ ____
ROOT
ATOM      1  N   UNL     1      -2.600   4.404  -5.120  0.00  0.00    -0.292 N 
ATOM      2  C   UNL     1      -1.259   4.320  -5.014  0.00  0.00    +0.303 C 
ATOM      3  O   UNL     1      -0.555   4.608  -5.962  0.00  0.00    -0.253 OA
ATOM      4  N   UNL     1      -0.699   3.916  -3.856  0.00  0.00    -0.283 N 
ATOM      5  C   UNL     1      -1.529   3.674  -2.668  0.00  0.00    +0.126 C 
ATOM      6  C   UNL     1      -0.990   4.524  -1.511  0.00  0.00    +0.128 C 
ATOM      7  N   UNL     1       0.462   4.318  -1.415  0.00  0.00    -0.174 NA
ATOM      8  C   UNL     1       1.293   4.566  -2.601  0.00  0.00    +0.128 C 
ATOM      9  C   UNL     1       0.753   3.710  -3.760  0.00  0.00    +0.126 C 
ATOM     10  H   UNL     1      -3.159   4.249  -4.343  0.00  0.00    +0.151 HD
ENDROOT
BRANCH   7  11
ATOM     11  S   UNL     1       1.151   3.822   0.008  0.00  0.00    +0.064 S 
ATOM     12  O   UNL     1       0.261   4.208   1.046  0.00  0.00    -0.153 OA
ATOM     13  O   UNL     1       2.507   4.244  -0.029  0.00  0.00    -0.153 OA
BRANCH  11  14
ATOM     14  C   UNL     1       1.170   2.060  -0.010  0.00  0.00    +0.143 A 
ATOM     15  C   UNL     1       2.375   1.383  -0.029  0.00  0.00    +0.069 A 
ATOM     16  C   UNL     1       2.390  -0.001  -0.044  0.00  0.00    +0.125 A 
ATOM     17  C   UNL     1       1.199  -0.707  -0.038  0.00  0.00    +0.041 A 
ATOM     18  C   UNL     1      -0.005  -0.030  -0.019  0.00  0.00    +0.043 A 
ATOM     19  C   UNL     1      -0.021   1.355  -0.005  0.00  0.00    +0.150 A 
ATOM     20  F   UNL     1      -1.198   2.017   0.008  0.00  0.00    -0.203 F 
ATOM     21  F   UNL     1       3.568  -0.664  -0.063  0.00  0.00    -0.205 F 
ENDBRANCH  11  14
ENDBRANCH   7  11
BRANCH   1  22
ATOM     22  C   UNL     1      -3.214   4.729  -6.410  0.00  0.00    +0.108 C 
BRANCH  22  28
ATOM     23  C   UNL     1      -5.397   4.856  -5.194  0.00  0.00    +0.007 A 
ATOM     24  C   UNL     1      -6.636   5.431  -4.979  0.00  0.00    +0.020 A 
ATOM     25  C   UNL     1      -7.048   6.497  -5.759  0.00  0.00    +0.041 A 
ATOM     26  C   UNL     1      -6.218   6.990  -6.750  0.00  0.00    +0.020 A 
ATOM     27  C   UNL     1      -4.977   6.417  -6.960  0.00  0.00    +0.007 A 
ATOM     28  C   UNL     1      -4.566   5.353  -6.180  0.00  0.00    -0.027 A 
ATOM     29 CL   UNL     1      -8.605   7.216  -5.494  0.00  0.00    -0.084 Cl
ENDBRANCH  22  28
BRANCH  22  30
ATOM     30  C   UNL     1      -3.375   3.450  -7.235  0.00  0.00    +0.014 C 
ATOM     31  C   UNL     1      -3.091   2.119  -6.536  0.00  0.00    +0.006 C 
ATOM     32  C   UNL     1      -2.107   2.664  -7.574  0.00  0.00    +0.006 C 
ENDBRANCH  22  30
ENDBRANCH   1  22
TORSDOF 5
