REMARK  Name = ZINC64170356
REMARK  11 active torsions:
REMARK  status: ('A' for Active; 'I' for Inactive)
REMARK    1  A    between atoms: C_1  and  C_2
REMARK    2  A    between atoms: C_2  and  N_3
REMARK    3  A    between atoms: N_3  and  C_4
REMARK    4  A    between atoms: N_3  and  S_6
REMARK    5  A    between atoms: C_4  and  C_5
REMARK    6  A    between atoms: S_6  and  C_9
REMARK    7  A    between atoms: C_13  and  C_19
REMARK    8  A    between atoms: C_19  and  S_20
REMARK    9  A    between atoms: S_20  and  C_21
REMARK   10  A    between atoms: N_30  and  C_31
REMARK   11  A    between atoms: C_31  and  C_32
REMARK                            x       y       z     vdW  Elec       q    Type
REMARK                         _______ _______ _______ _____ _____    ______ ____
ROOT
ATOM      1  C   UNL     1      -0.337   0.586  -3.526  0.00  0.00    +0.107 C 
ATOM      2  C   UNL     1       0.331   0.679  -4.718  0.00  0.00    +0.054 C 
ATOM      3  C   UNL     1       0.198   1.905  -5.383  0.00  0.00    +0.073 C 
ATOM      4  N   UNL     1       0.190   2.251  -6.635  0.00  0.00    -0.234 NA
ATOM      5  C   UNL     1      -0.298   3.489  -6.795  0.00  0.00    +0.136 C 
ATOM      6  N   UNL     1      -0.505   4.109  -5.668  0.00  0.00    -0.255 NA
ATOM      7  C   UNL     1      -0.053   3.200  -4.619  0.00  0.00    +0.179 C 
ATOM      8  C   UNL     1      -1.076   2.895  -3.565  0.00  0.00    +0.008 C 
ATOM      9  C   UNL     1      -1.151   1.650  -3.074  0.00  0.00    +0.027 C 
ENDROOT
BRANCH   1  10
ATOM     10  S   UNL     1      -0.188  -0.875  -2.551  0.00  0.00    +0.061 S 
ATOM     11  O   UNL     1       0.610  -1.782  -3.300  0.00  0.00    -0.153 OA
ATOM     12  O   UNL     1      -1.496  -1.201  -2.104  0.00  0.00    -0.153 OA
BRANCH  10  13
ATOM     13  N   UNL     1       0.688  -0.476  -1.203  0.00  0.00    -0.177 NA
BRANCH  13  15
ATOM     14  C   UNL     1      -0.019   1.526   0.010  0.00  0.00    +0.022 C 
ATOM     15  C   UNL     1       0.002  -0.004   0.002  0.00  0.00    +0.106 C 
ENDBRANCH  13  15
BRANCH  13  16
ATOM     16  C   UNL     1       2.148  -0.597  -1.216  0.00  0.00    +0.106 C 
ATOM     17  C   UNL     1       2.553  -1.951  -0.632  0.00  0.00    +0.022 C 
ENDBRANCH  13  16
ENDBRANCH  10  13
ENDBRANCH   1  10
BRANCH   5  18
ATOM     18  C   UNL     1      -0.578   4.102  -8.143  0.00  0.00    +0.153 C 
BRANCH  18  19
ATOM     19  S   UNL     1      -1.225   5.782  -7.921  0.00  0.00    -0.080 S 
BRANCH  19  20
ATOM     20  C   UNL     1      -1.498   6.354  -9.565  0.00  0.00    +0.173 A 
ATOM     21  N   UNL     1      -1.223   5.553 -10.559  0.00  0.00    -0.222 NA
ATOM     22  C   UNL     1      -1.409   5.926 -11.860  0.00  0.00    +0.086 A 
ATOM     23  C   UNL     1      -1.161   5.182 -13.023  0.00  0.00    +0.036 A 
ATOM     24  C   UNL     1      -1.407   5.718 -14.237  0.00  0.00    +0.048 A 
ATOM     25  S   UNL     1      -2.020   7.345 -13.833  0.00  0.00    -0.090 S 
ATOM     26  C   UNL     1      -1.914   7.222 -12.067  0.00  0.00    +0.102 A 
ATOM     27  C   UNL     1      -2.204   8.070 -11.001  0.00  0.00    +0.269 A 
ATOM     28  O   UNL     1      -2.642   9.192 -11.196  0.00  0.00    -0.266 OA
ATOM     29  N   UNL     1      -1.994   7.614  -9.743  0.00  0.00    -0.283 N 
BRANCH  29  30
ATOM     30  C   UNL     1      -2.290   8.465  -8.588  0.00  0.00    +0.154 C 
BRANCH  30  31
ATOM     31  C   UNL     1      -1.068   9.272  -8.232  0.00  0.00    -0.013 C 
ATOM     32  C   UNL     1      -1.143  10.577  -8.158  0.00  0.00    +0.005 C 
ENDBRANCH  30  31
ENDBRANCH  29  30
ENDBRANCH  19  20
ENDBRANCH  18  19
ENDBRANCH   5  18
TORSDOF 9
