REMARK  Name = ZINC14987440
REMARK  9 active torsions:
REMARK  status: ('A' for Active; 'I' for Inactive)
REMARK    1  A    between atoms: C_1  and  C_2
REMARK    2  A    between atoms: C_4  and  C_7
REMARK    3  A    between atoms: C_7  and  C_9
REMARK    4  A    between atoms: C_7  and  N_10
REMARK    5  A    between atoms: C_21  and  N_60
REMARK    6  A    between atoms: C_25  and  N_60
REMARK    7  A    between atoms: C_26  and  C_27
REMARK    8  A    between atoms: C_26  and  N_60
REMARK    9  A    between atoms: C_27  and  C_28
REMARK                            x       y       z     vdW  Elec       q    Type
REMARK                         _______ _______ _______ _____ _____    ______ ____
ROOT
ATOM      1  N   UNL     1      -7.398   3.373   8.171  0.00  0.00    -0.290 N 
ATOM      2  C   UNL     1      -7.333   2.102   8.637  0.00  0.00    +0.203 A 
ATOM      3  N   UNL     1      -6.682   1.144   8.014  0.00  0.00    -0.230 NA
ATOM      4  C   UNL     1      -6.068   1.461   6.878  0.00  0.00    +0.116 A 
ATOM      5  C   UNL     1      -6.078   2.756   6.312  0.00  0.00    +0.076 A 
ATOM      6  C   UNL     1      -6.800   3.772   7.024  0.00  0.00    +0.263 A 
ATOM      7  O   UNL     1      -6.871   4.920   6.621  0.00  0.00    -0.267 OA
ATOM      8  C   UNL     1      -5.351   2.915   5.066  0.00  0.00    -0.023 A 
ATOM      9  C   UNL     1      -4.739   1.812   4.574  0.00  0.00    -0.006 A 
ATOM     10  S   UNL     1      -5.102   0.522   5.738  0.00  0.00    -0.073 S 
ATOM     11  C   UNL     1      -3.931   1.707   3.318  0.00  0.00    +0.027 C 
ATOM     12  C   UNL     1      -3.579   3.125   2.846  0.00  0.00    -0.064 C 
ATOM     13  C   UNL     1      -4.849   3.981   2.876  0.00  0.00    -0.010 C 
ATOM     14  C   UNL     1      -5.262   4.246   4.324  0.00  0.00    +0.035 C 
ENDROOT
BRANCH  12  16
ATOM     15  C   UNL     1      -1.726   2.441   1.445  0.00  0.00    -0.096 C 
ATOM     16  N   UNL     1      -3.049   3.099   1.466  0.00  0.00    +0.380 N 
ATOM     17  H   UNL     1      -2.948   4.064   1.130  0.00  0.00    -0.082 HD
BRANCH  16  18
ATOM     18  C   UNL     1      -3.986   2.378   0.579  0.00  0.00    -0.074 C 
BRANCH  18  19
ATOM     19  C   UNL     1      -3.531   2.557  -0.870  0.00  0.00    +0.016 C 
BRANCH  19  20
ATOM     20  C   UNL     1      -4.489   1.845  -1.790  0.00  0.00    -0.049 A 
ATOM     21  C   UNL     1      -4.265   0.524  -2.132  0.00  0.00    +0.003 A 
ATOM     22  C   UNL     1      -5.141  -0.127  -2.981  0.00  0.00    +0.000 A 
ATOM     23  C   UNL     1      -6.239   0.542  -3.487  0.00  0.00    +0.000 A 
ATOM     24  C   UNL     1      -6.463   1.862  -3.144  0.00  0.00    +0.000 A 
ATOM     25  C   UNL     1      -5.588   2.514  -2.295  0.00  0.00    +0.003 A 
ENDBRANCH  19  20
ENDBRANCH  18  19
ENDBRANCH  16  18
ENDBRANCH  12  16
BRANCH   1  26
ATOM     26  C   UNL     1      -8.151   4.362   8.947  0.00  0.00    +0.137 C 
ATOM     27  C   UNL     1      -7.540   4.488  10.344  0.00  0.00    +0.038 C 
BRANCH  26  31
ATOM     28  C   UNL     1     -11.714   0.850   8.996  0.00  0.00    +0.073 C 
ATOM     29  C   UNL     1     -11.158   2.249   9.074  0.00  0.00    +0.076 A 
ATOM     30  N   UNL     1      -9.912   2.648   8.967  0.00  0.00    -0.247 NA
ATOM     31  C   UNL     1      -9.587   3.920   9.065  0.00  0.00    +0.071 A 
ATOM     32  C   UNL     1     -10.579   4.825   9.268  0.00  0.00    +0.072 A 
ATOM     33  S   UNL     1     -12.002   3.746   9.320  0.00  0.00    -0.080 S 
ENDBRANCH  26  31
ENDBRANCH   1  26
TORSDOF 6
