REMARK  Name = ZINC49641786
REMARK  4 active torsions:
REMARK  status: ('A' for Active; 'I' for Inactive)
REMARK    1  A    between atoms: C_3  and  C_7
REMARK    2  A    between atoms: C_7  and  S_8
REMARK    3  A    between atoms: S_8  and  N_11
REMARK    4  A    between atoms: N_11  and  C_12
REMARK                            x       y       z     vdW  Elec       q    Type
REMARK                         _______ _______ _______ _____ _____    ______ ____
ROOT
ATOM      1  S   UNL     1       4.261  -0.618  -1.749  0.00  0.00    +0.028 S 
ATOM      2  O   UNL     1       3.712  -1.906  -1.507  0.00  0.00    -0.158 OA
ATOM      3  O   UNL     1       4.286  -0.076  -3.063  0.00  0.00    -0.158 OA
ENDROOT
BRANCH   1   4
ATOM      4  N   UNL     1       5.854  -0.750  -1.317  0.00  0.00    -0.193 NA
ATOM      5  H   UNL     1       6.549  -0.461  -1.930  0.00  0.00    +0.148 HD
BRANCH   4   6
ATOM      6  C   UNL     1       6.215  -1.302  -0.009  0.00  0.00    +0.063 C 
ATOM      7  C   UNL     1       6.515  -2.796  -0.149  0.00  0.00    -0.058 C 
ATOM      8  N   UNL     1       7.893  -3.072   0.265  0.00  0.00    +0.381 N 
ATOM      9  C   UNL     1       8.842  -2.353  -0.588  0.00  0.00    -0.078 C 
ATOM     10  C   UNL     1       8.619  -0.844  -0.463  0.00  0.00    -0.014 C 
ATOM     11  C   UNL     1       7.467  -0.591   0.522  0.00  0.00    +0.002 C 
ATOM     12  C   UNL     1       7.841  -1.215   1.873  0.00  0.00    -0.014 C 
ATOM     13  C   UNL     1       8.090  -2.714   1.672  0.00  0.00    -0.078 C 
ATOM     14  H   UNL     1       8.066  -4.061   0.160  0.00  0.00    -0.082 HD
ENDBRANCH   4   6
ENDBRANCH   1   4
BRANCH   1  15
ATOM     15  C   UNL     1       3.562   0.588  -0.589  0.00  0.00    +0.169 C 
BRANCH  15  18
ATOM     16  C   UNL     1      -0.019   1.539   0.011  0.00  0.00    -0.021 C 
ATOM     17  C   UNL     1       1.488   1.909  -0.002  0.00  0.00    -0.016 C 
ATOM     18  C   UNL     1       2.077   0.791  -0.898  0.00  0.00    -0.049 C 
ATOM     19  N   UNL     1       1.306  -0.420  -0.547  0.00  0.00    +0.382 N 
ATOM     20  C   UNL     1       0.002  -0.004   0.002  0.00  0.00    -0.082 C 
ATOM     21  H   UNL     1       1.163  -0.983  -1.372  0.00  0.00    -0.085 HD
ATOM     22  H   UNL     1       1.810  -0.955   0.144  0.00  0.00    -0.085 HD
ENDBRANCH  15  18
ENDBRANCH   1  15
TORSDOF 4
