REMARK  Name = ZINC62099547
REMARK  6 active torsions:
REMARK  status: ('A' for Active; 'I' for Inactive)
REMARK    1  A    between atoms: C_1  and  C_2
REMARK    2  A    between atoms: C_2  and  C_3
REMARK    3  A    between atoms: C_3  and  C_5
REMARK    4  A    between atoms: C_3  and  N_21
REMARK    5  A    between atoms: C_5  and  C_7
REMARK    6  A    between atoms: C_5  and  N_13
REMARK                            x       y       z     vdW  Elec       q    Type
REMARK                         _______ _______ _______ _____ _____    ______ ____
ROOT
ATOM      1  C   UNL     1       0.980  -2.022   1.235  0.00  0.00    +0.079 C 
ENDROOT
BRANCH   1   2
ATOM      2  N   UNL     1       1.833  -2.378   0.093  0.00  0.00    -0.295 NA
ATOM      3  C   UNL     1       1.403  -1.690  -1.115  0.00  0.00    +0.094 C 
ATOM      4  C   UNL     1       2.498  -1.738  -2.184  0.00  0.00    +0.111 C 
ATOM      5  C   UNL     1       2.381  -3.052  -2.929  0.00  0.00    +0.214 C 
ATOM      6  O   UNL     1       2.001  -3.066  -4.081  0.00  0.00    -0.276 OA
ATOM      7  N   UNL     1       2.698  -4.196  -2.316  0.00  0.00    -0.314 N 
ATOM      8  C   UNL     1       3.166  -4.180  -0.919  0.00  0.00    +0.119 C 
ATOM      9  C   UNL     1       1.985  -3.822  -0.014  0.00  0.00    +0.103 C 
ATOM     10  H   UNL     1       2.620  -5.038  -2.791  0.00  0.00    +0.149 HD
ENDBRANCH   1   2
BRANCH   1  11
ATOM     11  C   UNL     1       1.494  -2.701   2.478  0.00  0.00    +0.006 A 
ATOM     12  C   UNL     1       0.796  -3.289   3.480  0.00  0.00    +0.028 A 
ATOM     13  C   UNL     1       1.487  -3.857   4.535  0.00  0.00    +0.025 A 
ATOM     14  C   UNL     1       2.842  -3.808   4.535  0.00  0.00    +0.060 A 
ATOM     15  S   UNL     1       3.181  -2.947   3.008  0.00  0.00    -0.099 S 
ATOM     16 BR   UNL     1       0.556  -4.687   5.956  0.00  0.00    -0.050 Br
ENDBRANCH   1  11
BRANCH   1  17
ATOM     17  C   UNL     1       1.003  -0.506   1.435  0.00  0.00    -0.053 C 
BRANCH  17  18
ATOM     18  N   UNL     1       2.387  -0.062   1.652  0.00  0.00    +0.381 N 
ATOM     19  H   UNL     1       2.761  -0.515   2.472  0.00  0.00    -0.090 HD
ATOM     20  H   UNL     1       2.947  -0.304   0.849  0.00  0.00    -0.090 HD
ATOM     21  H   UNL     1       2.402   0.938   1.785  0.00  0.00    -0.090 HD
ENDBRANCH  17  18
BRANCH  17  23
ATOM     22  C   UNL     1       0.060   1.383   2.771  0.00  0.00    +0.002 C 
ATOM     23  C   UNL     1       0.153  -0.139   2.653  0.00  0.00    -0.018 C 
ENDBRANCH  17  23
ENDBRANCH   1  17
TORSDOF 5
