REMARK  Name = ZINC60829797
REMARK  7 active torsions:
REMARK  status: ('A' for Active; 'I' for Inactive)
REMARK    1  A    between atoms: C_1  and  C_2
REMARK    2  A    between atoms: C_3  and  N_12
REMARK    3  A    between atoms: C_5  and  C_9
REMARK    4  A    between atoms: C_13  and  C_15
REMARK    5  A    between atoms: C_16  and  C_20
REMARK    6  A    between atoms: C_20  and  O_21
REMARK    7  A    between atoms: O_21  and  C_22
REMARK                            x       y       z     vdW  Elec       q    Type
REMARK                         _______ _______ _______ _____ _____    ______ ____
ROOT
ATOM      1  N   UNL     1      -0.010   0.018  -2.412  0.00  0.00    -0.279 N 
ATOM      2  C   UNL     1       0.095  -0.642  -3.583  0.00  0.00    +0.284 C 
ATOM      3  O   UNL     1       0.112  -1.859  -3.596  0.00  0.00    -0.266 OA
ATOM      4  H   UNL     1      -0.105   0.983  -2.407  0.00  0.00    +0.155 HD
ENDROOT
BRANCH   1   7
ATOM      5  C   UNL     1      -1.264   1.189  -0.147  0.00  0.00    +0.048 C 
ATOM      6  C   UNL     1      -0.585  -0.154  -0.073  0.00  0.00    +0.006 A 
ATOM      7  C   UNL     1       0.017  -0.689  -1.206  0.00  0.00    +0.040 A 
ATOM      8  C   UNL     1       0.643  -1.924  -1.141  0.00  0.00    +0.036 A 
ATOM      9  C   UNL     1       0.668  -2.627   0.064  0.00  0.00    +0.041 A 
ATOM     10  C   UNL     1       0.061  -2.082   1.197  0.00  0.00    +0.051 A 
ATOM     11  C   UNL     1      -0.556  -0.848   1.124  0.00  0.00    +0.129 A 
ATOM     12  F   UNL     1      -1.138  -0.319   2.223  0.00  0.00    -0.205 F 
BRANCH   9  13
ATOM     13  C   UNL     1       1.333  -3.945   0.140  0.00  0.00    +0.242 C 
ATOM     14  O   UNL     1       1.860  -4.418  -0.848  0.00  0.00    -0.270 OA
ATOM     15  N   UNL     1       1.356  -4.622   1.305  0.00  0.00    -0.325 N 
ATOM     16  H   UNL     1       0.935  -4.245   2.094  0.00  0.00    +0.145 HD
ATOM     17  H   UNL     1       1.793  -5.487   1.355  0.00  0.00    +0.145 HD
ENDBRANCH   9  13
ENDBRANCH   1   7
BRANCH   2  18
ATOM     18  C   UNL     1       0.188   0.106  -4.840  0.00  0.00    +0.196 A 
ATOM     19  C   UNL     1       0.293  -0.435  -6.090  0.00  0.00    +0.040 A 
ATOM     20  C   UNL     1       0.355   0.640  -6.991  0.00  0.00    +0.049 A 
ATOM     21  C   UNL     1       0.286   1.775  -6.261  0.00  0.00    +0.196 A 
ATOM     22  O   UNL     1       0.180   1.449  -4.966  0.00  0.00    -0.458 OA
BRANCH  19  23
ATOM     23  C   UNL     1       0.334  -1.901  -6.435  0.00  0.00    +0.268 C 
BRANCH  23  24
ATOM     24  O   UNL     1       0.449  -2.054  -7.851  0.00  0.00    -0.487 OA
BRANCH  24  25
ATOM     25  C   UNL     1       0.499  -3.324  -8.332  0.00  0.00    +0.121 A 
ATOM     26  C   UNL     1       0.434  -4.401  -7.460  0.00  0.00    +0.045 A 
ATOM     27  C   UNL     1       0.485  -5.691  -7.951  0.00  0.00    +0.004 A 
ATOM     28  C   UNL     1       0.601  -5.910  -9.311  0.00  0.00    +0.000 A 
ATOM     29  C   UNL     1       0.667  -4.838 -10.183  0.00  0.00    +0.004 A 
ATOM     30  C   UNL     1       0.610  -3.546  -9.697  0.00  0.00    +0.045 A 
ENDBRANCH  24  25
ENDBRANCH  23  24
ENDBRANCH  19  23
ENDBRANCH   2  18
TORSDOF 6
