REMARK  Name = ZINC66865968
REMARK  5 active torsions:
REMARK  status: ('A' for Active; 'I' for Inactive)
REMARK    1  A    between atoms: C_6  and  C_7
REMARK    2  A    between atoms: C_7  and  C_9
REMARK    3  A    between atoms: C_7  and  O_24
REMARK    4  A    between atoms: C_9  and  N_10
REMARK    5  A    between atoms: C_16  and  C_18
REMARK                            x       y       z     vdW  Elec       q    Type
REMARK                         _______ _______ _______ _____ _____    ______ ____
ROOT
ATOM      1  N   UNL     1      -2.174  -2.273   2.449  0.00  0.00    -0.297 NA
ATOM      2  C   UNL     1      -2.041  -3.618   1.873  0.00  0.00    +0.103 C 
ATOM      3  C   UNL     1      -3.419  -4.117   1.427  0.00  0.00    +0.123 C 
ATOM      4  N   UNL     1      -4.343  -4.018   2.568  0.00  0.00    -0.299 N 
ATOM      5  C   UNL     1      -4.429  -2.736   3.284  0.00  0.00    +0.123 C 
ATOM      6  C   UNL     1      -3.010  -2.291   3.656  0.00  0.00    +0.103 C 
ATOM      7  C   UNL     1      -5.092  -5.073   2.946  0.00  0.00    +0.219 C 
ATOM      8  O   UNL     1      -5.912  -4.949   3.830  0.00  0.00    -0.275 OA
ENDROOT
BRANCH   7   9
ATOM      9  C   UNL     1      -4.909  -6.407   2.269  0.00  0.00    +0.075 C 
ATOM     10  C   UNL     1      -5.732  -6.442   0.980  0.00  0.00    +0.013 C 
ATOM     11  C   UNL     1      -5.547  -7.797   0.293  0.00  0.00    +0.001 C 
ATOM     12  C   UNL     1      -6.018  -8.912   1.229  0.00  0.00    +0.000 C 
ATOM     13  C   UNL     1      -5.196  -8.877   2.519  0.00  0.00    +0.001 C 
ATOM     14  C   UNL     1      -5.381  -7.522   3.205  0.00  0.00    +0.013 C 
ENDBRANCH   7   9
BRANCH   1  15
ATOM     15  C   UNL     1      -0.856  -1.689   2.731  0.00  0.00    +0.120 C 
BRANCH  15  16
ATOM     16  C   UNL     1      -0.985  -0.168   2.840  0.00  0.00    +0.158 C 
BRANCH  16  22
ATOM     17  C   UNL     1       0.607   0.678   4.577  0.00  0.00    +0.007 A 
ATOM     18  C   UNL     1       1.823   1.218   4.948  0.00  0.00    +0.020 A 
ATOM     19  C   UNL     1       2.777   1.501   3.987  0.00  0.00    +0.041 A 
ATOM     20  C   UNL     1       2.512   1.243   2.653  0.00  0.00    +0.020 A 
ATOM     21  C   UNL     1       1.294   0.704   2.283  0.00  0.00    +0.007 A 
ATOM     22  C   UNL     1       0.342   0.421   3.244  0.00  0.00    -0.018 A 
ATOM     23 CL   UNL     1       4.305   2.180   4.452  0.00  0.00    -0.084 Cl
ENDBRANCH  16  22
BRANCH  16  24
ATOM     24  O   UNL     1      -1.379   0.369   1.576  0.00  0.00    -0.386 OA
ATOM     25  H   UNL     1      -0.755   0.186   0.859  0.00  0.00    +0.210 HD
ENDBRANCH  16  24
ENDBRANCH  15  16
ENDBRANCH   1  15
TORSDOF 5
