REMARK  Name = ZINC11840013
REMARK  12 active torsions:
REMARK  status: ('A' for Active; 'I' for Inactive)
REMARK    1  A    between atoms: C_1  and  N_2
REMARK    2  A    between atoms: N_2  and  C_3
REMARK    3  A    between atoms: N_2  and  S_4
REMARK    4  A    between atoms: S_4  and  N_7
REMARK    5  A    between atoms: N_7  and  C_8
REMARK    6  A    between atoms: C_11  and  N_14
REMARK    7  A    between atoms: C_17  and  N_67
REMARK    8  A    between atoms: C_20  and  C_21
REMARK    9  A    between atoms: C_20  and  N_67
REMARK   10  A    between atoms: C_21  and  C_22
REMARK   11  A    between atoms: C_22  and  C_24
REMARK   12  A    between atoms: C_22  and  C_30
REMARK                            x       y       z     vdW  Elec       q    Type
REMARK                         _______ _______ _______ _____ _____    ______ ____
ROOT
ATOM      1  N   UNL     1      -2.740  -4.440  -0.813  0.00  0.00    -0.330 N 
ATOM      2  C   UNL     1      -2.782  -4.026   0.595  0.00  0.00    +0.103 C 
ATOM      3  C   UNL     1      -2.769  -2.498   0.680  0.00  0.00    +0.003 C 
ATOM      4  C   UNL     1      -1.500  -1.965   0.009  0.00  0.00    -0.069 C 
ATOM      5  C   UNL     1      -1.456  -2.450  -1.442  0.00  0.00    +0.003 C 
ATOM      6  C   UNL     1      -1.508  -3.980  -1.466  0.00  0.00    +0.103 C 
ENDROOT
BRANCH   1  10
ATOM      7  C   UNL     1      -3.167  -8.572  -1.170  0.00  0.00    +0.049 A 
ATOM      8  C   UNL     1      -3.012  -7.789  -2.307  0.00  0.00    +0.026 A 
ATOM      9  C   UNL     1      -2.871  -6.421  -2.188  0.00  0.00    +0.025 A 
ATOM     10  C   UNL     1      -2.883  -5.827  -0.933  0.00  0.00    +0.030 A 
ATOM     11  C   UNL     1      -3.032  -6.611   0.204  0.00  0.00    +0.025 A 
ATOM     12  C   UNL     1      -3.179  -7.979   0.085  0.00  0.00    +0.026 A 
BRANCH   7  13
ATOM     13  N   UNL     1      -3.311  -9.960  -1.290  0.00  0.00    -0.206 N 
ATOM     14  H   UNL     1      -3.922 -10.329  -1.946  0.00  0.00    +0.175 HD
BRANCH  13  15
ATOM     15  S   UNL     1      -2.437 -10.970  -0.312  0.00  0.00    +0.111 S 
ATOM     16  O   UNL     1      -2.665 -10.540   1.023  0.00  0.00    -0.138 OA
ATOM     17  O   UNL     1      -2.716 -12.295  -0.744  0.00  0.00    -0.138 OA
BRANCH  15  19
ATOM     18  C   UNL     1      -0.070  -9.770   0.208  0.00  0.00    +0.132 C 
ATOM     19  N   UNL     1      -0.836 -10.696  -0.630  0.00  0.00    -0.170 NA
ATOM     20  C   UNL     1      -0.184 -11.380  -1.750  0.00  0.00    +0.132 C 
ENDBRANCH  15  19
ENDBRANCH  13  15
ENDBRANCH   7  13
ENDBRANCH   1  10
BRANCH   4  21
ATOM     21  N   UNL     1      -1.520  -0.490   0.036  0.00  0.00    +0.381 N 
ATOM     22  H   UNL     1      -1.962  -0.173   0.907  0.00  0.00    -0.086 HD
ATOM     23  H   UNL     1      -2.058  -0.144  -0.767  0.00  0.00    -0.086 HD
BRANCH  21  24
ATOM     24  C   UNL     1      -0.146   0.041  -0.032  0.00  0.00    -0.081 C 
BRANCH  24  25
ATOM     25  C   UNL     1      -0.197   1.570  -0.002  0.00  0.00    -0.003 C 
BRANCH  25  26
ATOM     26  C   UNL     1       1.225   2.130  -0.073  0.00  0.00    +0.083 C 
BRANCH  26  27
ATOM     27  C   UNL     1       1.169   3.633  -0.167  0.00  0.00    -0.037 A 
ATOM     28  C   UNL     1       0.566   4.367   0.837  0.00  0.00    +0.004 A 
ATOM     29  C   UNL     1       0.518   5.746   0.753  0.00  0.00    +0.000 A 
ATOM     30  C   UNL     1       1.065   6.391  -0.340  0.00  0.00    +0.000 A 
ATOM     31  C   UNL     1       1.664   5.657  -1.347  0.00  0.00    +0.000 A 
ATOM     32  C   UNL     1       1.715   4.278  -1.261  0.00  0.00    +0.004 A 
ENDBRANCH  26  27
BRANCH  26  33
ATOM     33  C   UNL     1       1.984   1.732   1.167  0.00  0.00    +0.112 A 
ATOM     34  C   UNL     1       3.110   0.998   1.198  0.00  0.00    +0.045 A 
ATOM     35  C   UNL     1       3.476   0.867   2.557  0.00  0.00    +0.041 A 
ATOM     36  C   UNL     1       2.551   1.529   3.275  0.00  0.00    +0.195 A 
ATOM     37  O   UNL     1       1.653   2.056   2.428  0.00  0.00    -0.467 OA
ENDBRANCH  26  33
ENDBRANCH  25  26
ENDBRANCH  24  25
ENDBRANCH  21  24
ENDBRANCH   4  21
TORSDOF 10
