REMARK  Name = ZINC04236624
REMARK  16 active torsions:
REMARK  status: ('A' for Active; 'I' for Inactive)
REMARK    1  A    between atoms: C_1  and  C_2
REMARK    2  A    between atoms: C_2  and  C_3
REMARK    3  A    between atoms: C_2  and  N_4
REMARK    4  A    between atoms: C_5  and  O_7
REMARK    5  A    between atoms: O_7  and  C_8
REMARK    6  A    between atoms: C_12  and  C_39
REMARK    7  A    between atoms: C_15  and  C_16
REMARK    8  A    between atoms: C_15  and  C_17
REMARK    9  A    between atoms: C_17  and  O_18
REMARK   10  A    between atoms: C_21  and  O_38
REMARK   11  A    between atoms: C_23  and  C_25
REMARK   12  A    between atoms: C_25  and  C_26
REMARK   13  A    between atoms: N_28  and  C_29
REMARK   14  A    between atoms: C_29  and  C_30
REMARK   15  A    between atoms: C_33  and  O_36
REMARK   16  A    between atoms: O_36  and  C_37
REMARK                            x       y       z     vdW  Elec       q    Type
REMARK                         _______ _______ _______ _____ _____    ______ ____
ROOT
ATOM      1  C   UNL     1       3.983  -1.529   2.662  0.00  0.00    +0.186 C 
ATOM      2  C   UNL     1       4.551  -2.754   1.943  0.00  0.00    +0.046 C 
ATOM      3  C   UNL     1       6.057  -2.575   1.742  0.00  0.00    +0.011 C 
ATOM      4  C   UNL     1       6.738  -2.422   3.103  0.00  0.00    -0.023 C 
ATOM      5  C   UNL     1       6.170  -1.196   3.823  0.00  0.00    +0.007 C 
ATOM      6  C   UNL     1       4.664  -1.375   4.024  0.00  0.00    +0.031 C 
ATOM      7  C   UNL     1       4.096  -0.150   4.743  0.00  0.00    +0.017 C 
ATOM      8  C   UNL     1       6.428   0.054   2.980  0.00  0.00    +0.007 C 
ATOM      9  C   UNL     1       7.934   0.233   2.780  0.00  0.00    +0.032 C 
ATOM     10  C   UNL     1       8.502  -0.992   2.060  0.00  0.00    +0.119 C 
ATOM     11  C   UNL     1       8.244  -2.243   2.903  0.00  0.00    +0.032 C 
ATOM     12  C   UNL     1       6.481  -3.672   3.946  0.00  0.00    +0.012 C 
ENDROOT
BRANCH  10  13
ATOM     13  O   UNL     1       9.908  -0.825   1.873  0.00  0.00    -0.391 OA
ATOM     14  H   UNL     1      10.146  -0.049   1.346  0.00  0.00    +0.210 HD
ENDBRANCH  10  13
BRANCH   1  15
ATOM     15  O   UNL     1       2.554  -1.698   2.853  0.00  0.00    -0.446 OA
BRANCH  15  17
ATOM     16  N   UNL     1       0.411  -1.369   1.989  0.00  0.00    -0.279 N 
ATOM     17  C   UNL     1       1.748  -1.243   1.875  0.00  0.00    +0.401 C 
ATOM     18  O   UNL     1       2.227  -0.718   0.889  0.00  0.00    -0.226 OA
ATOM     19  H   UNL     1       0.029  -1.788   2.776  0.00  0.00    +0.152 HD
BRANCH  16  21
ATOM     20  C   UNL     1      -0.735   0.617   1.139  0.00  0.00    +0.027 C 
ATOM     21  C   UNL     1      -0.465  -0.874   0.924  0.00  0.00    +0.070 C 
ATOM     22  C   UNL     1      -1.788  -1.641   0.955  0.00  0.00    +0.027 C 
ENDBRANCH  16  21
ENDBRANCH  15  17
ENDBRANCH   1  15
BRANCH   6  23
ATOM     23  C   UNL     1       4.407  -2.626   4.866  0.00  0.00    +0.166 C 
BRANCH  23  24
ATOM     24  O   UNL     1       3.025  -2.682   5.227  0.00  0.00    -0.394 OA
ATOM     25  H   UNL     1       2.789  -3.451   5.763  0.00  0.00    +0.209 HD
ENDBRANCH  23  24
ENDBRANCH   6  23
BRANCH  11  26
ATOM     26  C   UNL     1       8.926  -2.089   4.264  0.00  0.00    +0.102 C 
BRANCH  26  27
ATOM     27  C   UNL     1      10.420  -2.168   4.090  0.00  0.00    +0.214 C 
ATOM     28  O   UNL     1      10.889  -2.502   3.022  0.00  0.00    -0.276 OA
ATOM     29  N   UNL     1      11.236  -1.867   5.120  0.00  0.00    -0.311 N 
ATOM     30  H   UNL     1      10.861  -1.601   5.974  0.00  0.00    +0.149 HD
BRANCH  29  31
ATOM     31  C   UNL     1      12.689  -1.944   4.950  0.00  0.00    +0.139 C 
BRANCH  31  32
ATOM     32  C   UNL     1      13.366  -1.561   6.241  0.00  0.00    -0.030 A 
ATOM     33  C   UNL     1      13.701  -0.241   6.480  0.00  0.00    +0.009 A 
ATOM     34  C   UNL     1      14.317   0.113   7.665  0.00  0.00    +0.046 A 
ATOM     35  C   UNL     1      14.610  -0.860   8.611  0.00  0.00    +0.120 A 
ATOM     36  C   UNL     1      14.278  -2.184   8.366  0.00  0.00    +0.046 A 
ATOM     37  C   UNL     1      13.657  -2.532   7.182  0.00  0.00    +0.009 A 
BRANCH  35  38
ATOM     38  O   UNL     1      15.220  -0.515   9.775  0.00  0.00    -0.495 OA
ATOM     39  C   UNL     1      15.532   0.868   9.959  0.00  0.00    +0.277 C 
ENDBRANCH  35  38
ENDBRANCH  31  32
ENDBRANCH  29  31
ENDBRANCH  26  27
ENDBRANCH  11  26
TORSDOF 11
