REMARK  Name = ZINC65245858
REMARK  6 active torsions:
REMARK  status: ('A' for Active; 'I' for Inactive)
REMARK    1  A    between atoms: C_1  and  C_2
REMARK    2  A    between atoms: C_2  and  C_3
REMARK    3  A    between atoms: C_3  and  C_5
REMARK    4  A    between atoms: C_3  and  N_6
REMARK    5  A    between atoms: C_7  and  C_9
REMARK    6  A    between atoms: C_11  and  C_14
REMARK                            x       y       z     vdW  Elec       q    Type
REMARK                         _______ _______ _______ _____ _____    ______ ____
ROOT
ATOM      1  C   UNL     1       4.248   0.463  -2.305  0.00  0.00    +0.314 A 
ATOM      2  N   UNL     1       5.030   0.640  -3.339  0.00  0.00    -0.183 NA
ATOM      3  C   UNL     1       6.253   1.010  -2.932  0.00  0.00    +0.203 A 
ATOM      4  N   UNL     1       6.262   1.073  -1.623  0.00  0.00    -0.055 NA
ATOM      5  O   UNL     1       4.955   0.723  -1.192  0.00  0.00    -0.328 OA
ENDROOT
BRANCH   3   6
ATOM      6  C   UNL     1       7.408   1.301  -3.819  0.00  0.00    +0.027 A 
ATOM      7  C   UNL     1       7.286   1.208  -5.210  0.00  0.00    +0.029 A 
ATOM      8  C   UNL     1       8.381   1.486  -6.001  0.00  0.00    +0.085 A 
ATOM      9  N   UNL     1       9.535   1.836  -5.465  0.00  0.00    -0.350 N 
ATOM     10  C   UNL     1       9.696   1.937  -4.154  0.00  0.00    +0.099 A 
ATOM     11  C   UNL     1       8.640   1.680  -3.288  0.00  0.00    +0.053 A 
ATOM     12  N   UNL     1      10.933   2.309  -3.640  0.00  0.00    -0.317 N 
ATOM     13  C   UNL     1      11.259   2.454  -2.214  0.00  0.00    +0.106 C 
ATOM     14  C   UNL     1      12.732   2.906  -2.124  0.00  0.00    +0.020 C 
ATOM     15  C   UNL     1      12.987   3.537  -3.519  0.00  0.00    +0.020 C 
ATOM     16  C   UNL     1      12.136   2.618  -4.434  0.00  0.00    +0.106 C 
ATOM     17  H   UNL     1      10.287   2.025  -6.048  0.00  0.00    +0.166 HD
ENDBRANCH   3   6
BRANCH   1  19
ATOM     18  N   UNL     1       2.125  -0.091  -1.209  0.00  0.00    -0.305 N 
ATOM     19  C   UNL     1       2.824   0.051  -2.353  0.00  0.00    +0.302 C 
ATOM     20  O   UNL     1       2.288  -0.157  -3.423  0.00  0.00    -0.265 OA
ATOM     21  H   UNL     1       2.553   0.075  -0.355  0.00  0.00    +0.149 HD
BRANCH  18  22
ATOM     22  C   UNL     1       0.718  -0.497  -1.257  0.00  0.00    +0.070 C 
ATOM     23  C   UNL     1       0.630  -2.023  -1.329  0.00  0.00    +0.028 C 
BRANCH  22  25
ATOM     24  C   UNL     1      -0.019   1.526   0.010  0.00  0.00    +0.005 C 
ATOM     25  C   UNL     1       0.002  -0.004   0.002  0.00  0.00    +0.018 C 
ENDBRANCH  22  25
ENDBRANCH  18  22
ENDBRANCH   1  19
TORSDOF 4
