REMARK  Name = ZINC01158659
REMARK  8 active torsions:
REMARK  status: ('A' for Active; 'I' for Inactive)
REMARK    1  A    between atoms: C_1  and  C_2
REMARK    2  A    between atoms: C_2  and  O_3
REMARK    3  A    between atoms: O_3  and  C_4
REMARK    4  A    between atoms: C_4  and  C_6
REMARK    5  A    between atoms: C_7  and  C_26
REMARK    6  A    between atoms: C_12  and  C_14
REMARK    7  A    between atoms: C_15  and  C_16
REMARK    8  A    between atoms: C_20  and  N_22
REMARK                            x       y       z     vdW  Elec       q    Type
REMARK                         _______ _______ _______ _____ _____    ______ ____
ROOT
ATOM      1  C   UNL     1       1.447  -2.343  -2.514  0.00  0.00    +0.120 A 
ATOM      2  C   UNL     1       1.663  -3.665  -2.882  0.00  0.00    +0.062 A 
ATOM      3  N   UNL     1       2.302  -3.858  -4.008  0.00  0.00    -0.229 NA
ATOM      4  C   UNL     1       2.717  -2.845  -4.748  0.00  0.00    +0.166 A 
ATOM      5  S   UNL     1       2.212  -1.492  -3.885  0.00  0.00    -0.045 S 
ATOM      6  N   UNL     1       3.398  -2.888  -5.949  0.00  0.00    -0.261 N 
ATOM      7  C   UNL     1       3.744  -1.742  -6.569  0.00  0.00    +0.243 C 
ATOM      8  O   UNL     1       3.456  -0.670  -6.070  0.00  0.00    -0.270 OA
ATOM      9  C   UNL     1       1.187  -4.815  -2.032  0.00  0.00    +0.067 C 
ATOM     10  H   UNL     1       3.628  -3.742  -6.347  0.00  0.00    +0.157 HD
ENDROOT
BRANCH   1  11
ATOM     11  C   UNL     1       0.776  -1.800  -1.335  0.00  0.00    +0.348 C 
ATOM     12  O   UNL     1       0.312  -2.553  -0.499  0.00  0.00    -0.244 OA
BRANCH  11  13
ATOM     13  O   UNL     1       0.671  -0.465  -1.174  0.00  0.00    -0.461 OA
BRANCH  13  15
ATOM     14  C   UNL     1      -0.019   1.526   0.010  0.00  0.00    +0.048 C 
ATOM     15  C   UNL     1       0.002  -0.004   0.002  0.00  0.00    +0.229 C 
ENDBRANCH  13  15
ENDBRANCH  11  13
ENDBRANCH   1  11
BRANCH   7  16
ATOM     16  C   UNL     1       4.466  -1.787  -7.841  0.00  0.00    +0.068 C 
ATOM     17  C   UNL     1       4.812  -0.640  -8.461  0.00  0.00    +0.013 C 
BRANCH  17  18
ATOM     18  C   UNL     1       5.538  -0.685  -9.740  0.00  0.00    -0.023 A 
ATOM     19  C   UNL     1       5.866  -1.915 -10.319  0.00  0.00    +0.009 A 
ATOM     20  C   UNL     1       6.546  -1.950 -11.517  0.00  0.00    +0.023 A 
ATOM     21  C   UNL     1       6.905  -0.770 -12.148  0.00  0.00    +0.071 A 
ATOM     22  C   UNL     1       6.584   0.452 -11.580  0.00  0.00    +0.145 A 
ATOM     23  C   UNL     1       5.898   0.502 -10.386  0.00  0.00    +0.042 A 
ATOM     24 CL   UNL     1       7.762  -0.823 -13.657  0.00  0.00    -0.081 Cl
BRANCH  22  25
ATOM     25  N   UNL     1       6.972   1.708 -12.262  0.00  0.00    +0.058 N 
ATOM     26  O   UNL     1       6.692   2.775 -11.768  0.00  0.00    -0.126 OA
ATOM     27  O   UNL     1       7.569   1.666 -13.312  0.00  0.00    -0.126 OA
ENDBRANCH  22  25
ENDBRANCH  17  18
ENDBRANCH   7  16
TORSDOF 6
