REMARK  Name = ZINC17203621
REMARK  8 active torsions:
REMARK  status: ('A' for Active; 'I' for Inactive)
REMARK    1  A    between atoms: C_1  and  C_2
REMARK    2  A    between atoms: C_5  and  O_9
REMARK    3  A    between atoms: C_7  and  C_8
REMARK    4  A    between atoms: O_9  and  C_10
REMARK    5  A    between atoms: C_10  and  C_11
REMARK    6  A    between atoms: N_13  and  N_14
REMARK    7  A    between atoms: C_15  and  C_17
REMARK    8  A    between atoms: C_24  and  C_27
REMARK                            x       y       z     vdW  Elec       q    Type
REMARK                         _______ _______ _______ _____ _____    ______ ____
ROOT
ATOM      1  C   UNL     1       5.440   7.708  -1.090  0.00  0.00    +0.267 C 
ATOM      2  O   UNL     1       4.304   8.092  -1.273  0.00  0.00    -0.271 OA
ATOM      3  N   UNL     1       5.671   6.423  -0.755  0.00  0.00    -0.231 N 
ATOM      4  H   UNL     1       6.580   6.116  -0.608  0.00  0.00    +0.173 HD
ENDROOT
BRANCH   3   5
ATOM      5  N   UNL     1       4.600   5.531  -0.618  0.00  0.00    -0.230 N 
ATOM      6  C   UNL     1       4.832   4.246  -0.283  0.00  0.00    +0.267 C 
ATOM      7  O   UNL     1       5.971   3.861  -0.099  0.00  0.00    -0.268 OA
ATOM      8  H   UNL     1       3.692   5.838  -0.764  0.00  0.00    +0.173 HD
BRANCH   6   9
ATOM      9  C   UNL     1       3.711   3.313  -0.140  0.00  0.00    +0.076 A 
ATOM     10  C   UNL     1       3.730   1.971   0.194  0.00  0.00    +0.024 A 
ATOM     11  C   UNL     1       2.522   1.297   0.266  0.00  0.00    -0.036 A 
ATOM     12  C   UNL     1       1.396   2.023  -0.000  0.00  0.00    -0.006 A 
ATOM     13  S   UNL     1       1.963   3.611  -0.348  0.00  0.00    -0.088 S 
ATOM     14  C   UNL     1      -0.019   1.531   0.011  0.00  0.00    +0.043 C 
ATOM     15  C   UNL     1       0.002  -0.004   0.002  0.00  0.00    +0.009 C 
ATOM     16  C   UNL     1       0.991  -0.489   1.066  0.00  0.00    -0.009 C 
ATOM     17  C   UNL     1       2.423  -0.183   0.625  0.00  0.00    +0.039 C 
ATOM     18  C   UNL     1       0.830  -1.998   1.260  0.00  0.00    +0.008 C 
ENDBRANCH   6   9
ENDBRANCH   3   5
BRANCH   1  19
ATOM     19  C   UNL     1       6.593   8.668  -1.237  0.00  0.00    +0.326 C 
BRANCH  19  20
ATOM     20  O   UNL     1       6.095   9.959  -1.594  0.00  0.00    -0.483 OA
BRANCH  20  25
ATOM     21  C   UNL     1       9.893  14.056  -2.310  0.00  0.00    +0.044 C 
ATOM     22  C   UNL     1       8.877  12.959  -2.118  0.00  0.00    -0.047 A 
ATOM     23  C   UNL     1       9.291  11.686  -1.772  0.00  0.00    +0.007 A 
ATOM     24  C   UNL     1       8.362  10.681  -1.590  0.00  0.00    +0.046 A 
ATOM     25  C   UNL     1       7.011  10.947  -1.767  0.00  0.00    +0.121 A 
ATOM     26  C   UNL     1       6.598  12.225  -2.114  0.00  0.00    +0.049 A 
ATOM     27  C   UNL     1       7.532  13.228  -2.289  0.00  0.00    -0.044 A 
ATOM     28  C   UNL     1       7.083  14.616  -2.667  0.00  0.00    +0.044 C 
ENDBRANCH  20  25
ENDBRANCH  19  20
ENDBRANCH   1  19
TORSDOF 5
