REMARK  Name = ZINC15483816
REMARK  13 active torsions:
REMARK  status: ('A' for Active; 'I' for Inactive)
REMARK    1  A    between atoms: C_1  and  C_2
REMARK    2  A    between atoms: C_2  and  C_3
REMARK    3  A    between atoms: C_3  and  C_4
REMARK    4  A    between atoms: C_4  and  N_5
REMARK    5  A    between atoms: C_6  and  N_35
REMARK    6  A    between atoms: C_7  and  N_14
REMARK    7  A    between atoms: N_14  and  C_15
REMARK    8  A    between atoms: C_15  and  C_16
REMARK    9  A    between atoms: C_17  and  C_19
REMARK   10  A    between atoms: C_19  and  N_20
REMARK   11  A    between atoms: N_20  and  C_21
REMARK   12  A    between atoms: N_20  and  C_29
REMARK   13  A    between atoms: C_21  and  C_22
REMARK                            x       y       z     vdW  Elec       q    Type
REMARK                         _______ _______ _______ _____ _____    ______ ____
ROOT
ATOM      1  N   UNL     1       0.403  -2.926  -5.568  0.00  0.00    -0.266 N 
ATOM      2  C   UNL     1      -0.773  -2.466  -6.045  0.00  0.00    +0.203 C 
ATOM      3  O   UNL     1      -1.238  -1.431  -5.616  0.00  0.00    -0.277 OA
ENDROOT
BRANCH   1   6
ATOM      4  N   UNL     1       3.067  -0.877  -4.084  0.00  0.00    -0.280 N 
ATOM      5  C   UNL     1       2.370  -1.628  -5.002  0.00  0.00    +0.127 A 
ATOM      6  C   UNL     1       1.143  -2.152  -4.649  0.00  0.00    +0.140 A 
ATOM      7  C   UNL     1       0.642  -1.901  -3.358  0.00  0.00    +0.277 A 
ATOM      8  O   UNL     1      -0.440  -2.352  -3.021  0.00  0.00    -0.266 OA
ATOM      9  N   UNL     1       1.365  -1.158  -2.498  0.00  0.00    -0.273 N 
ATOM     10  H   UNL     1       1.021  -0.985  -1.607  0.00  0.00    +0.173 HD
ATOM     11  C   UNL     1       2.562  -0.661  -2.856  0.00  0.00    +0.331 A 
ATOM     12  O   UNL     1       3.196   0.002  -2.058  0.00  0.00    -0.246 OA
BRANCH   5  13
ATOM     13  N   UNL     1       2.889  -1.854  -6.254  0.00  0.00    -0.343 N 
ATOM     14  H   UNL     1       3.718  -1.427  -6.519  0.00  0.00    +0.144 HD
ATOM     15  H   UNL     1       2.425  -2.440  -6.873  0.00  0.00    +0.144 HD
ENDBRANCH   5  13
BRANCH   4  16
ATOM     16  C   UNL     1       4.371  -0.315  -4.444  0.00  0.00    +0.128 C 
BRANCH  16  17
ATOM     17  C   UNL     1       5.473  -1.316  -4.092  0.00  0.00    +0.021 C 
BRANCH  17  19
ATOM     18  C   UNL     1       7.937  -1.730  -4.115  0.00  0.00    +0.004 C 
ATOM     19  C   UNL     1       6.835  -0.729  -4.468  0.00  0.00    -0.002 C 
ENDBRANCH  17  19
ENDBRANCH  16  17
ENDBRANCH   4  16
ENDBRANCH   1   6
BRANCH   1  20
ATOM     20  C   UNL     1       0.910  -4.229  -6.005  0.00  0.00    +0.110 C 
ATOM     21  C   UNL     1       0.304  -5.331  -5.133  0.00  0.00    +0.025 C 
ENDBRANCH   1  20
BRANCH   2  22
ATOM     22  C   UNL     1      -1.508  -3.239  -7.110  0.00  0.00    +0.020 C 
BRANCH  22  23
ATOM     23  N   UNL     1      -2.837  -2.646  -7.315  0.00  0.00    +0.390 N 
ATOM     24  H   UNL     1      -2.771  -1.641  -7.251  0.00  0.00    -0.080 HD
BRANCH  23  25
ATOM     25  C   UNL     1      -3.759  -3.143  -6.285  0.00  0.00    -0.067 C 
ATOM     26  C   UNL     1      -3.243  -2.743  -4.902  0.00  0.00    -0.015 C 
ATOM     27  C   UNL     1      -4.203  -3.261  -3.829  0.00  0.00    -0.002 C 
ATOM     28  C   UNL     1      -4.294  -4.786  -3.919  0.00  0.00    -0.000 C 
ATOM     29  C   UNL     1      -4.811  -5.185  -5.303  0.00  0.00    -0.002 C 
ATOM     30  C   UNL     1      -3.850  -4.668  -6.375  0.00  0.00    -0.015 C 
ENDBRANCH  23  25
BRANCH  23  31
ATOM     31  C   UNL     1      -3.339  -3.019  -8.644  0.00  0.00    -0.042 C 
BRANCH  31  32
ATOM     32  C   UNL     1      -4.635  -2.297  -8.912  0.00  0.00    -0.064 A 
ATOM     33  C   UNL     1      -5.833  -2.853  -8.504  0.00  0.00    +0.004 A 
ATOM     34  C   UNL     1      -7.021  -2.192  -8.749  0.00  0.00    +0.038 A 
ATOM     35  C   UNL     1      -7.011  -0.972  -9.404  0.00  0.00    +0.123 A 
ATOM     36  C   UNL     1      -5.811  -0.416  -9.813  0.00  0.00    +0.038 A 
ATOM     37  C   UNL     1      -4.623  -1.077  -9.562  0.00  0.00    +0.004 A 
ATOM     38  F   UNL     1      -8.172  -0.324  -9.645  0.00  0.00    -0.205 F 
ENDBRANCH  31  32
ENDBRANCH  23  31
ENDBRANCH  22  23
ENDBRANCH   2  22
TORSDOF 11
