REMARK  Name = ZINC59973687
REMARK  5 active torsions:
REMARK  status: ('A' for Active; 'I' for Inactive)
REMARK    1  A    between atoms: C_1  and  N_2
REMARK    2  A    between atoms: N_2  and  C_3
REMARK    3  A    between atoms: C_3  and  C_4
REMARK    4  A    between atoms: C_10  and  C_12
REMARK    5  A    between atoms: C_18  and  N_22
REMARK                            x       y       z     vdW  Elec       q    Type
REMARK                         _______ _______ _______ _____ _____    ______ ____
ROOT
ATOM      1  C   UNL     1      -0.124   0.065  -2.435  0.00  0.00    +0.103 A 
ATOM      2  C   UNL     1      -0.326  -0.484  -3.662  0.00  0.00    +0.041 A 
ATOM      3  C   UNL     1      -0.274   0.560  -4.616  0.00  0.00    +0.002 A 
ATOM      4  C   UNL     1      -0.409   0.595  -6.012  0.00  0.00    +0.010 A 
ATOM      5  C   UNL     1      -0.306   1.782  -6.676  0.00  0.00    +0.002 A 
ATOM      6  C   UNL     1      -0.067   2.963  -5.985  0.00  0.00    +0.025 A 
ATOM      7  C   UNL     1       0.071   2.957  -4.609  0.00  0.00    +0.049 A 
ATOM      8  C   UNL     1      -0.032   1.751  -3.909  0.00  0.00    +0.068 A 
ATOM      9  N   UNL     1       0.051   1.427  -2.574  0.00  0.00    -0.349 N 
ATOM     10  H   UNL     1       0.209   2.053  -1.850  0.00  0.00    +0.166 HD
ENDROOT
BRANCH   1  13
ATOM     11  C   UNL     1      -0.178   1.459   0.014  0.00  0.00    +0.133 C 
ATOM     12  N   UNL     1      -0.061  -0.002   0.004  0.00  0.00    -0.292 N 
ATOM     13  C   UNL     1      -0.102  -0.673  -1.163  0.00  0.00    +0.263 C 
ATOM     14  O   UNL     1      -0.119  -1.889  -1.165  0.00  0.00    -0.268 OA
BRANCH  12  15
ATOM     15  C   UNL     1       0.099  -0.732   1.264  0.00  0.00    +0.182 C 
BRANCH  15  16
ATOM     16  C   UNL     1      -1.258  -1.096   1.810  0.00  0.00    +0.124 A 
ATOM     17  C   UNL     1      -1.932  -2.231   1.549  0.00  0.00    +0.047 A 
ATOM     18  C   UNL     1      -3.150  -2.157   2.263  0.00  0.00    +0.057 A 
ATOM     19  C   UNL     1      -3.147  -0.981   2.918  0.00  0.00    +0.170 A 
ATOM     20  O   UNL     1      -1.996  -0.346   2.645  0.00  0.00    -0.452 OA
ATOM     21 BR   UNL     1      -4.527  -0.336   4.040  0.00  0.00    -0.008 Br
ENDBRANCH  15  16
ENDBRANCH  12  15
ENDBRANCH   1  13
BRANCH   7  22
ATOM     22  N   UNL     1       0.312   4.151  -3.922  0.00  0.00    -0.356 N 
ATOM     23  H   UNL     1       0.383   4.986  -4.410  0.00  0.00    +0.142 HD
ATOM     24  H   UNL     1       0.409   4.143  -2.957  0.00  0.00    +0.142 HD
ENDBRANCH   7  22
TORSDOF 4
