REMARK  Name = ZINC35783457
REMARK  6 active torsions:
REMARK  status: ('A' for Active; 'I' for Inactive)
REMARK    1  A    between atoms: C_1  and  N_2
REMARK    2  A    between atoms: N_2  and  C_3
REMARK    3  A    between atoms: N_2  and  C_26
REMARK    4  A    between atoms: C_3  and  C_4
REMARK    5  A    between atoms: C_7  and  C_19
REMARK    6  A    between atoms: C_10  and  C_12
REMARK                            x       y       z     vdW  Elec       q    Type
REMARK                         _______ _______ _______ _____ _____    ______ ____
ROOT
ATOM      1  C   UNL     1      -0.059  -0.109   2.429  0.00  0.00    +0.219 C 
ATOM      2  O   UNL     1      -1.099   0.507   2.329  0.00  0.00    -0.276 OA
ATOM      3  N   UNL     1       0.406  -0.453   3.646  0.00  0.00    -0.187 N 
ATOM      4  C   UNL     1      -0.248  -0.150   4.929  0.00  0.00    +0.137 C 
ATOM      5  C   UNL     1       0.703  -0.767   5.974  0.00  0.00    +0.087 C 
ATOM      6  C   UNL     1       1.817  -1.364   5.145  0.00  0.00    +0.069 C 
ATOM      7  N   UNL     1       1.581  -1.159   3.895  0.00  0.00    -0.181 NA
ENDROOT
BRANCH   6   8
ATOM      8  C   UNL     1       2.990  -2.078   5.683  0.00  0.00    -0.002 A 
ATOM      9  C   UNL     1       3.133  -2.251   7.062  0.00  0.00    +0.012 A 
ATOM     10  C   UNL     1       4.232  -2.920   7.560  0.00  0.00    +0.039 A 
ATOM     11  C   UNL     1       5.192  -3.419   6.695  0.00  0.00    +0.123 A 
ATOM     12  C   UNL     1       5.056  -3.251   5.326  0.00  0.00    +0.039 A 
ATOM     13  C   UNL     1       3.958  -2.589   4.816  0.00  0.00    +0.012 A 
ATOM     14  F   UNL     1       6.267  -4.074   7.188  0.00  0.00    -0.205 F 
ENDBRANCH   6   8
BRANCH   4  15
ATOM     15  C   UNL     1      -0.365   1.339   5.127  0.00  0.00    -0.025 A 
ATOM     16  C   UNL     1       0.662   2.172   4.723  0.00  0.00    +0.007 A 
ATOM     17  C   UNL     1       0.555   3.538   4.904  0.00  0.00    +0.020 A 
ATOM     18  C   UNL     1      -0.579   4.072   5.489  0.00  0.00    +0.041 A 
ATOM     19  C   UNL     1      -1.606   3.238   5.892  0.00  0.00    +0.020 A 
ATOM     20  C   UNL     1      -1.501   1.872   5.706  0.00  0.00    +0.007 A 
ATOM     21 CL   UNL     1      -0.713   5.788   5.717  0.00  0.00    -0.084 Cl
ENDBRANCH   4  15
BRANCH   1  22
ATOM     22  C   UNL     1       0.713  -0.491   1.192  0.00  0.00    +0.021 C 
BRANCH  22  24
ATOM     23  C   UNL     1      -0.018   1.465   0.010  0.00  0.00    -0.095 C 
ATOM     24  N   UNL     1       0.002  -0.004   0.002  0.00  0.00    +0.385 N 
ATOM     25  H   UNL     1      -0.945  -0.353   0.009  0.00  0.00    -0.081 HD
BRANCH  24  26
ATOM     26  C   UNL     1       0.690  -0.478  -1.207  0.00  0.00    -0.068 C 
ATOM     27  C   UNL     1      -0.050   0.029  -2.446  0.00  0.00    -0.015 C 
ATOM     28  C   UNL     1       0.666  -0.464  -3.705  0.00  0.00    -0.002 C 
ATOM     29  C   UNL     1       0.687  -1.994  -3.713  0.00  0.00    -0.000 C 
ATOM     30  C   UNL     1       1.427  -2.501  -2.474  0.00  0.00    -0.002 C 
ATOM     31  C   UNL     1       0.710  -2.008  -1.215  0.00  0.00    -0.015 C 
ENDBRANCH  24  26
ENDBRANCH  22  24
ENDBRANCH   1  22
TORSDOF 5
