REMARK  Name = ZINC38943944
REMARK  6 active torsions:
REMARK  status: ('A' for Active; 'I' for Inactive)
REMARK    1  A    between atoms: C_1  and  C_2
REMARK    2  A    between atoms: C_2  and  C_4
REMARK    3  A    between atoms: C_8  and  S_10
REMARK    4  A    between atoms: S_10  and  N_13
REMARK    5  A    between atoms: N_13  and  C_14
REMARK    6  A    between atoms: C_23  and  C_25
REMARK                            x       y       z     vdW  Elec       q    Type
REMARK                         _______ _______ _______ _____ _____    ______ ____
ROOT
ATOM      1  C   UNL     1      -2.417  -6.466  -1.880  0.00  0.00    +0.076 A 
ATOM      2  C   UNL     1      -2.407  -7.410  -0.860  0.00  0.00    +0.027 A 
ATOM      3  C   UNL     1      -2.397  -8.755  -1.173  0.00  0.00    +0.007 A 
ATOM      4  C   UNL     1      -2.397  -9.164  -2.494  0.00  0.00    -0.024 A 
ATOM      5  C   UNL     1      -2.406  -8.232  -3.520  0.00  0.00    +0.041 A 
ATOM      6  C   UNL     1      -2.422  -6.873  -3.203  0.00  0.00    +0.050 A 
ATOM      7  N   UNL     1      -2.404  -8.848  -4.775  0.00  0.00    -0.271 N 
ATOM      8  C   UNL     1      -2.392 -10.305  -4.619  0.00  0.00    +0.118 C 
ATOM      9  C   UNL     1      -2.387 -10.549  -3.102  0.00  0.00    +0.056 C 
ATOM     10  C   UNL     1      -2.413  -8.197  -5.955  0.00  0.00    +0.223 C 
ATOM     11  O   UNL     1      -2.423  -6.985  -5.979  0.00  0.00    -0.275 OA
ENDROOT
BRANCH  10  12
ATOM     12  C   UNL     1      -2.409  -8.976  -7.245  0.00  0.00    +0.076 C 
ATOM     13  C   UNL     1      -1.148  -8.908  -8.109  0.00  0.00    +0.013 C 
ATOM     14  C   UNL     1      -2.419  -8.180  -8.552  0.00  0.00    +0.013 C 
ENDBRANCH  10  12
BRANCH   1  15
ATOM     15  N   UNL     1      -2.427  -5.104  -1.569  0.00  0.00    -0.098 NA
BRANCH  15  16
ATOM     16  S   UNL     1      -2.421  -4.616   0.014  0.00  0.00    +0.092 S 
ATOM     17  O   UNL     1      -1.168  -5.011   0.555  0.00  0.00    -0.148 OA
ATOM     18  O   UNL     1      -3.658  -5.034   0.573  0.00  0.00    -0.148 OA
BRANCH  16  23
ATOM     19  C   UNL     1      -1.262  -0.757   0.010  0.00  0.00    +0.019 A 
ATOM     20  C   UNL     1      -2.485  -0.078   0.019  0.00  0.00    +0.011 A 
ATOM     21  C   UNL     1      -3.665  -0.791   0.026  0.00  0.00    +0.003 A 
ATOM     22  C   UNL     1      -3.642  -2.175   0.024  0.00  0.00    +0.029 A 
ATOM     23  C   UNL     1      -2.437  -2.854   0.015  0.00  0.00    +0.111 A 
ATOM     24  C   UNL     1      -1.248  -2.155   0.002  0.00  0.00    +0.040 A 
BRANCH  19  26
ATOM     25  C   UNL     1      -0.018   1.503   0.010  0.00  0.00    +0.091 C 
ATOM     26  C   UNL     1       0.002  -0.004   0.002  0.00  0.00    +0.160 C 
ATOM     27  O   UNL     1       1.060  -0.596  -0.011  0.00  0.00    -0.292 OA
ENDBRANCH  19  26
ENDBRANCH  16  23
ENDBRANCH  15  16
ENDBRANCH   1  15
TORSDOF 5
