REMARK  Name = ZINC63448323
REMARK  9 active torsions:
REMARK  status: ('A' for Active; 'I' for Inactive)
REMARK    1  A    between atoms: C_1  and  C_2
REMARK    2  A    between atoms: C_4  and  N_9
REMARK    3  A    between atoms: C_6  and  C_8
REMARK    4  A    between atoms: N_9  and  S_10
REMARK    5  A    between atoms: S_10  and  C_13
REMARK    6  A    between atoms: C_16  and  N_19
REMARK    7  A    between atoms: C_20  and  C_22
REMARK    8  A    between atoms: C_22  and  S_23
REMARK    9  A    between atoms: S_23  and  C_24
REMARK                            x       y       z     vdW  Elec       q    Type
REMARK                         _______ _______ _______ _____ _____    ______ ____
ROOT
ATOM      1  C   UNL     1       0.046  -5.089  -3.912  0.00  0.00    +0.111 A 
ATOM      2  C   UNL     1      -1.137  -5.494  -4.503  0.00  0.00    +0.031 A 
ATOM      3  C   UNL     1      -1.138  -5.950  -5.806  0.00  0.00    +0.025 A 
ATOM      4  C   UNL     1       0.050  -6.001  -6.524  0.00  0.00    +0.034 A 
ATOM      5  C   UNL     1       1.236  -5.593  -5.927  0.00  0.00    +0.025 A 
ATOM      6  C   UNL     1       1.230  -5.134  -4.625  0.00  0.00    +0.031 A 
ENDROOT
BRANCH   4   7
ATOM      7  N   UNL     1       0.052  -6.463  -7.844  0.00  0.00    -0.285 N 
ATOM      8  C   UNL     1      -1.012  -6.234  -8.640  0.00  0.00    +0.227 C 
ATOM      9  O   UNL     1      -1.928  -5.546  -8.244  0.00  0.00    -0.275 OA
ATOM     10  H   UNL     1       0.818  -6.949  -8.187  0.00  0.00    +0.155 HD
BRANCH   8  11
ATOM     11  C   UNL     1      -1.061  -6.832 -10.023  0.00  0.00    +0.169 C 
BRANCH  11  12
ATOM     12  S   UNL     1      -2.606  -6.344 -10.838  0.00  0.00    -0.106 S 
BRANCH  12  13
ATOM     13  C   UNL     1      -2.511  -7.135 -12.467  0.00  0.00    +0.237 C 
ATOM     14  N   UNL     1      -1.322  -6.664 -13.188  0.00  0.00    -0.354 N 
ATOM     15  C   UNL     1      -0.574  -7.700 -13.423  0.00  0.00    +0.081 A 
ATOM     16  C   UNL     1       0.725  -7.865 -14.099  0.00  0.00    +0.050 A 
ATOM     17  C   UNL     1       1.241  -9.117 -14.175  0.00  0.00    +0.061 A 
ATOM     18  C   UNL     1       0.553 -10.216 -13.624  0.00  0.00    +0.133 A 
ATOM     19  N   UNL     1      -0.595 -10.114 -13.020  0.00  0.00    -0.235 NA
ATOM     20  C   UNL     1      -1.224  -8.920 -12.873  0.00  0.00    +0.152 A 
ATOM     21  N   UNL     1      -2.357  -8.586 -12.315  0.00  0.00    -0.340 N 
ATOM     22 CL   UNL     1       2.768  -9.368 -14.960  0.00  0.00    -0.082 Cl
ATOM     23  H   UNL     1      -2.981  -9.187 -11.880  0.00  0.00    +0.164 HD
ATOM     24  H   UNL     1      -1.129  -5.748 -13.442  0.00  0.00    +0.163 HD
ENDBRANCH  12  13
ENDBRANCH  11  12
ENDBRANCH   8  11
ENDBRANCH   4   7
BRANCH   1  25
ATOM     25  S   UNL     1       0.043  -4.508  -2.248  0.00  0.00    +0.093 S 
ATOM     26  O   UNL     1       1.361  -4.697  -1.750  0.00  0.00    -0.148 OA
ATOM     27  O   UNL     1      -1.097  -5.077  -1.621  0.00  0.00    -0.148 OA
BRANCH  25  28
ATOM     28  N   UNL     1      -0.212  -2.872  -2.302  0.00  0.00    -0.078 NA
BRANCH  28  32
ATOM     29  C   UNL     1      -0.751   1.413   0.060  0.00  0.00    +0.066 C 
ATOM     30  C   UNL     1      -0.522  -0.077   0.041  0.00  0.00    +0.044 A 
ATOM     31  C   UNL     1      -0.479  -0.761  -1.158  0.00  0.00    +0.070 A 
ATOM     32  C   UNL     1      -0.264  -2.140  -1.126  0.00  0.00    +0.166 A 
ATOM     33  N   UNL     1      -0.110  -2.741   0.051  0.00  0.00    -0.214 NA
ATOM     34  C   UNL     1      -0.158  -2.048   1.170  0.00  0.00    +0.128 A 
ATOM     35  N   UNL     1      -0.354  -0.745   1.173  0.00  0.00    -0.237 NA
ATOM     36  C   UNL     1       0.021  -2.764   2.483  0.00  0.00    +0.088 C 
ENDBRANCH  28  32
ENDBRANCH  25  28
ENDBRANCH   1  25
TORSDOF 7
