REMARK  Name = ZINC67024076
REMARK  5 active torsions:
REMARK  status: ('A' for Active; 'I' for Inactive)
REMARK    1  A    between atoms: C_3  and  C_6
REMARK    2  A    between atoms: C_9  and  C_11
REMARK    3  A    between atoms: N_13  and  C_14
REMARK    4  A    between atoms: C_14  and  C_15
REMARK    5  A    between atoms: C_15  and  N_21
REMARK                            x       y       z     vdW  Elec       q    Type
REMARK                         _______ _______ _______ _____ _____    ______ ____
ROOT
ATOM      1  C   UNL     1       3.094  -1.891   4.366  0.00  0.00    +0.092 C 
ENDROOT
BRANCH   1   2
ATOM      2  C   UNL     1       4.131  -2.472   5.329  0.00  0.00    -0.050 C 
ATOM      3  C   UNL     1       5.052  -3.430   4.570  0.00  0.00    -0.010 C 
ATOM      4  C   UNL     1       4.223  -4.565   3.969  0.00  0.00    -0.001 C 
ATOM      5  C   UNL     1       3.509  -5.325   5.089  0.00  0.00    -0.000 C 
ATOM      6  C   UNL     1       2.588  -4.367   5.848  0.00  0.00    -0.001 C 
ATOM      7  C   UNL     1       3.417  -3.231   6.449  0.00  0.00    -0.010 C 
BRANCH   2   8
ATOM      8  N   UNL     1       4.928  -1.381   5.907  0.00  0.00    +0.384 N 
ATOM      9  C   UNL     1       5.578  -0.627   4.829  0.00  0.00    -0.078 C 
ATOM     10  C   UNL     1       6.343   0.558   5.420  0.00  0.00    -0.019 C 
ATOM     11  C   UNL     1       7.405   0.039   6.393  0.00  0.00    -0.004 C 
ATOM     12  C   UNL     1       6.724  -0.808   7.472  0.00  0.00    -0.019 C 
ATOM     13  C   UNL     1       5.945  -1.943   6.805  0.00  0.00    -0.078 C 
ATOM     14  H   UNL     1       4.324  -0.765   6.429  0.00  0.00    -0.081 HD
ENDBRANCH   2   8
ENDBRANCH   1   2
BRANCH   1  17
ATOM     15  C   UNL     1       1.384  -0.156   4.381  0.00  0.00    +0.217 C 
ATOM     16  O   UNL     1       1.228  -0.341   3.192  0.00  0.00    -0.275 OA
ATOM     17  N   UNL     1       2.294  -0.880   5.061  0.00  0.00    -0.316 N 
ATOM     18  H   UNL     1       2.419  -0.732   6.012  0.00  0.00    +0.149 HD
BRANCH  15  21
ATOM     19  C   UNL     1      -0.456   1.673   4.268  0.00  0.00    +0.068 C 
ATOM     20  C   UNL     1       0.826   2.353   4.756  0.00  0.00    +0.025 C 
ATOM     21  C   UNL     1       0.561   0.884   5.096  0.00  0.00    +0.086 C 
BRANCH  19  24
ATOM     22  C   UNL     1      -1.306   0.741   0.806  0.00  0.00    +0.041 A 
ATOM     23  C   UNL     1      -1.658   0.912   2.164  0.00  0.00    +0.045 A 
ATOM     24  C   UNL     1      -0.556   1.351   2.800  0.00  0.00    +0.109 A 
ATOM     25  O   UNL     1       0.438   1.455   1.903  0.00  0.00    -0.468 OA
ATOM     26  C   UNL     1      -0.011   1.086   0.692  0.00  0.00    +0.195 A 
ENDBRANCH  19  24
ENDBRANCH  15  21
ENDBRANCH   1  17
TORSDOF 5
