REMARK  Name = ZINC04246282
REMARK  7 active torsions:
REMARK  status: ('A' for Active; 'I' for Inactive)
REMARK    1  A    between atoms: C_1  and  C_2
REMARK    2  A    between atoms: C_2  and  C_4
REMARK    3  A    between atoms: C_2  and  O_11
REMARK    4  A    between atoms: N_9  and  C_10
REMARK    5  A    between atoms: O_11  and  C_12
REMARK    6  A    between atoms: C_12  and  C_14
REMARK    7  A    between atoms: C_19  and  N_20
REMARK                            x       y       z     vdW  Elec       q    Type
REMARK                         _______ _______ _______ _____ _____    ______ ____
ROOT
ATOM      1  O   UNL     1       0.120   1.543  -0.981  0.00  0.00    -0.449 OA
ENDROOT
BRANCH   1   3
ATOM      2  C   UNL     1      -0.231  -0.641   0.037  0.00  0.00    +0.062 C 
ATOM      3  C   UNL     1       0.172   0.114  -1.231  0.00  0.00    +0.259 C 
BRANCH   3   4
ATOM      4  C   UNL     1      -0.779  -0.236  -2.347  0.00  0.00    +0.261 C 
ATOM      5  O   UNL     1      -1.435   0.634  -2.879  0.00  0.00    -0.271 OA
ATOM      6  N   UNL     1      -0.899  -1.515  -2.755  0.00  0.00    -0.237 N 
ATOM      7  C   UNL     1      -1.749  -1.827  -3.753  0.00  0.00    +0.306 C 
ATOM      8  O   UNL     1      -2.407  -0.955  -4.286  0.00  0.00    -0.252 OA
ATOM      9  N   UNL     1      -1.869  -3.106  -4.160  0.00  0.00    -0.302 N 
ATOM     10  C   UNL     1      -2.793  -3.446  -5.245  0.00  0.00    +0.129 C 
ATOM     11  H   UNL     1      -0.374  -2.211  -2.329  0.00  0.00    +0.159 HD
ATOM     12  H   UNL     1      -1.344  -3.802  -3.734  0.00  0.00    +0.150 HD
ENDBRANCH   3   4
ENDBRANCH   1   3
BRANCH   1  13
ATOM     13  C   UNL     1       1.245   2.125  -0.522  0.00  0.00    +0.342 C 
ATOM     14  O   UNL     1       2.243   1.457  -0.337  0.00  0.00    -0.245 OA
BRANCH  13  15
ATOM     15  C   UNL     1       1.266   3.572  -0.246  0.00  0.00    +0.081 A 
ATOM     16  C   UNL     1       0.091   4.323  -0.338  0.00  0.00    +0.032 A 
ATOM     17  C   UNL     1       0.116   5.675  -0.074  0.00  0.00    +0.019 A 
ATOM     18  C   UNL     1       1.305   6.298   0.275  0.00  0.00    +0.017 A 
ATOM     19  C   UNL     1       2.475   5.571   0.365  0.00  0.00    +0.024 A 
ATOM     20  C   UNL     1       2.468   4.206   0.107  0.00  0.00    +0.039 A 
ATOM     21 BR   UNL     1      -1.476   6.687  -0.193  0.00  0.00    -0.050 Br
BRANCH  20  22
ATOM     22  N   UNL     1       3.644   3.473   0.196  0.00  0.00    -0.357 N 
ATOM     23  H   UNL     1       3.730   2.634  -0.282  0.00  0.00    +0.142 HD
ATOM     24  H   UNL     1       4.380   3.800   0.738  0.00  0.00    +0.142 HD
ENDBRANCH  20  22
ENDBRANCH  13  15
ENDBRANCH   1  13
TORSDOF 5
