REMARK  Name = ZINC36642533
REMARK  14 active torsions:
REMARK  status: ('A' for Active; 'I' for Inactive)
REMARK    1  A    between atoms: C_1  and  C_2
REMARK    2  A    between atoms: C_2  and  N_3
REMARK    3  A    between atoms: N_3  and  C_4
REMARK    4  A    between atoms: N_3  and  C_6
REMARK    5  A    between atoms: C_4  and  C_5
REMARK    6  A    between atoms: C_6  and  C_7
REMARK    7  A    between atoms: C_7  and  N_8
REMARK    8  A    between atoms: C_12  and  O_18
REMARK    9  A    between atoms: O_18  and  C_19
REMARK   10  A    between atoms: C_19  and  C_20
REMARK   11  A    between atoms: C_21  and  C_23
REMARK   12  A    between atoms: C_23  and  N_24
REMARK   13  A    between atoms: N_31  and  C_36
REMARK   14  A    between atoms: N_34  and  C_35
REMARK                            x       y       z     vdW  Elec       q    Type
REMARK                         _______ _______ _______ _____ _____    ______ ____
ROOT
ATOM      1  N   UNL     1      -2.915  -4.087   0.184  0.00  0.00    -0.251 N 
ATOM      2  C   UNL     1      -3.083  -4.630   1.448  0.00  0.00    +0.168 A 
ATOM      3  N   UNL     1      -3.102  -5.893   1.806  0.00  0.00    -0.221 NA
ATOM      4  C   UNL     1      -3.277  -6.281   3.088  0.00  0.00    +0.122 A 
ATOM      5  C   UNL     1      -3.318  -7.601   3.605  0.00  0.00    +0.147 A 
ATOM      6  C   UNL     1      -3.506  -7.822   4.949  0.00  0.00    +0.048 A 
ATOM      7  C   UNL     1      -3.660  -6.771   5.840  0.00  0.00    +0.005 A 
ATOM      8  C   UNL     1      -3.624  -5.471   5.369  0.00  0.00    +0.017 A 
ATOM      9  C   UNL     1      -3.437  -5.239   4.027  0.00  0.00    +0.044 A 
ATOM     10  S   UNL     1      -3.319  -3.789   3.007  0.00  0.00    -0.052 S 
ATOM     11  C   UNL     1      -2.748  -4.897  -0.881  0.00  0.00    +0.241 C 
ATOM     12  O   UNL     1      -2.745  -6.100  -0.733  0.00  0.00    -0.273 OA
ENDROOT
BRANCH   1  13
ATOM     13  C   UNL     1      -2.919  -2.633   0.005  0.00  0.00    +0.097 C 
BRANCH  13  14
ATOM     14  C   UNL     1      -1.492  -2.098   0.144  0.00  0.00    -0.059 C 
BRANCH  14  15
ATOM     15  N   UNL     1      -1.476  -0.660  -0.156  0.00  0.00    +0.380 N 
ATOM     16  H   UNL     1      -1.879  -0.503  -1.068  0.00  0.00    -0.082 HD
BRANCH  15  18
ATOM     17  C   UNL     1      -2.348   1.539   0.475  0.00  0.00    -0.017 C 
ATOM     18  C   UNL     1      -2.260   0.060   0.856  0.00  0.00    -0.082 C 
ENDBRANCH  15  18
BRANCH  15  19
ATOM     19  C   UNL     1      -0.091  -0.172  -0.142  0.00  0.00    -0.082 C 
ATOM     20  C   UNL     1       0.685  -0.807  -1.298  0.00  0.00    -0.017 C 
ENDBRANCH  15  19
ENDBRANCH  14  15
ENDBRANCH  13  14
ENDBRANCH   1  13
BRANCH   5  21
ATOM     21  O   UNL     1      -3.171  -8.659   2.763  0.00  0.00    -0.490 OA
BRANCH  21  22
ATOM     22  C   UNL     1      -3.223  -9.963   3.344  0.00  0.00    +0.226 C 
ATOM     23  C   UNL     1      -3.039 -11.017   2.250  0.00  0.00    +0.048 C 
ENDBRANCH  21  22
ENDBRANCH   5  21
BRANCH  11  24
ATOM     24  C   UNL     1      -2.566  -4.306  -2.255  0.00  0.00    +0.219 C 
BRANCH  24  25
ATOM     25  N   UNL     1      -2.406  -5.385  -3.233  0.00  0.00    -0.316 N 
ATOM     26  C   UNL     1      -1.242  -5.894  -3.682  0.00  0.00    +0.202 A 
ATOM     27  N   UNL     1      -1.482  -6.846  -4.548  0.00  0.00    -0.218 NA
ATOM     28  C   UNL     1      -2.800  -6.998  -4.701  0.00  0.00    +0.168 A 
ATOM     29  C   UNL     1      -3.420  -6.077  -3.865  0.00  0.00    +0.152 A 
ATOM     30  C   UNL     1      -4.830  -6.026  -3.825  0.00  0.00    +0.282 A 
ATOM     31  O   UNL     1      -5.397  -5.226  -3.103  0.00  0.00    -0.265 OA
ATOM     32  N   UNL     1      -5.542  -6.873  -4.596  0.00  0.00    -0.262 N 
ATOM     33  C   UNL     1      -4.929  -7.761  -5.398  0.00  0.00    +0.333 A 
ATOM     34  O   UNL     1      -5.604  -8.509  -6.079  0.00  0.00    -0.246 OA
ATOM     35  N   UNL     1      -3.587  -7.838  -5.472  0.00  0.00    -0.280 N 
ATOM     36  C   UNL     1      -2.958  -8.821  -6.357  0.00  0.00    +0.155 C 
ATOM     37  C   UNL     1      -7.006  -6.825  -4.559  0.00  0.00    +0.157 C 
ENDBRANCH  24  25
ENDBRANCH  11  24
TORSDOF 9
