REMARK  Name = ZINC28910904
REMARK  3 active torsions:
REMARK  status: ('A' for Active; 'I' for Inactive)
REMARK    1  A    between atoms: C_10  and  C_13
REMARK    2  A    between atoms: C_16  and  C_18
REMARK    3  A    between atoms: C_21  and  N_25
REMARK                            x       y       z     vdW  Elec       q    Type
REMARK                         _______ _______ _______ _____ _____    ______ ____
ROOT
ATOM      1  C   UNL     1       2.092   0.670  -0.014  0.00  0.00    +0.144 A 
ATOM      2  C   UNL     1       1.328   1.780  -0.001  0.00  0.00    +0.049 A 
ATOM      3  C   UNL     1      -0.016   1.355   0.009  0.00  0.00    +0.050 A 
ATOM      4  C   UNL     1       0.002  -0.004   0.002  0.00  0.00    +0.137 A 
ATOM      5  O   UNL     1       1.288  -0.406  -0.012  0.00  0.00    -0.456 OA
ENDROOT
BRANCH   1  15
ATOM      6  C   UNL     1       3.930  -0.621   4.803  0.00  0.00    +0.001 A 
ATOM      7  C   UNL     1       3.800  -1.808   4.100  0.00  0.00    +0.002 A 
ATOM      8  C   UNL     1       3.844  -1.815   2.719  0.00  0.00    +0.024 A 
ATOM      9  C   UNL     1       4.020  -0.625   2.033  0.00  0.00    +0.041 A 
ATOM     10  C   UNL     1       4.154   0.581   2.744  0.00  0.00    +0.058 A 
ATOM     11  C   UNL     1       4.107   0.573   4.135  0.00  0.00    +0.015 A 
ATOM     12  C   UNL     1       4.346   1.827   1.980  0.00  0.00    +0.248 C 
ATOM     13  O   UNL     1       4.709   2.843   2.542  0.00  0.00    -0.270 OA
ATOM     14  N   UNL     1       4.113   1.827   0.655  0.00  0.00    -0.287 N 
ATOM     15  C   UNL     1       3.598   0.641  -0.030  0.00  0.00    +0.226 C 
ATOM     16  N   UNL     1       4.068  -0.576   0.645  0.00  0.00    -0.319 N 
ATOM     17  H   UNL     1       4.317   2.745   0.085  0.00  0.00    +0.151 HD
ATOM     18  H   UNL     1       4.447  -1.422   0.053  0.00  0.00    +0.148 HD
ENDBRANCH   1  15
BRANCH   4  19
ATOM     19  C   UNL     1      -1.183  -0.887   0.008  0.00  0.00    +0.036 A 
ATOM     20  C   UNL     1      -2.197  -0.693   0.947  0.00  0.00    +0.015 A 
ATOM     21  C   UNL     1      -3.303  -1.518   0.944  0.00  0.00    +0.033 A 
ATOM     22  C   UNL     1      -3.403  -2.543   0.020  0.00  0.00    +0.128 A 
ATOM     23  C   UNL     1      -2.400  -2.746  -0.910  0.00  0.00    +0.053 A 
ATOM     24  C   UNL     1      -1.290  -1.924  -0.922  0.00  0.00    +0.054 A 
ATOM     25 CL   UNL     1      -0.030  -2.180  -2.089  0.00  0.00    -0.083 Cl
BRANCH  22  26
ATOM     26  N   UNL     1      -4.590  -3.428   0.027  0.00  0.00    +0.056 N 
ATOM     27  O   UNL     1      -4.681  -4.332  -0.784  0.00  0.00    -0.126 OA
ATOM     28  O   UNL     1      -5.476  -3.252   0.845  0.00  0.00    -0.126 OA
ENDBRANCH  22  26
ENDBRANCH   4  19
TORSDOF 3
