REMARK  Name = ZINC59318165
REMARK  5 active torsions:
REMARK  status: ('A' for Active; 'I' for Inactive)
REMARK    1  A    between atoms: C_1  and  C_2
REMARK    2  A    between atoms: C_2  and  C_3
REMARK    3  A    between atoms: C_13  and  C_15
REMARK    4  A    between atoms: C_21  and  C_23
REMARK    5  A    between atoms: C_24  and  C_25
REMARK                            x       y       z     vdW  Elec       q    Type
REMARK                         _______ _______ _______ _____ _____    ______ ____
ROOT
ATOM      1  C   UNL     1       6.562  -3.728   6.556  0.00  0.00    +0.078 C 
ATOM      2  C   UNL     1       6.867  -2.581   7.522  0.00  0.00    +0.032 C 
ATOM      3  C   UNL     1       8.014  -2.992   8.450  0.00  0.00    +0.109 C 
ATOM      4  N   UNL     1       7.660  -4.258   9.108  0.00  0.00    -0.298 N 
ATOM      5  C   UNL     1       7.263  -5.400   8.274  0.00  0.00    +0.109 C 
ATOM      6  C   UNL     1       6.124  -4.962   7.348  0.00  0.00    +0.032 C 
ATOM      7  C   UNL     1       7.700  -4.368  10.450  0.00  0.00    +0.239 C 
ATOM      8  O   UNL     1       8.120  -3.446  11.125  0.00  0.00    -0.271 OA
ENDROOT
BRANCH   1  18
ATOM      9  C   UNL     1       0.714  -0.503   1.266  0.00  0.00    -0.006 C 
ATOM     10  C   UNL     1       0.636  -2.031   1.320  0.00  0.00    +0.010 C 
ATOM     11  C   UNL     1       1.157  -2.538   2.667  0.00  0.00    +0.056 C 
ATOM     12  C   UNL     1       2.536  -1.942   2.912  0.00  0.00    +0.054 A 
ATOM     13  C   UNL     1       2.947  -0.847   2.222  0.00  0.00    +0.015 A 
ATOM     14  S   UNL     1       4.574  -0.574   2.866  0.00  0.00    -0.057 S 
ATOM     15  C   UNL     1       4.599  -1.862   3.951  0.00  0.00    +0.165 A 
ATOM     16  N   UNL     1       3.420  -2.419   3.783  0.00  0.00    -0.229 NA
ATOM     17  N   UNL     1       5.619  -2.244   4.816  0.00  0.00    -0.264 N 
ATOM     18  C   UNL     1       5.457  -3.314   5.619  0.00  0.00    +0.222 C 
ATOM     19  O   UNL     1       4.421  -3.944   5.587  0.00  0.00    -0.275 OA
ATOM     20  C   UNL     1       2.191  -0.082   1.188  0.00  0.00    +0.048 C 
ATOM     21  H   UNL     1       6.448  -1.740   4.841  0.00  0.00    +0.157 HD
BRANCH   9  23
ATOM     22  C   UNL     1      -0.051   1.534   0.039  0.00  0.00    +0.004 C 
ATOM     23  C   UNL     1      -0.029   0.005   0.029  0.00  0.00    +0.000 C 
ENDBRANCH   9  23
ENDBRANCH   1  18
BRANCH   7  24
ATOM     24  C   UNL     1       7.238  -5.598  11.098  0.00  0.00    +0.068 C 
ATOM     25  C   UNL     1       7.179  -5.671  12.442  0.00  0.00    +0.013 C 
BRANCH  25  26
ATOM     26  C   UNL     1       6.714  -6.907  13.093  0.00  0.00    -0.025 A 
ATOM     27  C   UNL     1       6.339  -8.010  12.319  0.00  0.00    +0.008 A 
ATOM     28  C   UNL     1       5.905  -9.164  12.936  0.00  0.00    +0.001 A 
ATOM     29  C   UNL     1       5.840  -9.233  14.317  0.00  0.00    +0.000 A 
ATOM     30  C   UNL     1       6.210  -8.146  15.089  0.00  0.00    +0.001 A 
ATOM     31  C   UNL     1       6.651  -6.986  14.488  0.00  0.00    +0.008 A 
ENDBRANCH  25  26
ENDBRANCH   7  24
TORSDOF 4
