REMARK  Name = ZINC37294576
REMARK  8 active torsions:
REMARK  status: ('A' for Active; 'I' for Inactive)
REMARK    1  A    between atoms: C_1  and  C_2
REMARK    2  A    between atoms: C_2  and  C_3
REMARK    3  A    between atoms: C_9  and  N_11
REMARK    4  A    between atoms: N_11  and  C_12
REMARK    5  A    between atoms: C_12  and  C_13
REMARK    6  A    between atoms: C_18  and  O_19
REMARK    7  A    between atoms: O_19  and  C_20
REMARK    8  A    between atoms: C_20  and  C_21
REMARK                            x       y       z     vdW  Elec       q    Type
REMARK                         _______ _______ _______ _____ _____    ______ ____
ROOT
ATOM      1  C   UNL     1       1.649  -3.870   0.098  0.00  0.00    -0.043 C 
ENDROOT
BRANCH   1   2
ATOM      2  C   UNL     1       2.444  -4.264   1.315  0.00  0.00    -0.021 A 
ATOM      3  C   UNL     1       3.757  -4.676   1.180  0.00  0.00    +0.020 A 
ATOM      4  C   UNL     1       4.487  -5.038   2.297  0.00  0.00    +0.019 A 
ATOM      5  C   UNL     1       3.906  -4.990   3.552  0.00  0.00    +0.034 A 
ATOM      6  C   UNL     1       2.594  -4.580   3.692  0.00  0.00    +0.061 A 
ATOM      7  C   UNL     1       1.861  -4.210   2.572  0.00  0.00    +0.136 A 
ATOM      8 BR   UNL     1       1.800  -4.515   5.407  0.00  0.00    -0.046 Br
ATOM      9 BR   UNL     1       6.283  -5.601   2.109  0.00  0.00    -0.050 Br
BRANCH   7  10
ATOM     10  O   UNL     1       0.572  -3.800   2.708  0.00  0.00    -0.491 OA
BRANCH  10  11
ATOM     11  C   UNL     1      -0.439  -4.807   2.641  0.00  0.00    +0.226 C 
ATOM     12  C   UNL     1      -1.815  -4.160   2.812  0.00  0.00    +0.048 C 
ENDBRANCH  10  11
ENDBRANCH   7  10
ENDBRANCH   1   2
BRANCH   1  13
ATOM     13  N   UNL     1       1.625  -2.406  -0.018  0.00  0.00    +0.384 N 
ATOM     14  H   UNL     1       2.568  -2.059  -0.106  0.00  0.00    -0.085 HD
ATOM     15  H   UNL     1       1.197  -2.010   0.806  0.00  0.00    -0.085 HD
BRANCH  13  21
ATOM     16  C   UNL     1       0.718  -0.497  -1.257  0.00  0.00    -0.025 C 
ATOM     17  C   UNL     1      -0.089  -0.097  -2.493  0.00  0.00    +0.002 C 
ATOM     18  C   UNL     1       0.627  -0.590  -3.752  0.00  0.00    +0.000 C 
ATOM     19  C   UNL     1       0.758  -2.114  -3.700  0.00  0.00    -0.002 C 
ATOM     20  C   UNL     1       1.565  -2.514  -2.464  0.00  0.00    -0.015 C 
ATOM     21  C   UNL     1       0.849  -2.021  -1.205  0.00  0.00    -0.068 C 
BRANCH  16  23
ATOM     22  C   UNL     1      -0.019   1.526   0.010  0.00  0.00    +0.004 C 
ATOM     23  C   UNL     1       0.002  -0.004   0.002  0.00  0.00    -0.002 C 
ENDBRANCH  16  23
ENDBRANCH  13  21
ENDBRANCH   1  13
TORSDOF 6
