REMARK  Name = ZINC18142307
REMARK  7 active torsions:
REMARK  status: ('A' for Active; 'I' for Inactive)
REMARK    1  A    between atoms: C_1  and  C_2
REMARK    2  A    between atoms: C_2  and  N_3
REMARK    3  A    between atoms: N_3  and  C_4
REMARK    4  A    between atoms: N_3  and  C_6
REMARK    5  A    between atoms: C_4  and  C_5
REMARK    6  A    between atoms: C_11  and  C_24
REMARK    7  A    between atoms: N_13  and  C_14
REMARK                            x       y       z     vdW  Elec       q    Type
REMARK                         _______ _______ _______ _____ _____    ______ ____
ROOT
ATOM      1  C   UNL     1       2.606  -0.772   0.522  0.00  0.00    +0.033 A 
ATOM      2  C   UNL     1       3.392   0.251  -0.012  0.00  0.00    +0.024 A 
ATOM      3  C   UNL     1       4.697   0.385   0.358  0.00  0.00    +0.013 A 
ATOM      4  C   UNL     1       5.261  -0.517   1.274  0.00  0.00    +0.018 A 
ATOM      5  C   UNL     1       6.626  -0.410   1.638  0.00  0.00    +0.030 A 
ATOM      6  C   UNL     1       7.189  -1.436   2.386  0.00  0.00    +0.097 A 
ATOM      7  C   UNL     1       6.324  -2.584   2.720  0.00  0.00    +0.212 A 
ATOM      8  N   UNL     1       6.833  -3.773   2.961  0.00  0.00    -0.325 N 
ATOM      9  O   UNL     1       4.984  -2.370   2.769  0.00  0.00    -0.438 OA
ATOM     10  C   UNL     1       4.463  -1.532   1.838  0.00  0.00    +0.139 A 
ATOM     11  C   UNL     1       3.140  -1.656   1.451  0.00  0.00    +0.070 A 
ATOM     12  H   UNL     1       6.265  -4.485   3.294  0.00  0.00    +0.169 HD
ENDROOT
BRANCH   8  13
ATOM     13  C   UNL     1       8.163  -4.004   2.744  0.00  0.00    +0.042 A 
ATOM     14  C   UNL     1       8.939  -4.618   3.730  0.00  0.00    +0.027 A 
ATOM     15  C   UNL     1      10.280  -4.848   3.504  0.00  0.00    +0.022 A 
ATOM     16  C   UNL     1      10.858  -4.473   2.303  0.00  0.00    +0.041 A 
ATOM     17  C   UNL     1      10.094  -3.864   1.321  0.00  0.00    +0.022 A 
ATOM     18  C   UNL     1       8.751  -3.633   1.532  0.00  0.00    +0.027 A 
ATOM     19 CL   UNL     1      12.546  -4.766   2.026  0.00  0.00    -0.084 Cl
ENDBRANCH   8  13
BRANCH   6  20
ATOM     20  C   UNL     1       8.591  -1.381   2.827  0.00  0.00    +0.247 C 
ATOM     21  O   UNL     1       8.923  -1.915   3.868  0.00  0.00    -0.270 OA
ATOM     22  N   UNL     1       9.508  -0.737   2.078  0.00  0.00    -0.325 N 
ATOM     23  H   UNL     1       9.256  -0.358   1.222  0.00  0.00    +0.145 HD
ATOM     24  H   UNL     1      10.421  -0.654   2.395  0.00  0.00    +0.145 HD
ENDBRANCH   6  20
BRANCH   1  25
ATOM     25  N   UNL     1       1.281  -0.903   0.126  0.00  0.00    -0.330 N 
BRANCH  25  27
ATOM     26  C   UNL     1       0.110   1.230  -0.125  0.00  0.00    +0.024 C 
ATOM     27  C   UNL     1       0.714   0.027  -0.853  0.00  0.00    +0.102 C 
ENDBRANCH  25  27
BRANCH  25  28
ATOM     28  C   UNL     1       0.450  -1.971   0.688  0.00  0.00    +0.102 C 
ATOM     29  C   UNL     1       0.568  -3.221  -0.186  0.00  0.00    +0.024 C 
ENDBRANCH  25  28
ENDBRANCH   1  25
TORSDOF 5
