REMARK  Name = ZINC09033153
REMARK  10 active torsions:
REMARK  status: ('A' for Active; 'I' for Inactive)
REMARK    1  A    between atoms: C_1  and  N_60
REMARK    2  A    between atoms: C_8  and  O_32
REMARK    3  A    between atoms: C_10  and  C_12
REMARK    4  A    between atoms: N_19  and  C_22
REMARK    5  A    between atoms: C_20  and  O_21
REMARK    6  A    between atoms: C_24  and  O_30
REMARK    7  A    between atoms: C_27  and  O_28
REMARK    8  A    between atoms: O_28  and  C_29
REMARK    9  A    between atoms: O_30  and  C_31
REMARK   10  A    between atoms: O_32  and  C_33
REMARK                            x       y       z     vdW  Elec       q    Type
REMARK                         _______ _______ _______ _____ _____    ______ ____
ROOT
ATOM      1  C   UNL     1      -2.747  -6.225   0.654  0.00  0.00    +0.068 A 
ATOM      2  C   UNL     1      -3.171  -6.890  -0.511  0.00  0.00    +0.258 A 
ATOM      3  O   UNL     1      -3.261  -8.105  -0.525  0.00  0.00    -0.267 OA
ATOM      4  N   UNL     1      -3.479  -6.174  -1.610  0.00  0.00    -0.302 N 
ATOM      5  H   UNL     1      -3.772  -6.629  -2.415  0.00  0.00    +0.171 HD
ATOM      6  C   UNL     1      -3.387  -4.831  -1.599  0.00  0.00    +0.168 A 
ATOM      7  S   UNL     1      -3.790  -3.946  -3.008  0.00  0.00    -0.012 S 
ATOM      8  N   UNL     1      -2.978  -4.175  -0.498  0.00  0.00    -0.257 N 
ATOM      9  C   UNL     1      -2.655  -4.865   0.644  0.00  0.00    +0.207 A 
ENDROOT
BRANCH   1  19
ATOM     10  C   UNL     1      -0.084  -7.212   1.218  0.00  0.00    -0.095 C 
ATOM     11  C   UNL     1      -1.062  -8.826   2.737  0.00  0.00    -0.073 C 
ATOM     12  C   UNL     1      -2.229  -9.808   2.847  0.00  0.00    +0.017 C 
ATOM     13  C   UNL     1      -3.537  -9.059   2.816  0.00  0.00    -0.040 A 
ATOM     14  C   UNL     1      -4.681  -9.712   3.248  0.00  0.00    +0.053 A 
ATOM     15  C   UNL     1      -5.903  -9.079   3.226  0.00  0.00    +0.170 A 
ATOM     16  C   UNL     1      -5.989  -7.766   2.775  0.00  0.00    +0.208 A 
ATOM     17  C   UNL     1      -4.843  -7.111   2.347  0.00  0.00    +0.167 A 
ATOM     18  C   UNL     1      -3.613  -7.761   2.367  0.00  0.00    -0.008 A 
ATOM     19  C   UNL     1      -2.397  -7.006   1.895  0.00  0.00    +0.007 C 
ATOM     20  O   UNL     1      -7.291  -7.361   2.853  0.00  0.00    -0.449 OA
ATOM     21  C   UNL     1      -8.063  -8.571   2.971  0.00  0.00    +0.467 C 
ATOM     22  O   UNL     1      -7.151  -9.498   3.588  0.00  0.00    -0.452 OA
ATOM     23  N   UNL     1      -1.315  -7.951   1.574  0.00  0.00    +0.386 N 
ATOM     24  H   UNL     1      -1.600  -8.529   0.775  0.00  0.00    -0.081 HD
BRANCH  17  25
ATOM     25  O   UNL     1      -4.923  -5.827   1.905  0.00  0.00    -0.491 OA
ATOM     26  C   UNL     1      -4.912  -4.798   2.897  0.00  0.00    +0.277 C 
ENDBRANCH  17  25
ENDBRANCH   1  19
BRANCH   8  27
ATOM     27  C   UNL     1      -2.886  -2.776  -0.515  0.00  0.00    +0.097 A 
ATOM     28  C   UNL     1      -1.685  -2.162  -0.838  0.00  0.00    +0.075 A 
ATOM     29  C   UNL     1      -1.598  -0.778  -0.855  0.00  0.00    +0.122 A 
ATOM     30  C   UNL     1      -2.709  -0.008  -0.543  0.00  0.00    +0.049 A 
ATOM     31  C   UNL     1      -3.909  -0.618  -0.227  0.00  0.00    +0.051 A 
ATOM     32  C   UNL     1      -4.002  -2.000  -0.208  0.00  0.00    +0.144 A 
BRANCH  32  33
ATOM     33  O   UNL     1      -5.181  -2.599   0.108  0.00  0.00    -0.493 OA
ATOM     34  C   UNL     1      -6.283  -1.741   0.412  0.00  0.00    +0.277 C 
ENDBRANCH  32  33
BRANCH  29  35
ATOM     35  O   UNL     1      -0.421  -0.176  -1.172  0.00  0.00    -0.495 OA
ATOM     36  C   UNL     1      -0.403   1.253  -1.169  0.00  0.00    +0.277 C 
ENDBRANCH  29  35
ENDBRANCH   8  27
BRANCH   9  37
ATOM     37  O   UNL     1      -2.251  -4.202   1.749  0.00  0.00    -0.493 OA
ATOM     38  H   UNL     1      -2.219  -3.242   1.641  0.00  0.00    +0.294 HD
ENDBRANCH   9  37
TORSDOF 6
