REMARK  Name = ZINC20000579
REMARK  8 active torsions:
REMARK  status: ('A' for Active; 'I' for Inactive)
REMARK    1  A    between atoms: C_3  and  C_12
REMARK    2  A    between atoms: C_5  and  O_7
REMARK    3  A    between atoms: O_7  and  C_8
REMARK    4  A    between atoms: C_8  and  C_9
REMARK    5  A    between atoms: C_21  and  C_29
REMARK    6  A    between atoms: C_22  and  N_28
REMARK    7  A    between atoms: C_23  and  C_24
REMARK    8  A    between atoms: C_23  and  C_26
REMARK                            x       y       z     vdW  Elec       q    Type
REMARK                         _______ _______ _______ _____ _____    ______ ____
ROOT
ATOM      1  C   UNL     1      -0.735   1.963  -1.246  0.00  0.00    +0.069 C 
ATOM      2  C   UNL     1      -2.260   1.835  -1.264  0.00  0.00    +0.056 C 
ATOM      3  C   UNL     1      -2.847   2.286  -2.583  0.00  0.00    +0.169 C 
ATOM      4  O   UNL     1      -3.387   3.603  -2.503  0.00  0.00    -0.375 OA
ATOM      5  C   UNL     1      -4.424   3.726  -1.520  0.00  0.00    +0.187 C 
ATOM      6  C   UNL     1      -3.810   3.434  -0.172  0.00  0.00    +0.006 C 
ATOM      7  C   UNL     1      -2.804   2.583  -0.080  0.00  0.00    -0.024 C 
ATOM      8  C   UNL     1      -2.126   2.376   1.224  0.00  0.00    +0.074 C 
ATOM      9  C   UNL     1      -0.905   1.785   1.248  0.00  0.00    +0.054 C 
ATOM     10  C   UNL     1      -0.196   1.298   0.021  0.00  0.00    +0.188 C 
ENDROOT
BRANCH   1  13
ATOM     11  C   UNL     1      -0.100  -0.589  -3.956  0.00  0.00    +0.004 A 
ATOM     12  C   UNL     1      -0.628   0.039  -2.842  0.00  0.00    +0.004 A 
ATOM     13  C   UNL     1      -0.158   1.281  -2.459  0.00  0.00    -0.037 A 
ATOM     14  C   UNL     1       0.838   1.901  -3.191  0.00  0.00    +0.049 A 
ATOM     15  C   UNL     1       1.373   1.270  -4.304  0.00  0.00    +0.121 A 
ATOM     16  C   UNL     1       0.899   0.023  -4.687  0.00  0.00    +0.045 A 
BRANCH  15  17
ATOM     17  O   UNL     1       2.355   1.875  -5.022  0.00  0.00    -0.483 OA
BRANCH  17  18
ATOM     18  C   UNL     1       2.854   1.170  -6.161  0.00  0.00    +0.324 C 
BRANCH  18  19
ATOM     19  C   UNL     1       3.930   1.988  -6.827  0.00  0.00    +0.248 C 
ATOM     20  O   UNL     1       4.238   3.070  -6.372  0.00  0.00    -0.272 OA
ATOM     21  N   UNL     1       4.549   1.520  -7.929  0.00  0.00    -0.327 N 
ATOM     22  H   UNL     1       5.334   2.117  -8.415  0.00  0.00    +0.145 HD
ATOM     23  H   UNL     1       4.269   0.539  -8.341  0.00  0.00    +0.145 HD
ENDBRANCH  18  19
ENDBRANCH  17  18
ENDBRANCH  15  17
ENDBRANCH   1  13
BRANCH   9  24
ATOM     24  N   UNL     1      -0.290   1.625   2.458  0.00  0.00    -0.358 N 
ATOM     25  H   UNL     1       0.700   1.150   2.513  0.00  0.00    +0.142 HD
ATOM     26  H   UNL     1      -0.785   1.972   3.377  0.00  0.00    +0.142 HD
ENDBRANCH   9  24
BRANCH  10  27
ATOM     27  C   UNL     1      -0.374  -0.159  -0.090  0.00  0.00    +0.091 C 
ATOM     28  N   UNL     1      -0.511  -1.284  -0.175  0.00  0.00    -0.194 NA
ENDBRANCH  10  27
BRANCH  10  29
ATOM     29  C   UNL     1       1.240   1.598   0.146  0.00  0.00    +0.091 C 
ATOM     30  N   UNL     1       2.348   1.829   0.243  0.00  0.00    -0.194 NA
ENDBRANCH  10  29
BRANCH   8  31
ATOM     31  C   UNL     1      -2.753   2.795   2.441  0.00  0.00    +0.101 C 
ATOM     32  N   UNL     1      -3.250   3.128   3.407  0.00  0.00    -0.191 NA
ENDBRANCH   8  31
TORSDOF 8
