REMARK  Name = ZINC09413023
REMARK  10 active torsions:
REMARK  status: ('A' for Active; 'I' for Inactive)
REMARK    1  A    between atoms: C_1  and  C_2
REMARK    2  A    between atoms: C_2  and  N_3
REMARK    3  A    between atoms: C_5  and  C_14
REMARK    4  A    between atoms: C_14  and  N_65
REMARK    5  A    between atoms: C_15  and  N_65
REMARK    6  A    between atoms: C_16  and  C_17
REMARK    7  A    between atoms: C_16  and  N_65
REMARK    8  A    between atoms: N_19  and  C_20
REMARK    9  A    between atoms: C_24  and  S_26
REMARK   10  A    between atoms: S_26  and  N_29
REMARK                            x       y       z     vdW  Elec       q    Type
REMARK                         _______ _______ _______ _____ _____    ______ ____
ROOT
ATOM      1  C   UNL     1       2.698  -4.536   3.557  0.00  0.00    +0.201 C 
ATOM      2  O   UNL     1       3.052  -3.707   4.368  0.00  0.00    -0.278 OA
ATOM      3  N   UNL     1       3.205  -5.784   3.603  0.00  0.00    -0.287 N 
ATOM      4  H   UNL     1       2.972  -6.428   2.916  0.00  0.00    +0.155 HD
ENDROOT
BRANCH   3   5
ATOM      5  C   UNL     1       4.068  -6.150   4.641  0.00  0.00    +0.035 A 
ATOM      6  C   UNL     1       4.973  -5.228   5.152  0.00  0.00    +0.023 A 
ATOM      7  C   UNL     1       5.820  -5.591   6.181  0.00  0.00    +0.004 A 
ATOM      8  C   UNL     1       5.775  -6.874   6.695  0.00  0.00    +0.028 A 
ATOM      9  C   UNL     1       4.879  -7.796   6.185  0.00  0.00    +0.107 A 
ATOM     10  C   UNL     1       4.026  -7.437   5.160  0.00  0.00    +0.051 A 
BRANCH   9  11
ATOM     11  S   UNL     1       4.826  -9.429   6.843  0.00  0.00    +0.061 S 
ATOM     12  O   UNL     1       5.348  -9.352   8.163  0.00  0.00    -0.153 OA
ATOM     13  O   UNL     1       3.529  -9.937   6.565  0.00  0.00    -0.153 OA
BRANCH  11  14
ATOM     14  N   UNL     1       5.891 -10.345   5.966  0.00  0.00    -0.177 NA
ATOM     15  C   UNL     1       5.568 -11.105   4.750  0.00  0.00    +0.109 C 
ATOM     16  C   UNL     1       6.860 -11.819   4.299  0.00  0.00    +0.018 C 
ATOM     17  C   UNL     1       7.694 -11.883   5.606  0.00  0.00    +0.018 C 
ATOM     18  C   UNL     1       7.319 -10.539   6.280  0.00  0.00    +0.109 C 
ENDBRANCH  11  14
ENDBRANCH   9  11
ENDBRANCH   3   5
BRANCH   1  19
ATOM     19  C   UNL     1       1.690  -4.171   2.497  0.00  0.00    +0.019 C 
BRANCH  19  21
ATOM     20  C   UNL     1       0.566  -2.567   3.920  0.00  0.00    -0.095 C 
ATOM     21  N   UNL     1       1.319  -2.750   2.662  0.00  0.00    +0.386 N 
ATOM     22  H   UNL     1       2.175  -2.184   2.700  0.00  0.00    -0.081 HD
BRANCH  21  23
ATOM     23  C   UNL     1       0.500  -2.305   1.514  0.00  0.00    -0.032 C 
BRANCH  23  26
ATOM     24  N   UNL     1      -0.822   1.129   0.613  0.00  0.00    -0.324 N 
ATOM     25  C   UNL     1      -0.612  -0.316   0.471  0.00  0.00    +0.147 C 
ATOM     26  C   UNL     1       0.320  -0.788   1.594  0.00  0.00    +0.174 C 
ATOM     27  O   UNL     1       1.584  -0.140   1.419  0.00  0.00    -0.487 OA
ATOM     28  C   UNL     1       1.554   1.194   1.149  0.00  0.00    +0.142 A 
ATOM     29  C   UNL     1       0.382   1.826   0.751  0.00  0.00    +0.072 A 
ATOM     30  C   UNL     1       0.397   3.191   0.480  0.00  0.00    +0.027 A 
ATOM     31  C   UNL     1       1.567   3.913   0.610  0.00  0.00    +0.002 A 
ATOM     32  C   UNL     1       2.730   3.283   1.009  0.00  0.00    +0.004 A 
ATOM     33  C   UNL     1       2.725   1.927   1.279  0.00  0.00    +0.047 A 
BRANCH  24  35
ATOM     34  C   UNL     1      -3.013   1.045  -0.477  0.00  0.00    +0.024 C 
ATOM     35  C   UNL     1      -1.612   1.659  -0.506  0.00  0.00    +0.102 C 
ENDBRANCH  24  35
ENDBRANCH  23  26
ENDBRANCH  21  23
ENDBRANCH  19  21
ENDBRANCH   1  19
TORSDOF 8
