REMARK  Name = ZINC18196480
REMARK  5 active torsions:
REMARK  status: ('A' for Active; 'I' for Inactive)
REMARK    1  A    between atoms: C_1  and  O_2
REMARK    2  A    between atoms: O_2  and  C_3
REMARK    3  A    between atoms: C_8  and  C_9
REMARK    4  A    between atoms: C_16  and  O_17
REMARK    5  A    between atoms: C_24  and  C_27
REMARK                            x       y       z     vdW  Elec       q    Type
REMARK                         _______ _______ _______ _____ _____    ______ ____
ROOT
ATOM      1  C   UNL     1      -0.013   1.086   0.008  0.00  0.00    +0.096 C 
ATOM      2  C   UNL     1       1.397   1.605  -0.003  0.00  0.00    +0.067 A 
ATOM      3  C   UNL     1       1.800   2.616  -0.835  0.00  0.00    +0.126 A 
ATOM      4  N   UNL     1       3.106   2.846  -0.599  0.00  0.00    -0.260 N 
ATOM      5  H   UNL     1       3.676   3.530  -1.054  0.00  0.00    +0.190 HD
ATOM      6  N   UNL     1       3.524   1.954   0.402  0.00  0.00    -0.134 NA
ATOM      7  C   UNL     1       2.496   1.213   0.755  0.00  0.00    +0.237 A 
ATOM      8  N   UNL     1       0.919   3.214  -1.727  0.00  0.00    -0.303 N 
ATOM      9  C   UNL     1      -0.275   2.590  -1.986  0.00  0.00    +0.017 C 
ATOM     10  C   UNL     1      -0.749   1.586  -1.216  0.00  0.00    +0.024 C 
ATOM     11  C   UNL     1      -1.965   0.952  -1.526  0.00  0.00    +0.162 C 
ATOM     12  O   UNL     1      -2.365   0.054  -0.811  0.00  0.00    -0.292 OA
ATOM     13  C   UNL     1      -2.781   1.357  -2.721  0.00  0.00    +0.088 C 
ATOM     14  C   UNL     1      -1.845   1.921  -3.795  0.00  0.00    +0.039 C 
ATOM     15  C   UNL     1      -1.057   3.081  -3.183  0.00  0.00    +0.060 C 
ATOM     16  H   UNL     1       1.143   4.054  -2.157  0.00  0.00    +0.153 HD
ENDROOT
BRANCH   1  22
ATOM     17  C   UNL     1      -1.227   0.658   2.160  0.00  0.00    +0.124 A 
ATOM     18  C   UNL     1      -1.871   1.108   3.304  0.00  0.00    +0.046 A 
ATOM     19  C   UNL     1      -2.010   2.463   3.528  0.00  0.00    +0.004 A 
ATOM     20  C   UNL     1      -1.505   3.372   2.616  0.00  0.00    +0.001 A 
ATOM     21  C   UNL     1      -0.860   2.926   1.478  0.00  0.00    +0.008 A 
ATOM     22  C   UNL     1      -0.717   1.571   1.249  0.00  0.00    +0.006 A 
BRANCH  17  24
ATOM     23  C   UNL     1      -1.642  -1.558   2.915  0.00  0.00    +0.277 C 
ATOM     24  O   UNL     1      -1.092  -0.676   1.934  0.00  0.00    -0.495 OA
ENDBRANCH  17  24
ENDBRANCH   1  22
BRANCH  14  25
ATOM     25  C   UNL     1      -2.654   2.417  -4.965  0.00  0.00    -0.006 A 
ATOM     26  C   UNL     1      -2.612   2.022  -6.261  0.00  0.00    +0.011 A 
ATOM     27  C   UNL     1      -3.460   2.622  -7.173  0.00  0.00    +0.008 A 
ATOM     28  C   UNL     1      -4.302   3.595  -6.746  0.00  0.00    +0.045 A 
ATOM     29  S   UNL     1      -3.912   3.684  -5.006  0.00  0.00    -0.101 S 
ENDBRANCH  14  25
BRANCH   7  30
ATOM     30  O   UNL     1       2.506   0.234   1.698  0.00  0.00    -0.491 OA
ATOM     31  H   UNL     1       3.423   0.157   2.090  0.00  0.00    +0.294 HD
ENDBRANCH   7  30
TORSDOF 4
