REMARK  Name = ZINC13576619
REMARK  8 active torsions:
REMARK  status: ('A' for Active; 'I' for Inactive)
REMARK    1  A    between atoms: C_3  and  O_16
REMARK    2  A    between atoms: C_6  and  C_7
REMARK    3  A    between atoms: N_9  and  N_10
REMARK    4  A    between atoms: O_16  and  C_17
REMARK    5  A    between atoms: C_19  and  O_25
REMARK    6  A    between atoms: O_25  and  C_26
REMARK    7  A    between atoms: C_29  and  C_32
REMARK    8  A    between atoms: N_34  and  N_35
REMARK                            x       y       z     vdW  Elec       q    Type
REMARK                         _______ _______ _______ _____ _____    ______ ____
ROOT
ATOM      1  C   UNL     1       1.422   1.949  -0.001  0.00  0.00    +0.377 C 
ATOM      2  C   UNL     1      -0.017   1.427   0.010  0.00  0.00    +0.377 C 
ATOM      3  O   UNL     1       0.002  -0.004   0.002  0.00  0.00    -0.335 OA
ATOM      4  C   UNL     1       0.695  -0.561  -1.119  0.00  0.00    +0.192 C 
ATOM      5  C   UNL     1       2.135  -0.039  -1.130  0.00  0.00    +0.192 C 
ATOM      6  O   UNL     1       2.115   1.391  -1.122  0.00  0.00    -0.335 OA
ENDROOT
BRANCH   1   7
ATOM      7  O   UNL     1       1.413   3.374  -0.106  0.00  0.00    -0.457 OA
BRANCH   7  10
ATOM      8  C   UNL     1       3.886   6.036  -0.035  0.00  0.00    +0.016 A 
ATOM      9  C   UNL     1       2.672   5.391  -0.118  0.00  0.00    +0.046 A 
ATOM     10  C   UNL     1       2.611   4.005  -0.024  0.00  0.00    +0.124 A 
ATOM     11  C   UNL     1       3.773   3.266   0.160  0.00  0.00    +0.046 A 
ATOM     12  C   UNL     1       4.992   3.903   0.238  0.00  0.00    +0.016 A 
ATOM     13  C   UNL     1       5.058   5.295   0.144  0.00  0.00    +0.039 A 
BRANCH  13  14
ATOM     14  C   UNL     1       6.361   5.982   0.232  0.00  0.00    +0.263 C 
ATOM     15  O   UNL     1       6.416   7.194   0.149  0.00  0.00    -0.268 OA
ATOM     16  N   UNL     1       7.489   5.267   0.405  0.00  0.00    -0.203 N 
ATOM     17  H   UNL     1       7.439   4.170   0.480  0.00  0.00    +0.178 HD
BRANCH  16  18
ATOM     18  N   UNL     1       8.726   5.919   0.488  0.00  0.00    -0.189 NA
ATOM     19  C   UNL     1       9.799   5.239   0.652  0.00  0.00    +0.037 C 
ATOM     20  C   UNL     1       9.896   3.733   0.780  0.00  0.00    +0.052 C 
ATOM     21  C   UNL     1      11.389   3.395   0.967  0.00  0.00    +0.006 C 
ATOM     22  C   UNL     1      11.992   4.705   1.536  0.00  0.00    +0.006 C 
ATOM     23  C   UNL     1      11.208   5.793   0.762  0.00  0.00    +0.052 C 
ENDBRANCH  16  18
ENDBRANCH  13  14
ENDBRANCH   7  10
ENDBRANCH   1   7
BRANCH   2  24
ATOM     24  O   UNL     1      -0.706   1.901  -1.149  0.00  0.00    -0.457 OA
BRANCH  24  25
ATOM     25  C   UNL     1      -2.048   1.699  -1.194  0.00  0.00    +0.124 A 
ATOM     26  C   UNL     1      -2.687   1.051  -0.143  0.00  0.00    +0.046 A 
ATOM     27  C   UNL     1      -4.048   0.849  -0.182  0.00  0.00    +0.016 A 
ATOM     28  C   UNL     1      -4.786   1.287  -1.286  0.00  0.00    +0.039 A 
ATOM     29  C   UNL     1      -4.139   1.933  -2.342  0.00  0.00    +0.016 A 
ATOM     30  C   UNL     1      -2.778   2.137  -2.292  0.00  0.00    +0.046 A 
BRANCH  28  31
ATOM     31  C   UNL     1      -6.244   1.067  -1.335  0.00  0.00    +0.263 C 
ATOM     32  O   UNL     1      -6.885   1.449  -2.295  0.00  0.00    -0.268 OA
ATOM     33  N   UNL     1      -6.867   0.444  -0.315  0.00  0.00    -0.203 N 
ATOM     34  H   UNL     1      -6.287   0.098   0.554  0.00  0.00    +0.178 HD
BRANCH  33  35
ATOM     35  N   UNL     1      -8.251   0.235  -0.361  0.00  0.00    -0.189 NA
ATOM     36  C   UNL     1      -8.842  -0.357   0.607  0.00  0.00    +0.037 C 
ATOM     37  C   UNL     1      -8.188  -0.895   1.863  0.00  0.00    +0.052 C 
ATOM     38  C   UNL     1      -9.310  -1.522   2.718  0.00  0.00    +0.006 C 
ATOM     39  C   UNL     1     -10.415  -1.856   1.683  0.00  0.00    +0.006 C 
ATOM     40  C   UNL     1     -10.327  -0.657   0.707  0.00  0.00    +0.052 C 
ENDBRANCH  33  35
ENDBRANCH  28  31
ENDBRANCH  24  25
ENDBRANCH   2  24
TORSDOF 8
