REMARK  Name = ZINC52723008
REMARK  10 active torsions:
REMARK  status: ('A' for Active; 'I' for Inactive)
REMARK    1  A    between atoms: C_1  and  C_2
REMARK    2  A    between atoms: C_2  and  C_3
REMARK    3  A    between atoms: C_3  and  C_4
REMARK    4  A    between atoms: C_4  and  C_5
REMARK    5  A    between atoms: C_5  and  N_6
REMARK    6  A    between atoms: C_7  and  C_9
REMARK    7  A    between atoms: N_12  and  C_15
REMARK    8  A    between atoms: C_15  and  C_17
REMARK    9  A    between atoms: C_15  and  C_18
REMARK   10  A    between atoms: C_24  and  C_27
REMARK                            x       y       z     vdW  Elec       q    Type
REMARK                         _______ _______ _______ _____ _____    ______ ____
ROOT
ATOM      1  C   UNL     1      -3.957  -6.154  -0.221  0.00  0.00    +0.071 C 
ATOM      2  C   UNL     1      -3.048  -6.830  -1.252  0.00  0.00    -0.006 C 
ATOM      3  C   UNL     1      -3.221  -8.348  -1.158  0.00  0.00    -0.077 C 
ATOM      4  N   UNL     1      -4.619  -8.702  -1.428  0.00  0.00    +0.387 N 
ATOM      5  C   UNL     1      -5.489  -8.116  -0.402  0.00  0.00    -0.077 C 
ATOM      6  C   UNL     1      -5.404  -6.590  -0.467  0.00  0.00    -0.006 C 
ATOM      7  H   UNL     1      -4.885  -8.349  -2.335  0.00  0.00    -0.081 HD
ENDROOT
BRANCH   1   9
ATOM      8  N   UNL     1      -2.662  -4.047  -0.186  0.00  0.00    -0.315 N 
ATOM      9  C   UNL     1      -3.850  -4.657  -0.361  0.00  0.00    +0.216 C 
ATOM     10  O   UNL     1      -4.835  -4.002  -0.630  0.00  0.00    -0.276 OA
ATOM     11  H   UNL     1      -1.875  -4.571   0.030  0.00  0.00    +0.149 HD
BRANCH   8  12
ATOM     12  C   UNL     1      -2.558  -2.592  -0.322  0.00  0.00    +0.104 C 
BRANCH  12  13
ATOM     13  C   UNL     1      -1.112  -2.158  -0.076  0.00  0.00    +0.019 C 
BRANCH  13  14
ATOM     14  C   UNL     1      -1.004  -0.638  -0.218  0.00  0.00    +0.001 C 
BRANCH  14  16
ATOM     15  C   UNL     1       0.550   1.315  -0.113  0.00  0.00    +0.004 C 
ATOM     16  C   UNL     1       0.443  -0.204   0.028  0.00  0.00    -0.003 C 
ENDBRANCH  14  16
ENDBRANCH  13  14
ENDBRANCH  12  13
ENDBRANCH   8  12
ENDBRANCH   1   9
BRANCH   4  17
ATOM     17  C   UNL     1      -4.764 -10.164  -1.414  0.00  0.00    +0.016 C 
ATOM     18  C   UNL     1      -6.235 -10.533  -1.616  0.00  0.00    -0.004 C 
BRANCH  17  19
ATOM     19  C   UNL     1      -3.939 -10.761  -2.525  0.00  0.00    +0.202 C 
ATOM     20  O   UNL     1      -3.646 -10.090  -3.491  0.00  0.00    -0.277 OA
ATOM     21  N   UNL     1      -3.526 -12.042  -2.444  0.00  0.00    -0.302 N 
ATOM     22  C   UNL     1      -3.789 -12.838  -1.237  0.00  0.00    +0.108 C 
ATOM     23  C   UNL     1      -2.466 -13.424  -0.735  0.00  0.00    +0.020 C 
ATOM     24  C   UNL     1      -1.794 -14.203  -1.868  0.00  0.00    +0.016 C 
ATOM     25  C   UNL     1      -1.492 -13.255  -3.031  0.00  0.00    +0.092 C 
ATOM     26  C   UNL     1      -2.809 -12.669  -3.562  0.00  0.00    +0.120 C 
BRANCH  25  27
ATOM     27  C   UNL     1      -0.801 -14.016  -4.133  0.00  0.00    +0.215 C 
ATOM     28  O   UNL     1      -1.306 -14.081  -5.235  0.00  0.00    -0.276 OA
ATOM     29  N   UNL     1       0.378 -14.625  -3.896  0.00  0.00    -0.329 N 
ATOM     30  H   UNL     1       0.781 -14.574  -3.015  0.00  0.00    +0.145 HD
ATOM     31  H   UNL     1       0.822 -15.115  -4.605  0.00  0.00    +0.145 HD
ENDBRANCH  25  27
ENDBRANCH  17  19
ENDBRANCH   4  17
TORSDOF 8
