REMARK  Name = ZINC20557086
REMARK  8 active torsions:
REMARK  status: ('A' for Active; 'I' for Inactive)
REMARK    1  A    between atoms: C_1  and  C_2
REMARK    2  A    between atoms: C_2  and  N_3
REMARK    3  A    between atoms: N_3  and  C_4
REMARK    4  A    between atoms: N_3  and  C_29
REMARK    5  A    between atoms: C_4  and  C_5
REMARK    6  A    between atoms: C_5  and  N_6
REMARK    7  A    between atoms: C_7  and  C_9
REMARK    8  A    between atoms: C_29  and  C_30
REMARK                            x       y       z     vdW  Elec       q    Type
REMARK                         _______ _______ _______ _____ _____    ______ ____
ROOT
ATOM      1  C   UNL     1       0.857  -6.036   3.944  0.00  0.00    +0.078 C 
ATOM      2  C   UNL     1      -0.380  -6.672   3.304  0.00  0.00    +0.031 C 
ATOM      3  C   UNL     1      -0.252  -8.196   3.364  0.00  0.00    +0.107 C 
ATOM      4  N   UNL     1      -0.127  -8.624   4.763  0.00  0.00    -0.313 N 
ATOM      5  C   UNL     1       1.079  -8.063   5.384  0.00  0.00    +0.107 C 
ATOM      6  C   UNL     1       0.991  -6.536   5.385  0.00  0.00    +0.031 C 
ATOM      7  C   UNL     1      -0.141 -10.005   4.862  0.00  0.00    +0.152 A 
ATOM      8  C   UNL     1      -1.209 -10.753   4.338  0.00  0.00    +0.148 A 
ATOM      9  C   UNL     1      -1.164 -12.151   4.466  0.00  0.00    +0.166 A 
ATOM     10  N   UNL     1      -0.126 -12.711   5.079  0.00  0.00    -0.216 NA
ATOM     11  C   UNL     1       0.850 -11.970   5.559  0.00  0.00    +0.225 A 
ATOM     12  N   UNL     1       0.854 -10.653   5.460  0.00  0.00    -0.218 NA
ATOM     13  N   UNL     1      -2.313 -12.621   3.882  0.00  0.00    -0.312 N 
ATOM     14  C   UNL     1      -3.010 -11.544   3.418  0.00  0.00    +0.112 A 
ATOM     15  N   UNL     1      -2.355 -10.448   3.686  0.00  0.00    -0.227 NA
ATOM     16  C   UNL     1      -4.331 -11.614   2.690  0.00  0.00    +0.074 C 
ATOM     17  C   UNL     1      -5.279 -12.544   3.450  0.00  0.00    +0.008 C 
ATOM     18  C   UNL     1      -5.088 -13.977   2.965  0.00  0.00    +0.002 C 
ATOM     19  C   UNL     1      -3.629 -14.220   2.582  0.00  0.00    +0.022 C 
ATOM     20  C   UNL     1      -2.736 -14.023   3.809  0.00  0.00    +0.125 C 
ENDROOT
BRANCH   1  22
ATOM     21  N   UNL     1       0.576  -3.873   2.777  0.00  0.00    -0.317 N 
ATOM     22  C   UNL     1       0.709  -4.536   3.943  0.00  0.00    +0.216 C 
ATOM     23  O   UNL     1       0.711  -3.926   4.991  0.00  0.00    -0.276 OA
ATOM     24  H   UNL     1       0.574  -4.427   1.827  0.00  0.00    +0.149 HD
BRANCH  21  25
ATOM     25  C   UNL     1       0.432  -2.415   2.776  0.00  0.00    +0.085 C 
BRANCH  25  26
ATOM     26  C   UNL     1       0.298  -1.917   1.336  0.00  0.00    -0.059 C 
BRANCH  26  27
ATOM     27  N   UNL     1       0.161  -0.454   1.334  0.00  0.00    +0.383 N 
ATOM     28  H   UNL     1       0.926  -0.043   2.009  0.00  0.00    -0.081 HD
BRANCH  27  30
ATOM     29  C   UNL     1      -2.250  -0.621   0.941  0.00  0.00    -0.017 C 
ATOM     30  C   UNL     1      -1.155  -0.048   1.843  0.00  0.00    -0.082 C 
ENDBRANCH  27  30
BRANCH  27  31
ATOM     31  C   UNL     1       0.399   0.095  -0.007  0.00  0.00    -0.043 C 
BRANCH  31  32
ATOM     32  C   UNL     1       0.494   1.597   0.074  0.00  0.00    -0.064 A 
ATOM     33  C   UNL     1      -0.643   2.370  -0.069  0.00  0.00    +0.002 A 
ATOM     34  C   UNL     1      -0.556   3.747   0.011  0.00  0.00    +0.000 A 
ATOM     35  C   UNL     1       0.668   4.352   0.224  0.00  0.00    +0.000 A 
ATOM     36  C   UNL     1       1.806   3.579   0.362  0.00  0.00    +0.000 A 
ATOM     37  C   UNL     1       1.719   2.201   0.287  0.00  0.00    +0.002 A 
ENDBRANCH  31  32
ENDBRANCH  27  31
ENDBRANCH  26  27
ENDBRANCH  25  26
ENDBRANCH  21  25
ENDBRANCH   1  22
TORSDOF 7
