REMARK  Name = ZINC44360947
REMARK  8 active torsions:
REMARK  status: ('A' for Active; 'I' for Inactive)
REMARK    1  A    between atoms: C_1  and  C_2
REMARK    2  A    between atoms: C_2  and  O_3
REMARK    3  A    between atoms: O_3  and  C_4
REMARK    4  A    between atoms: C_4  and  C_6
REMARK    5  A    between atoms: C_6  and  C_8
REMARK    6  A    between atoms: C_6  and  N_26
REMARK    7  A    between atoms: C_8  and  C_9
REMARK    8  A    between atoms: C_10  and  C_19
REMARK                            x       y       z     vdW  Elec       q    Type
REMARK                         _______ _______ _______ _____ _____    ______ ____
ROOT
ATOM      1  C   UNL     1      -4.888  -2.899   1.172  0.00  0.00    +0.050 A 
ATOM      2  C   UNL     1      -5.979  -2.107   1.369  0.00  0.00    +0.093 A 
ATOM      3  N   UNL     1      -7.030  -2.896   1.643  0.00  0.00    -0.228 NA
ATOM      4  C   UNL     1      -6.638  -4.162   1.625  0.00  0.00    +0.139 A 
ATOM      5  N   UNL     1      -5.300  -4.194   1.326  0.00  0.00    -0.302 N 
ATOM      6  C   UNL     1      -4.639  -5.386   1.238  0.00  0.00    +0.113 A 
ATOM      7  C   UNL     1      -5.292  -6.551   1.440  0.00  0.00    +0.058 A 
ATOM      8  C   UNL     1      -6.665  -6.550   1.743  0.00  0.00    +0.025 A 
ATOM      9  C   UNL     1      -7.332  -5.369   1.843  0.00  0.00    +0.048 A 
ATOM     10 CL   UNL     1      -4.433  -8.055   1.322  0.00  0.00    -0.082 Cl
ENDROOT
BRANCH   2  11
ATOM     11  C   UNL     1      -6.001  -0.625   1.294  0.00  0.00    +0.002 A 
ATOM     12  C   UNL     1      -7.044   0.026   0.639  0.00  0.00    +0.011 A 
ATOM     13  C   UNL     1      -7.061   1.405   0.573  0.00  0.00    +0.020 A 
ATOM     14  C   UNL     1      -6.043   2.140   1.155  0.00  0.00    +0.041 A 
ATOM     15  C   UNL     1      -5.004   1.498   1.807  0.00  0.00    +0.020 A 
ATOM     16  C   UNL     1      -4.982   0.120   1.885  0.00  0.00    +0.011 A 
ATOM     17 CL   UNL     1      -6.068   3.874   1.067  0.00  0.00    -0.084 Cl
ENDBRANCH   2  11
BRANCH   1  18
ATOM     18  C   UNL     1      -3.493  -2.437   0.841  0.00  0.00    +0.051 C 
BRANCH  18  19
ATOM     19  C   UNL     1      -3.373  -2.220  -0.669  0.00  0.00    +0.042 C 
BRANCH  19  20
ATOM     20  N   UNL     1      -3.531  -3.506  -1.362  0.00  0.00    +0.387 N 
ATOM     21  H   UNL     1      -4.438  -3.893  -1.149  0.00  0.00    -0.089 HD
ATOM     22  H   UNL     1      -3.452  -3.363  -2.358  0.00  0.00    -0.089 HD
ATOM     23  H   UNL     1      -2.812  -4.144  -1.056  0.00  0.00    -0.089 HD
ENDBRANCH  19  20
BRANCH  19  24
ATOM     24  C   UNL     1      -2.019  -1.641  -0.988  0.00  0.00    +0.293 C 
ATOM     25  O   UNL     1      -1.136  -2.358  -1.398  0.00  0.00    -0.253 OA
BRANCH  24  26
ATOM     26  O   UNL     1      -1.792  -0.329  -0.815  0.00  0.00    -0.466 OA
BRANCH  26  28
ATOM     27  C   UNL     1      -0.418   1.658  -0.879  0.00  0.00    +0.048 C 
ATOM     28  C   UNL     1      -0.485   0.151  -1.137  0.00  0.00    +0.228 C 
ENDBRANCH  26  28
ENDBRANCH  24  26
ENDBRANCH  19  24
ENDBRANCH  18  19
ENDBRANCH   1  18
TORSDOF 7
