REMARK  Name = ZINC63486218
REMARK  8 active torsions:
REMARK  status: ('A' for Active; 'I' for Inactive)
REMARK    1  A    between atoms: C_1  and  C_2
REMARK    2  A    between atoms: C_7  and  O_16
REMARK    3  A    between atoms: C_13  and  C_15
REMARK    4  A    between atoms: O_16  and  C_17
REMARK    5  A    between atoms: C_17  and  C_18
REMARK    6  A    between atoms: N_20  and  C_21
REMARK    7  A    between atoms: C_21  and  C_22
REMARK    8  A    between atoms: C_22  and  C_23
REMARK                            x       y       z     vdW  Elec       q    Type
REMARK                         _______ _______ _______ _____ _____    ______ ____
ROOT
ATOM      1  C   UNL     1      -7.367  -2.426  -1.218  0.00  0.00    +0.251 C 
ATOM      2  O   UNL     1      -7.765  -2.777  -0.128  0.00  0.00    -0.272 OA
ATOM      3  N   UNL     1      -8.177  -2.511  -2.292  0.00  0.00    -0.312 N 
ATOM      4  H   UNL     1      -7.858  -2.230  -3.164  0.00  0.00    +0.149 HD
ENDROOT
BRANCH   1   5
ATOM      5  C   UNL     1      -5.965  -1.895  -1.373  0.00  0.00    +0.324 C 
BRANCH   5   6
ATOM      6  O   UNL     1      -5.309  -1.904  -0.103  0.00  0.00    -0.483 OA
BRANCH   6  12
ATOM      7  C   UNL     1      -0.019   1.526   0.010  0.00  0.00    +0.013 C 
ATOM      8  C   UNL     1       0.002  -0.004   0.002  0.00  0.00    +0.033 C 
ATOM      9  C   UNL     1      -1.413  -0.524   0.009  0.00  0.00    -0.001 A 
ATOM     10  C   UNL     1      -2.113  -0.549  -1.188  0.00  0.00    +0.011 A 
ATOM     11  C   UNL     1      -3.412  -1.010  -1.229  0.00  0.00    +0.046 A 
ATOM     12  C   UNL     1      -4.028  -1.453  -0.067  0.00  0.00    +0.125 A 
ATOM     13  C   UNL     1      -3.332  -1.432   1.131  0.00  0.00    +0.092 A 
ATOM     14  C   UNL     1      -2.021  -0.971   1.169  0.00  0.00    +0.139 A 
ATOM     15  O   UNL     1      -1.367  -0.986   2.362  0.00  0.00    -0.425 OA
ATOM     16  C   UNL     1      -0.179  -0.353   2.429  0.00  0.00    +0.316 C 
ATOM     17  O   UNL     1       0.133   0.308   3.392  0.00  0.00    -0.250 OA
ATOM     18  C   UNL     1       0.747  -0.510   1.241  0.00  0.00    +0.102 C 
ATOM     19  C   UNL     1       1.114  -1.984   1.061  0.00  0.00    +0.020 C 
ENDBRANCH   6  12
ENDBRANCH   5   6
ENDBRANCH   1   5
BRANCH   3  20
ATOM     20  C   UNL     1      -9.540  -3.027  -2.142  0.00  0.00    +0.108 C 
BRANCH  20  21
ATOM     21  C   UNL     1     -10.241  -3.018  -3.501  0.00  0.00    +0.052 C 
BRANCH  21  22
ATOM     22  C   UNL     1     -11.643  -3.549  -3.347  0.00  0.00    -0.040 C 
ATOM     23  C   UNL     1     -12.772  -2.825  -3.171  0.00  0.00    +0.000 A 
ATOM     24  C   UNL     1     -13.022  -1.382  -3.073  0.00  0.00    +0.030 A 
ATOM     25  C   UNL     1     -14.291  -0.946  -2.891  0.00  0.00    +0.042 A 
ATOM     26  C   UNL     1     -15.369  -1.838  -2.794  0.00  0.00    +0.022 A 
ATOM     27  C   UNL     1     -15.217  -3.177  -2.874  0.00  0.00    +0.027 A 
ATOM     28  C   UNL     1     -13.927  -3.744  -3.065  0.00  0.00    +0.043 A 
ATOM     29  N   UNL     1     -13.528  -4.988  -3.172  0.00  0.00    -0.380 N 
ATOM     30  C   UNL     1     -12.074  -4.998  -3.364  0.00  0.00    +0.144 C 
ATOM     31 CL   UNL     1     -14.591   0.759  -2.775  0.00  0.00    -0.084 Cl
ATOM     32  H   UNL     1     -14.100  -5.771  -3.134  0.00  0.00    +0.160 HD
ENDBRANCH  21  22
ENDBRANCH  20  21
ENDBRANCH   3  20
TORSDOF 6
