REMARK  Name = ZINC03328095
REMARK  10 active torsions:
REMARK  status: ('A' for Active; 'I' for Inactive)
REMARK    1  A    between atoms: C_1  and  C_2
REMARK    2  A    between atoms: C_2  and  N_3
REMARK    3  A    between atoms: C_4  and  C_38
REMARK    4  A    between atoms: C_10  and  C_12
REMARK    5  A    between atoms: N_14  and  N_15
REMARK    6  A    between atoms: C_16  and  C_18
REMARK    7  A    between atoms: C_21  and  C_24
REMARK    8  A    between atoms: C_24  and  O_25
REMARK    9  A    between atoms: O_25  and  C_26
REMARK   10  A    between atoms: C_30  and  C_37
REMARK                            x       y       z     vdW  Elec       q    Type
REMARK                         _______ _______ _______ _____ _____    ______ ____
ROOT
ATOM      1  N   UNL     1       2.333   4.249   0.002  0.00  0.00    -0.230 N 
ATOM      2  C   UNL     1       1.172   3.565   0.009  0.00  0.00    +0.260 C 
ATOM      3  O   UNL     1       0.114   4.164   0.022  0.00  0.00    -0.269 OA
ATOM      4  H   UNL     1       3.177   3.771  -0.008  0.00  0.00    +0.173 HD
ENDROOT
BRANCH   2   5
ATOM      5  C   UNL     1       1.184   2.087   0.002  0.00  0.00    +0.038 A 
ATOM      6  C   UNL     1      -0.017   1.375   0.010  0.00  0.00    +0.013 A 
ATOM      7  C   UNL     1       0.002  -0.004   0.002  0.00  0.00    +0.008 A 
ATOM      8  C   UNL     1       1.208  -0.682  -0.013  0.00  0.00    -0.010 A 
ATOM      9  C   UNL     1       2.402   0.016  -0.021  0.00  0.00    +0.008 A 
ATOM     10  C   UNL     1       2.397   1.396  -0.014  0.00  0.00    +0.013 A 
BRANCH   8  11
ATOM     11  C   UNL     1       1.221  -2.189  -0.020  0.00  0.00    +0.264 C 
BRANCH  11  12
ATOM     12  O   UNL     1       1.212  -2.659  -1.370  0.00  0.00    -0.487 OA
BRANCH  12  13
ATOM     13  C   UNL     1       1.222  -4.004  -1.555  0.00  0.00    +0.125 A 
ATOM     14  C   UNL     1       1.245  -4.853  -0.450  0.00  0.00    +0.046 A 
ATOM     15  C   UNL     1       1.250  -6.207  -0.619  0.00  0.00    +0.015 A 
ATOM     16  C   UNL     1       1.243  -6.747  -1.911  0.00  0.00    +0.021 A 
ATOM     17  C   UNL     1       1.253  -8.196  -2.122  0.00  0.00    -0.033 A 
ATOM     18  C   UNL     1       1.244  -8.658  -3.400  0.00  0.00    +0.096 A 
ATOM     19  C   UNL     1       1.226  -7.746  -4.475  0.00  0.00    +0.337 A 
ATOM     20  O   UNL     1       1.219  -8.174  -5.615  0.00  0.00    -0.245 OA
ATOM     21  O   UNL     1       1.217  -6.419  -4.274  0.00  0.00    -0.422 OA
ATOM     22  C   UNL     1       1.225  -5.894  -3.030  0.00  0.00    +0.143 A 
ATOM     23  C   UNL     1       1.214  -4.521  -2.840  0.00  0.00    +0.092 A 
ATOM     24  C   UNL     1       1.271  -9.148  -0.955  0.00  0.00    +0.045 C 
ENDBRANCH  12  13
ENDBRANCH  11  12
ENDBRANCH   8  11
ENDBRANCH   2   5
BRANCH   1  27
ATOM     25  C   UNL     1       3.483   6.333   0.002  0.00  0.00    +0.260 C 
ATOM     26  O   UNL     1       4.541   5.735  -0.011  0.00  0.00    -0.269 OA
ATOM     27  N   UNL     1       2.321   5.650   0.009  0.00  0.00    -0.230 N 
ATOM     28  H   UNL     1       1.477   6.128   0.020  0.00  0.00    +0.173 HD
BRANCH  25  36
ATOM     29  N   UNL     1       3.717  11.927   0.027  0.00  0.00    -0.328 N 
ATOM     30  C   UNL     1       5.073  12.039   0.015  0.00  0.00    +0.108 A 
ATOM     31  N   UNL     1       5.620  10.858   0.004  0.00  0.00    -0.233 NA
ATOM     32  C   UNL     1       4.649   9.908   0.009  0.00  0.00    +0.090 A 
ATOM     33  C   UNL     1       3.414  10.583   0.023  0.00  0.00    +0.069 A 
ATOM     34  C   UNL     1       2.225   9.863   0.030  0.00  0.00    +0.029 A 
ATOM     35  C   UNL     1       2.250   8.498   0.018  0.00  0.00    +0.015 A 
ATOM     36  C   UNL     1       3.470   7.810   0.009  0.00  0.00    +0.040 A 
ATOM     37  C   UNL     1       4.670   8.514   0.002  0.00  0.00    +0.043 A 
ATOM     38  C   UNL     1       5.832  13.341   0.015  0.00  0.00    +0.086 C 
BRANCH  29  40
ATOM     39  C   UNL     1       2.409  13.424  -1.397  0.00  0.00    +0.027 C 
ATOM     40  C   UNL     1       2.756  13.032   0.041  0.00  0.00    +0.120 C 
ENDBRANCH  29  40
ENDBRANCH  25  36
ENDBRANCH   1  27
TORSDOF 7
