REMARK  Name = ZINC20591761
REMARK  4 active torsions:
REMARK  status: ('A' for Active; 'I' for Inactive)
REMARK    1  A    between atoms: C_1  and  C_2
REMARK    2  A    between atoms: C_2  and  C_4
REMARK    3  A    between atoms: C_2  and  N_21
REMARK    4  A    between atoms: C_22  and  C_24
REMARK                            x       y       z     vdW  Elec       q    Type
REMARK                         _______ _______ _______ _____ _____    ______ ____
ROOT
ATOM      1  C   UNL     1      -1.420  -0.486   0.130  0.00  0.00    +0.236 C 
ATOM      2  O   UNL     1      -1.880  -1.245  -0.697  0.00  0.00    -0.274 OA
ATOM      3  N   UNL     1      -2.181  -0.075   1.163  0.00  0.00    -0.300 N 
ATOM      4  C   UNL     1      -1.679   0.932   2.108  0.00  0.00    +0.110 C 
ATOM      5  C   UNL     1      -2.694   2.076   2.195  0.00  0.00    +0.047 C 
ATOM      6  C   UNL     1      -4.069   1.509   2.550  0.00  0.00    +0.064 C 
ATOM      7  C   UNL     1      -4.524   0.536   1.461  0.00  0.00    +0.047 C 
ATOM      8  C   UNL     1      -3.531  -0.619   1.363  0.00  0.00    +0.110 C 
ATOM      9  C   UNL     1      -5.064   2.634   2.674  0.00  0.00    +0.057 A 
ATOM     10  C   UNL     1      -5.969   2.715   3.676  0.00  0.00    +0.039 A 
ATOM     11  N   UNL     1      -6.692   3.847   3.473  0.00  0.00    -0.349 N 
ATOM     12  H   UNL     1      -7.415   4.178   4.028  0.00  0.00    +0.166 HD
ATOM     13  C   UNL     1      -6.210   4.427   2.349  0.00  0.00    +0.171 A 
ATOM     14  N   UNL     1      -5.236   3.691   1.879  0.00  0.00    -0.348 N 
ATOM     15  C   UNL     1      -6.086   1.691   4.775  0.00  0.00    +0.070 C 
ATOM     16  C   UNL     1      -5.330   0.431   4.328  0.00  0.00    +0.088 C 
ATOM     17  N   UNL     1      -3.994   0.806   3.840  0.00  0.00    -0.305 NA
ATOM     18  H   UNL     1      -3.393  -0.002   3.778  0.00  0.00    +0.123 HD
ATOM     19  H   UNL     1      -4.721   3.883   1.080  0.00  0.00    +0.166 HD
ENDROOT
BRANCH   1  21
ATOM     20  C   UNL     1       0.023   1.329  -0.748  0.00  0.00    +0.038 C 
ATOM     21  C   UNL     1       0.002  -0.004   0.002  0.00  0.00    +0.156 C 
BRANCH  21  22
ATOM     22  N   UNL     1       0.789  -0.994  -0.738  0.00  0.00    -0.300 N 
ATOM     23  C   UNL     1       2.123  -1.063  -0.562  0.00  0.00    +0.245 C 
ATOM     24  O   UNL     1       2.674  -0.304   0.212  0.00  0.00    -0.270 OA
ATOM     25  H   UNL     1       0.349  -1.599  -1.356  0.00  0.00    +0.150 HD
BRANCH  23  26
ATOM     26  C   UNL     1       2.916  -2.061  -1.309  0.00  0.00    +0.037 A 
ATOM     27  C   UNL     1       2.286  -2.930  -2.202  0.00  0.00    +0.016 A 
ATOM     28  C   UNL     1       3.031  -3.859  -2.897  0.00  0.00    +0.039 A 
ATOM     29  C   UNL     1       4.403  -3.932  -2.708  0.00  0.00    +0.123 A 
ATOM     30  C   UNL     1       5.033  -3.072  -1.822  0.00  0.00    +0.039 A 
ATOM     31  C   UNL     1       4.299  -2.135  -1.127  0.00  0.00    +0.016 A 
ATOM     32  F   UNL     1       5.128  -4.846  -3.390  0.00  0.00    -0.205 F 
ENDBRANCH  23  26
ENDBRANCH  21  22
ENDBRANCH   1  21
TORSDOF 3
