REMARK  Name = ZINC08877062
REMARK  10 active torsions:
REMARK  status: ('A' for Active; 'I' for Inactive)
REMARK    1  A    between atoms: C_1  and  C_2
REMARK    2  A    between atoms: C_12  and  C_13
REMARK    3  A    between atoms: C_13  and  C_14
REMARK    4  A    between atoms: N_16  and  C_17
REMARK    5  A    between atoms: C_17  and  C_18
REMARK    6  A    between atoms: C_18  and  C_19
REMARK    7  A    between atoms: C_26  and  O_29
REMARK    8  A    between atoms: O_29  and  C_30
REMARK    9  A    between atoms: C_32  and  C_35
REMARK   10  A    between atoms: C_32  and  C_36
REMARK                            x       y       z     vdW  Elec       q    Type
REMARK                         _______ _______ _______ _____ _____    ______ ____
ROOT
ATOM      1  C   UNL     1      -4.989   3.796   0.080  0.00  0.00    +0.138 C 
ENDROOT
BRANCH   1  13
ATOM      2  C   UNL     1      -2.560   5.374   0.059  0.00  0.00    +0.045 C 
ATOM      3  C   UNL     1      -2.505   3.868   0.050  0.00  0.00    -0.029 A 
ATOM      4  C   UNL     1      -1.224   3.156   0.030  0.00  0.00    +0.021 A 
ATOM      5  C   UNL     1      -0.013   3.855   0.018  0.00  0.00    +0.019 A 
ATOM      6  C   UNL     1       1.174   3.175   0.003  0.00  0.00    -0.005 A 
ATOM      7  C   UNL     1       1.183   1.784   0.000  0.00  0.00    +0.128 A 
ATOM      8  C   UNL     1      -0.013   1.076   0.008  0.00  0.00    +0.093 A 
ATOM      9  C   UNL     1      -1.225   1.750   0.017  0.00  0.00    +0.143 A 
ATOM     10  O   UNL     1      -2.385   1.065   0.031  0.00  0.00    -0.422 OA
ATOM     11  C   UNL     1      -3.552   1.717   0.050  0.00  0.00    +0.341 A 
ATOM     12  O   UNL     1      -4.583   1.067   0.058  0.00  0.00    -0.245 OA
ATOM     13  C   UNL     1      -3.641   3.122   0.059  0.00  0.00    +0.049 A 
ATOM     14  O   UNL     1       2.344   1.079  -0.003  0.00  0.00    -0.486 OA
ATOM     15  C   UNL     1       3.539   1.762  -0.384  0.00  0.00    +0.105 C 
ATOM     16  C   UNL     1       3.622   3.072   0.410  0.00  0.00    +0.052 C 
ATOM     17  C   UNL     1       2.457   3.968  -0.017  0.00  0.00    +0.043 C 
ATOM     18  C   UNL     1       3.501   2.070  -1.882  0.00  0.00    +0.055 C 
ATOM     19  C   UNL     1       4.755   0.890  -0.068  0.00  0.00    +0.055 C 
ENDBRANCH   1  13
BRANCH   1  20
ATOM     20  C   UNL     1      -5.456   4.029  -1.334  0.00  0.00    +0.218 C 
ATOM     21  O   UNL     1      -4.762   3.682  -2.267  0.00  0.00    -0.275 OA
ATOM     22  N   UNL     1      -6.644   4.623  -1.563  0.00  0.00    -0.315 N 
ATOM     23  H   UNL     1      -7.198   4.901  -0.817  0.00  0.00    +0.149 HD
BRANCH  22  24
ATOM     24  C   UNL     1      -7.097   4.849  -2.937  0.00  0.00    +0.109 C 
BRANCH  24  25
ATOM     25  C   UNL     1      -8.466   5.533  -2.917  0.00  0.00    +0.056 C 
BRANCH  25  26
ATOM     26  C   UNL     1      -8.932   5.766  -4.330  0.00  0.00    -0.021 A 
ATOM     27  C   UNL     1      -8.777   6.890  -5.047  0.00  0.00    +0.087 A 
ATOM     28  N   UNL     1      -9.328   6.732  -6.289  0.00  0.00    -0.360 N 
ATOM     29  H   UNL     1      -9.339   7.407  -6.985  0.00  0.00    +0.165 HD
ATOM     30  C   UNL     1      -9.866   5.467  -6.405  0.00  0.00    +0.047 A 
ATOM     31  C   UNL     1      -9.635   4.806  -5.185  0.00  0.00    +0.006 A 
ATOM     32  C   UNL     1     -10.083   3.496  -5.005  0.00  0.00    +0.056 A 
ATOM     33  C   UNL     1     -10.739   2.852  -6.036  0.00  0.00    +0.121 A 
ATOM     34  C   UNL     1     -10.960   3.507  -7.245  0.00  0.00    +0.047 A 
ATOM     35  C   UNL     1     -10.529   4.801  -7.430  0.00  0.00    +0.030 A 
BRANCH  33  36
ATOM     36  O   UNL     1     -11.172   1.573  -5.869  0.00  0.00    -0.495 OA
ATOM     37  C   UNL     1     -11.844   0.967  -6.975  0.00  0.00    +0.277 C 
ENDBRANCH  33  36
ENDBRANCH  25  26
ENDBRANCH  24  25
ENDBRANCH  22  24
ENDBRANCH   1  20
TORSDOF 6
