REMARK  Name = ZINC61759667
REMARK  6 active torsions:
REMARK  status: ('A' for Active; 'I' for Inactive)
REMARK    1  A    between atoms: C_1  and  C_2
REMARK    2  A    between atoms: C_2  and  C_3
REMARK    3  A    between atoms: C_2  and  C_4
REMARK    4  A    between atoms: C_2  and  N_5
REMARK    5  A    between atoms: C_16  and  C_19
REMARK    6  A    between atoms: C_19  and  N_20
REMARK                            x       y       z     vdW  Elec       q    Type
REMARK                         _______ _______ _______ _____ _____    ______ ____
ROOT
ATOM      1  N   UNL     1       0.707  -0.530  -1.173  0.00  0.00    -0.306 N 
ATOM      2  C   UNL     1       0.034  -1.260  -2.107  0.00  0.00    +0.107 A 
ATOM      3  C   UNL     1       0.639  -1.650  -3.249  0.00  0.00    +0.102 A 
ATOM      4  N   UNL     1       1.909  -1.341  -3.511  0.00  0.00    -0.344 N 
ATOM      5  C   UNL     1       2.620  -0.639  -2.655  0.00  0.00    +0.165 A 
ATOM      6  C   UNL     1       1.995  -0.192  -1.405  0.00  0.00    +0.290 A 
ATOM      7  O   UNL     1       2.624   0.465  -0.593  0.00  0.00    -0.264 OA
ATOM      8  N   UNL     1       3.943  -0.321  -2.933  0.00  0.00    -0.308 N 
ATOM      9  C   UNL     1       4.696   0.606  -2.074  0.00  0.00    +0.134 C 
ATOM     10  C   UNL     1       5.346   1.671  -2.964  0.00  0.00    +0.179 C 
ATOM     11  O   UNL     1       6.086   1.028  -4.005  0.00  0.00    -0.375 OA
ATOM     12  C   UNL     1       5.286   0.238  -4.888  0.00  0.00    +0.118 C 
ATOM     13  C   UNL     1       4.635  -0.905  -4.093  0.00  0.00    +0.136 C 
ATOM     14  H   UNL     1       2.314  -1.638  -4.341  0.00  0.00    +0.167 HD
ENDROOT
BRANCH   1  16
ATOM     15  C   UNL     1       0.036   1.417   0.147  0.00  0.00    +0.034 C 
ATOM     16  C   UNL     1       0.041  -0.111   0.062  0.00  0.00    +0.040 C 
ATOM     17  C   UNL     1       0.789  -0.687   1.266  0.00  0.00    +0.034 C 
ATOM     18  C   UNL     1      -1.400  -0.626   0.064  0.00  0.00    +0.034 C 
ENDBRANCH   1  16
BRANCH  12  19
ATOM     19  C   UNL     1       6.170  -0.347  -5.992  0.00  0.00    -0.053 C 
BRANCH  19  20
ATOM     20  N   UNL     1       6.799   0.745  -6.746  0.00  0.00    +0.380 N 
ATOM     21  H   UNL     1       7.364   1.302  -6.123  0.00  0.00    -0.090 HD
ATOM     22  H   UNL     1       7.382   0.359  -7.474  0.00  0.00    -0.090 HD
ATOM     23  H   UNL     1       6.084   1.324  -7.160  0.00  0.00    -0.090 HD
ENDBRANCH  19  20
ENDBRANCH  12  19
TORSDOF 3
