REMARK  Name = ZINC12752700
REMARK  7 active torsions:
REMARK  status: ('A' for Active; 'I' for Inactive)
REMARK    1  A    between atoms: C_1  and  C_2
REMARK    2  A    between atoms: C_2  and  C_3
REMARK    3  A    between atoms: C_6  and  C_9
REMARK    4  A    between atoms: C_11  and  C_14
REMARK    5  A    between atoms: C_14  and  N_15
REMARK    6  A    between atoms: C_18  and  C_23
REMARK    7  A    between atoms: C_23  and  C_24
REMARK                            x       y       z     vdW  Elec       q    Type
REMARK                         _______ _______ _______ _____ _____    ______ ____
ROOT
ATOM      1  N   UNL     1      -1.644   2.503  -1.357  0.00  0.00    -0.215 N 
ATOM      2  C   UNL     1      -1.207   3.562  -2.066  0.00  0.00    +0.244 C 
ATOM      3  O   UNL     1      -0.435   4.421  -1.698  0.00  0.00    -0.273 OA
ATOM      4  C   UNL     1      -1.881   3.455  -3.420  0.00  0.00    +0.165 C 
ATOM      5  N   UNL     1      -2.702   2.238  -3.303  0.00  0.00    -0.287 N 
ATOM      6  C   UNL     1      -2.497   1.753  -2.065  0.00  0.00    +0.310 C 
ATOM      7  O   UNL     1      -3.028   0.747  -1.637  0.00  0.00    -0.252 OA
ATOM      8  H   UNL     1      -3.277   1.859  -3.986  0.00  0.00    +0.151 HD
ENDROOT
BRANCH   1   9
ATOM      9  C   UNL     1      -1.240   2.211   0.020  0.00  0.00    +0.216 C 
BRANCH   9  12
ATOM     10  C   UNL     1       1.976   0.607  -0.013  0.00  0.00    +0.202 A 
ATOM     11  N   UNL     1       1.230   1.735  -0.000  0.00  0.00    -0.190 NA
ATOM     12  C   UNL     1      -0.016   1.333   0.009  0.00  0.00    +0.246 A 
ATOM     13  O   UNL     1       0.002  -0.004   0.002  0.00  0.00    -0.336 OA
ATOM     14  N   UNL     1       1.147  -0.404  -0.011  0.00  0.00    -0.056 NA
BRANCH  10  18
ATOM     15  C   UNL     1       6.223   0.390  -0.054  0.00  0.00    -0.048 A 
ATOM     16  C   UNL     1       5.473  -0.773  -0.052  0.00  0.00    +0.004 A 
ATOM     17  C   UNL     1       4.095  -0.708  -0.039  0.00  0.00    +0.012 A 
ATOM     18  C   UNL     1       3.458   0.531  -0.028  0.00  0.00    +0.022 A 
ATOM     19  C   UNL     1       4.218   1.699  -0.035  0.00  0.00    +0.012 A 
ATOM     20  C   UNL     1       5.596   1.623  -0.043  0.00  0.00    +0.004 A 
BRANCH  15  22
ATOM     21  C   UNL     1       8.224   0.293  -1.516  0.00  0.00    +0.009 C 
ATOM     22  C   UNL     1       7.728   0.313  -0.069  0.00  0.00    +0.032 C 
ENDBRANCH  15  22
ENDBRANCH  10  18
ENDBRANCH   9  12
ENDBRANCH   1   9
BRANCH   4  23
ATOM     23  C   UNL     1      -2.764   4.678  -3.675  0.00  0.00    +0.069 C 
BRANCH  23  24
ATOM     24  C   UNL     1      -3.412   4.556  -5.030  0.00  0.00    -0.020 A 
ATOM     25  C   UNL     1      -2.964   5.084  -6.180  0.00  0.00    +0.087 A 
ATOM     26  N   UNL     1      -3.814   4.763  -7.203  0.00  0.00    -0.360 N 
ATOM     27  H   UNL     1      -3.699   5.032  -8.128  0.00  0.00    +0.165 HD
ATOM     28  C   UNL     1      -4.856   4.002  -6.725  0.00  0.00    +0.047 A 
ATOM     29  C   UNL     1      -4.647   3.834  -5.343  0.00  0.00    +0.003 A 
ATOM     30  C   UNL     1      -5.561   3.100  -4.585  0.00  0.00    +0.010 A 
ATOM     31  C   UNL     1      -6.650   2.539  -5.192  0.00  0.00    +0.001 A 
ATOM     32  C   UNL     1      -6.857   2.697  -6.555  0.00  0.00    +0.002 A 
ATOM     33  C   UNL     1      -5.971   3.422  -7.321  0.00  0.00    +0.026 A 
ENDBRANCH  23  24
ENDBRANCH   4  23
TORSDOF 6
