REMARK  Name = ZINC12871116
REMARK  10 active torsions:
REMARK  status: ('A' for Active; 'I' for Inactive)
REMARK    1  A    between atoms: C_1  and  C_2
REMARK    2  A    between atoms: C_7  and  N_8
REMARK    3  A    between atoms: N_8  and  C_9
REMARK    4  A    between atoms: C_9  and  C_11
REMARK    5  A    between atoms: C_9  and  C_17
REMARK    6  A    between atoms: N_19  and  C_20
REMARK    7  A    between atoms: C_20  and  C_21
REMARK    8  A    between atoms: C_20  and  C_22
REMARK    9  A    between atoms: C_20  and  C_23
REMARK   10  A    between atoms: C_24  and  C_26
REMARK                            x       y       z     vdW  Elec       q    Type
REMARK                         _______ _______ _______ _____ _____    ______ ____
ROOT
ATOM      1  N   UNL     1       1.601   3.897  -0.603  0.00  0.00    -0.250 N 
ATOM      2  C   UNL     1       1.155   2.627  -0.680  0.00  0.00    +0.272 C 
ATOM      3  O   UNL     1       1.823   1.781  -1.244  0.00  0.00    -0.268 OA
ENDROOT
BRANCH   1  10
ATOM      4  C   UNL     1      -0.281   5.520  -1.987  0.00  0.00    +0.045 C 
ATOM      5  C   UNL     1      -0.045   5.661  -0.505  0.00  0.00    -0.029 A 
ATOM      6  C   UNL     1      -0.752   6.599   0.222  0.00  0.00    +0.006 A 
ATOM      7  C   UNL     1      -0.532   6.732   1.580  0.00  0.00    +0.020 A 
ATOM      8  C   UNL     1       0.389   5.919   2.218  0.00  0.00    +0.043 A 
ATOM      9  C   UNL     1       1.099   4.979   1.496  0.00  0.00    +0.043 A 
ATOM     10  C   UNL     1       0.884   4.847   0.131  0.00  0.00    +0.042 A 
ATOM     11 CL   UNL     1       0.656   6.085   3.926  0.00  0.00    -0.083 Cl
ENDBRANCH   1  10
BRANCH   2  12
ATOM     12  C   UNL     1      -0.143   2.265  -0.082  0.00  0.00    +0.157 A 
ATOM     13  C   UNL     1      -0.669   0.982  -0.121  0.00  0.00    +0.101 A 
ATOM     14  S   UNL     1      -2.162   1.211   0.728  0.00  0.00    +0.029 S 
ATOM     15  N   UNL     1      -2.044   2.752   1.046  0.00  0.00    -0.110 NA
ATOM     16  N   UNL     1      -0.922   3.132   0.552  0.00  0.00    -0.136 NA
ENDBRANCH   2  12
BRANCH   1  17
ATOM     17  C   UNL     1       2.838   4.281  -1.288  0.00  0.00    +0.198 C 
BRANCH  17  18
ATOM     18  C   UNL     1       4.014   3.635  -0.602  0.00  0.00    -0.018 A 
ATOM     19  C   UNL     1       4.149   3.728   0.771  0.00  0.00    +0.006 A 
ATOM     20  C   UNL     1       5.225   3.131   1.401  0.00  0.00    +0.000 A 
ATOM     21  C   UNL     1       6.172   2.451   0.657  0.00  0.00    +0.000 A 
ATOM     22  C   UNL     1       6.039   2.363  -0.716  0.00  0.00    +0.000 A 
ATOM     23  C   UNL     1       4.961   2.956  -1.345  0.00  0.00    +0.006 A 
ENDBRANCH  17  18
BRANCH  17  24
ATOM     24  C   UNL     1       2.992   5.780  -1.244  0.00  0.00    +0.239 C 
ATOM     25  O   UNL     1       2.747   6.385  -0.222  0.00  0.00    -0.273 OA
ATOM     26  N   UNL     1       3.401   6.448  -2.341  0.00  0.00    -0.309 N 
ATOM     27  H   UNL     1       3.597   5.964  -3.158  0.00  0.00    +0.149 HD
BRANCH  26  28
ATOM     28  C   UNL     1       3.551   7.905  -2.298  0.00  0.00    +0.026 C 
ATOM     29  C   UNL     1       4.580   8.280  -1.230  0.00  0.00    +0.031 C 
ATOM     30  C   UNL     1       4.024   8.409  -3.662  0.00  0.00    +0.031 C 
ATOM     31  C   UNL     1       2.204   8.546  -1.956  0.00  0.00    +0.031 C 
ENDBRANCH  26  28
ENDBRANCH  17  24
ENDBRANCH   1  17
TORSDOF 6
