REMARK  Name = ZINC53631725
REMARK  8 active torsions:
REMARK  status: ('A' for Active; 'I' for Inactive)
REMARK    1  A    between atoms: C_1  and  C_2
REMARK    2  A    between atoms: C_2  and  C_3
REMARK    3  A    between atoms: C_3  and  N_21
REMARK    4  A    between atoms: C_5  and  C_20
REMARK    5  A    between atoms: N_7  and  C_10
REMARK    6  A    between atoms: N_21  and  C_22
REMARK    7  A    between atoms: C_22  and  C_23
REMARK    8  A    between atoms: C_23  and  C_24
REMARK                            x       y       z     vdW  Elec       q    Type
REMARK                         _______ _______ _______ _____ _____    ______ ____
ROOT
ATOM      1  C   UNL     1       0.677  -0.860  -1.155  0.00  0.00    +0.018 C 
ATOM      2  C   UNL     1       2.061  -0.877  -1.179  0.00  0.00    +0.078 C 
ATOM      3  C   UNL     1       2.979  -0.612  -0.061  0.00  0.00    +0.070 C 
ATOM      4  N   UNL     1       4.190  -0.732  -0.512  0.00  0.00    -0.179 NA
ATOM      5  N   UNL     1       4.196  -1.063  -1.867  0.00  0.00    -0.158 N 
ATOM      6  C   UNL     1       2.932  -1.169  -2.324  0.00  0.00    +0.271 C 
ATOM      7  O   UNL     1       2.583  -1.450  -3.458  0.00  0.00    -0.268 OA
ATOM      8  C   UNL     1       2.585  -0.264   1.351  0.00  0.00    +0.068 C 
ENDROOT
BRANCH   5   9
ATOM      9  C   UNL     1       5.401  -1.270  -2.674  0.00  0.00    +0.249 C 
ATOM     10  N   UNL     1       6.275  -0.089  -2.632  0.00  0.00    -0.315 N 
ATOM     11  C   UNL     1       7.550  -0.250  -2.091  0.00  0.00    +0.043 A 
ATOM     12  C   UNL     1       8.520   0.761  -1.969  0.00  0.00    +0.024 A 
ATOM     13  C   UNL     1       9.754   0.500  -1.419  0.00  0.00    +0.002 A 
ATOM     14  C   UNL     1      10.082  -0.764  -0.967  0.00  0.00    +0.001 A 
ATOM     15  C   UNL     1       9.146  -1.779  -1.075  0.00  0.00    +0.016 A 
ATOM     16  C   UNL     1       7.912  -1.518  -1.626  0.00  0.00    +0.032 A 
ATOM     17  S   UNL     1       6.489  -2.546  -1.923  0.00  0.00    -0.080 S 
ATOM     18  H   UNL     1       5.976   0.770  -2.969  0.00  0.00    +0.149 HD
ENDBRANCH   5   9
BRANCH   1  20
ATOM     19  C   UNL     1      -0.403   0.819   0.317  0.00  0.00    +0.010 C 
ATOM     20  C   UNL     1      -0.052  -0.661   0.148  0.00  0.00    +0.048 C 
ENDBRANCH   1  20
BRANCH   1  21
ATOM     21  N   UNL     1      -0.019  -1.020  -2.299  0.00  0.00    -0.346 N 
ATOM     22  H   UNL     1       0.450  -1.148  -3.139  0.00  0.00    +0.146 HD
BRANCH  21  23
ATOM     23  C   UNL     1      -1.484  -1.002  -2.274  0.00  0.00    +0.107 C 
BRANCH  23  24
ATOM     24  C   UNL     1      -2.021  -1.205  -3.693  0.00  0.00    +0.073 C 
BRANCH  24  25
ATOM     25  C   UNL     1      -3.527  -1.186  -3.667  0.00  0.00    +0.035 A 
ATOM     26  H   UNL     1      -6.397   0.036  -3.688  0.00  0.00    +0.166 HD
ATOM     27  C   UNL     1      -4.306  -0.089  -3.717  0.00  0.00    +0.105 A 
ATOM     28  N   UNL     1      -5.604  -0.521  -3.670  0.00  0.00    -0.352 N 
ATOM     29  C   UNL     1      -5.573  -1.869  -3.593  0.00  0.00    +0.171 A 
ATOM     30  N   UNL     1      -4.328  -2.260  -3.596  0.00  0.00    -0.350 N 
ATOM     31  H   UNL     1      -4.028  -3.182  -3.553  0.00  0.00    +0.166 HD
ENDBRANCH  24  25
ENDBRANCH  23  24
ENDBRANCH  21  23
ENDBRANCH   1  21
TORSDOF 6
