REMARK  Name = ZINC13118055
REMARK  7 active torsions:
REMARK  status: ('A' for Active; 'I' for Inactive)
REMARK    1  A    between atoms: C_1  and  C_2
REMARK    2  A    between atoms: C_2  and  C_3
REMARK    3  A    between atoms: C_3  and  C_23
REMARK    4  A    between atoms: N_6  and  C_10
REMARK    5  A    between atoms: C_10  and  C_11
REMARK    6  A    between atoms: C_15  and  C_22
REMARK    7  A    between atoms: C_18  and  C_21
REMARK                            x       y       z     vdW  Elec       q    Type
REMARK                         _______ _______ _______ _____ _____    ______ ____
ROOT
ATOM      1  C   UNL     1      -2.553   3.868   0.048  0.00  0.00    +0.138 C 
ATOM      2  C   UNL     1      -2.971   4.246  -1.359  0.00  0.00    +0.251 C 
ATOM      3  O   UNL     1      -3.202   3.493  -2.282  0.00  0.00    -0.272 OA
ATOM      4  N   UNL     1      -3.030   5.592  -1.373  0.00  0.00    -0.215 N 
ATOM      5  C   UNL     1      -2.712   6.112  -0.182  0.00  0.00    +0.310 C 
ATOM      6  O   UNL     1      -2.694   7.304   0.052  0.00  0.00    -0.252 OA
ATOM      7  N   UNL     1      -2.413   5.167   0.728  0.00  0.00    -0.281 N 
ATOM      8  H   UNL     1      -2.112   5.205   1.785  0.00  0.00    +0.152 HD
ENDROOT
BRANCH   1   9
ATOM      9  C   UNL     1      -1.238   3.133   0.031  0.00  0.00    -0.015 A 
ATOM     10  C   UNL     1      -1.218   1.751   0.017  0.00  0.00    +0.009 A 
ATOM     11  C   UNL     1      -0.013   1.076   0.008  0.00  0.00    +0.039 A 
ATOM     12  C   UNL     1       1.177   1.785   0.000  0.00  0.00    +0.123 A 
ATOM     13  C   UNL     1       1.157   3.169   0.008  0.00  0.00    +0.039 A 
ATOM     14  C   UNL     1      -0.051   3.842   0.023  0.00  0.00    +0.009 A 
ATOM     15  F   UNL     1       2.356   1.126  -0.015  0.00  0.00    -0.205 F 
ENDBRANCH   1   9
BRANCH   1  17
ATOM     16  C   UNL     1      -4.956   3.788   0.727  0.00  0.00    +0.007 C 
ATOM     17  C   UNL     1      -3.633   3.020   0.724  0.00  0.00    +0.037 C 
ENDBRANCH   1  17
BRANCH   4  18
ATOM     18  C   UNL     1      -3.399   6.388  -2.546  0.00  0.00    +0.213 C 
BRANCH  18  19
ATOM     19  C   UNL     1      -2.160   6.718  -3.339  0.00  0.00    +0.234 C 
ATOM     20  O   UNL     1      -1.077   6.326  -2.961  0.00  0.00    -0.274 OA
ATOM     21  N   UNL     1      -2.257   7.447  -4.468  0.00  0.00    -0.295 N 
ATOM     22  C   UNL     1      -3.562   7.928  -4.949  0.00  0.00    +0.139 C 
ATOM     23  C   UNL     1      -3.444   9.435  -5.229  0.00  0.00    +0.133 C 
ATOM     24  O   UNL     1      -2.326   9.666  -6.090  0.00  0.00    -0.371 OA
ATOM     25  C   UNL     1      -1.067   9.291  -5.527  0.00  0.00    +0.133 C 
ATOM     26  C   UNL     1      -1.062   7.782  -5.259  0.00  0.00    +0.139 C 
ATOM     27  C   UNL     1       0.055   9.639  -6.507  0.00  0.00    +0.039 C 
ATOM     28  C   UNL     1      -4.723   9.928  -5.910  0.00  0.00    +0.039 C 
ENDBRANCH  18  19
ENDBRANCH   4  18
TORSDOF 4
