REMARK  Name = ZINC36206454
REMARK  14 active torsions:
REMARK  status: ('A' for Active; 'I' for Inactive)
REMARK    1  A    between atoms: C_1  and  C_2
REMARK    2  A    between atoms: C_5  and  C_9
REMARK    3  A    between atoms: C_6  and  C_8
REMARK    4  A    between atoms: C_18  and  C_20
REMARK    5  A    between atoms: C_20  and  N_21
REMARK    6  A    between atoms: N_21  and  C_22
REMARK    7  A    between atoms: N_21  and  C_29
REMARK    8  A    between atoms: C_22  and  C_23
REMARK    9  A    between atoms: C_23  and  C_25
REMARK   10  A    between atoms: C_23  and  O_28
REMARK   11  A    between atoms: C_25  and  C_26
REMARK   12  A    between atoms: C_25  and  C_27
REMARK   13  A    between atoms: C_29  and  C_30
REMARK   14  A    between atoms: C_29  and  C_31
REMARK                            x       y       z     vdW  Elec       q    Type
REMARK                         _______ _______ _______ _____ _____    ______ ____
ROOT
ATOM      1  C   UNL     1      -0.500  -4.633  -1.442  0.00  0.00    +0.004 A 
ATOM      2  C   UNL     1       0.457  -5.409  -2.007  0.00  0.00    +0.056 A 
ATOM      3  S   UNL     1       0.013  -7.055  -1.486  0.00  0.00    -0.076 S 
ATOM      4  C   UNL     1      -1.433  -6.667  -0.533  0.00  0.00    +0.116 A 
ATOM      5  C   UNL     1      -1.534  -5.270  -0.635  0.00  0.00    +0.080 A 
ATOM      6  C   UNL     1      -2.635  -4.675   0.060  0.00  0.00    +0.260 A 
ATOM      7  O   UNL     1      -2.809  -3.469   0.026  0.00  0.00    -0.267 OA
ATOM      8  N   UNL     1      -3.475  -5.468   0.751  0.00  0.00    -0.312 N 
ATOM      9  H   UNL     1      -4.223  -5.071   1.224  0.00  0.00    +0.170 HD
ATOM     10  C   UNL     1      -3.296  -6.813   0.798  0.00  0.00    +0.094 A 
ATOM     11  N   UNL     1      -2.307  -7.386   0.166  0.00  0.00    -0.229 NA
ENDROOT
BRANCH   1  16
ATOM     12  C   UNL     1      -0.471   1.075  -2.199  0.00  0.00    +0.044 C 
ATOM     13  C   UNL     1      -0.479  -0.419  -2.001  0.00  0.00    -0.050 A 
ATOM     14  C   UNL     1      -0.687  -1.256  -3.082  0.00  0.00    +0.004 A 
ATOM     15  C   UNL     1      -0.695  -2.625  -2.907  0.00  0.00    +0.009 A 
ATOM     16  C   UNL     1      -0.492  -3.163  -1.637  0.00  0.00    -0.014 A 
ATOM     17  C   UNL     1      -0.283  -2.315  -0.551  0.00  0.00    -0.042 A 
ATOM     18  C   UNL     1      -0.272  -0.948  -0.739  0.00  0.00    +0.007 A 
ATOM     19  C   UNL     1      -0.064  -2.889   0.825  0.00  0.00    +0.044 C 
ENDBRANCH   1  16
BRANCH  10  20
ATOM     20  C   UNL     1      -4.263  -7.662   1.584  0.00  0.00    -0.003 C 
BRANCH  20  21
ATOM     21  N   UNL     1      -3.777  -9.047   1.625  0.00  0.00    +0.388 N 
ATOM     22  H   UNL     1      -3.339  -9.276   0.745  0.00  0.00    -0.081 HD
BRANCH  21  23
ATOM     23  C   UNL     1      -2.798  -9.191   2.711  0.00  0.00    -0.074 C 
ATOM     24  C   UNL     1      -1.664  -8.185   2.512  0.00  0.00    -0.014 C 
ATOM     25  C   UNL     1      -3.484  -8.929   4.053  0.00  0.00    -0.014 C 
ENDBRANCH  21  23
BRANCH  21  26
ATOM     26  C   UNL     1      -4.907  -9.956   1.860  0.00  0.00    -0.046 C 
BRANCH  26  27
ATOM     27  C   UNL     1      -4.436 -11.404   1.717  0.00  0.00    +0.101 C 
BRANCH  27  28
ATOM     28  C   UNL     1      -5.643 -12.342   1.783  0.00  0.00    +0.010 C 
ATOM     29  C   UNL     1      -6.612 -12.007   0.647  0.00  0.00    +0.010 C 
ATOM     30  C   UNL     1      -5.172 -13.791   1.640  0.00  0.00    +0.010 C 
ENDBRANCH  27  28
BRANCH  27  31
ATOM     31  O   UNL     1      -3.531 -11.717   2.778  0.00  0.00    -0.393 OA
ATOM     32  H   UNL     1      -3.935 -11.704   3.657  0.00  0.00    +0.210 HD
ENDBRANCH  27  31
ENDBRANCH  26  27
ENDBRANCH  21  26
ENDBRANCH  20  21
ENDBRANCH  10  20
TORSDOF 8
