REMARK  Name = ZINC16256149
REMARK  7 active torsions:
REMARK  status: ('A' for Active; 'I' for Inactive)
REMARK    1  A    between atoms: C_1  and  C_2
REMARK    2  A    between atoms: C_2  and  C_4
REMARK    3  A    between atoms: C_2  and  N_14
REMARK    4  A    between atoms: C_15  and  C_17
REMARK    5  A    between atoms: C_17  and  N_18
REMARK    6  A    between atoms: C_21  and  C_25
REMARK    7  A    between atoms: C_21  and  C_26
REMARK                            x       y       z     vdW  Elec       q    Type
REMARK                         _______ _______ _______ _____ _____    ______ ____
ROOT
ATOM      1  C   UNL     1       3.359   6.808  -2.834  0.00  0.00    +0.213 C 
ENDROOT
BRANCH   1   2
ATOM      2  N   UNL     1       3.169   5.778  -1.810  0.00  0.00    -0.215 N 
ATOM      3  C   UNL     1       2.293   5.876  -0.791  0.00  0.00    +0.251 C 
ATOM      4  O   UNL     1       1.542   6.799  -0.557  0.00  0.00    -0.272 OA
ATOM      5  C   UNL     1       2.442   4.593   0.003  0.00  0.00    +0.135 C 
ATOM      6  N   UNL     1       3.482   3.852  -0.731  0.00  0.00    -0.281 N 
ATOM      7  C   UNL     1       3.844   4.623  -1.772  0.00  0.00    +0.310 C 
ATOM      8  O   UNL     1       4.689   4.307  -2.586  0.00  0.00    -0.252 OA
ATOM      9  C   UNL     1       2.900   4.890   1.432  0.00  0.00    +0.047 C 
ATOM     10  H   UNL     1       3.837   2.977  -0.507  0.00  0.00    +0.152 HD
BRANCH   5  11
ATOM     11  C   UNL     1       1.148   3.822   0.011  0.00  0.00    -0.014 A 
ATOM     12  C   UNL     1      -0.059   4.497   0.026  0.00  0.00    +0.008 A 
ATOM     13  C   UNL     1      -1.247   3.791   0.034  0.00  0.00    +0.022 A 
ATOM     14  C   UNL     1      -1.230   2.408   0.021  0.00  0.00    +0.059 A 
ATOM     15  C   UNL     1      -0.021   1.732   0.012  0.00  0.00    +0.060 A 
ATOM     16  C   UNL     1       1.167   2.440   0.004  0.00  0.00    +0.027 A 
ATOM     17 CL   UNL     1       0.002  -0.004   0.002  0.00  0.00    -0.082 Cl
ATOM     18 CL   UNL     1      -2.722   1.521   0.023  0.00  0.00    -0.082 Cl
ENDBRANCH   5  11
ENDBRANCH   1   2
BRANCH   1  20
ATOM     19  N   UNL     1       2.421   7.375  -5.052  0.00  0.00    -0.307 N 
ATOM     20  C   UNL     1       2.423   6.549  -3.987  0.00  0.00    +0.231 C 
ATOM     21  O   UNL     1       1.671   5.598  -3.955  0.00  0.00    -0.274 OA
ATOM     22  H   UNL     1       3.022   8.136  -5.077  0.00  0.00    +0.149 HD
BRANCH  19  24
ATOM     23  C   UNL     1       2.151   6.122  -7.135  0.00  0.00    +0.033 C 
ATOM     24  C   UNL     1       1.510   7.123  -6.172  0.00  0.00    +0.100 C 
BRANCH  24  25
ATOM     25  C   UNL     1       1.239   8.415  -6.899  0.00  0.00    -0.024 A 
ATOM     26  C   UNL     1       2.264   9.320  -7.104  0.00  0.00    +0.009 A 
ATOM     27  C   UNL     1       2.019  10.506  -7.769  0.00  0.00    +0.050 A 
ATOM     28  C   UNL     1       0.743  10.792  -8.233  0.00  0.00    +0.162 A 
ATOM     29  C   UNL     1      -0.287   9.882  -8.028  0.00  0.00    +0.162 A 
ATOM     30  C   UNL     1      -0.033   8.691  -7.364  0.00  0.00    +0.055 A 
ATOM     31  O   UNL     1      -1.545  10.140  -8.479  0.00  0.00    -0.485 OA
ATOM     32  C   UNL     1      -1.842  11.501  -8.812  0.00  0.00    +0.270 C 
ATOM     33  C   UNL     1      -0.685  12.052  -9.656  0.00  0.00    +0.270 C 
ATOM     34  O   UNL     1       0.516  11.967  -8.882  0.00  0.00    -0.485 OA
ENDBRANCH  24  25
ENDBRANCH  19  24
ENDBRANCH   1  20
TORSDOF 5
