REMARK  Name = ZINC42421553
REMARK  6 active torsions:
REMARK  status: ('A' for Active; 'I' for Inactive)
REMARK    1  A    between atoms: C_1  and  C_2
REMARK    2  A    between atoms: C_2  and  O_3
REMARK    3  A    between atoms: O_3  and  C_4
REMARK    4  A    between atoms: N_9  and  C_11
REMARK    5  A    between atoms: C_11  and  C_19
REMARK    6  A    between atoms: C_19  and  N_20
REMARK                            x       y       z     vdW  Elec       q    Type
REMARK                         _______ _______ _______ _____ _____    ______ ____
ROOT
ATOM      1  C   UNL     1      -4.018  -4.218  -1.458  0.00  0.00    -0.079 C 
ATOM      2  C   UNL     1      -5.251  -3.606  -0.800  0.00  0.00    +0.009 C 
ATOM      3  C   UNL     1      -6.471  -3.787  -1.708  0.00  0.00    +0.164 C 
ATOM      4  S   UNL     1      -6.801  -5.564  -1.901  0.00  0.00    -0.031 S 
ATOM      5  O   UNL     1      -7.079  -6.113  -0.620  0.00  0.00    -0.174 OA
ATOM      6  O   UNL     1      -7.745  -5.737  -2.949  0.00  0.00    -0.174 OA
ATOM      7  C   UNL     1      -5.189  -6.190  -2.460  0.00  0.00    +0.164 C 
ATOM      8  C   UNL     1      -4.112  -5.741  -1.469  0.00  0.00    +0.009 C 
ENDROOT
BRANCH   1  13
ATOM      9  C   UNL     1      -1.432  -1.925   0.005  0.00  0.00    +0.102 C 
ATOM     10  C   UNL     1      -1.454  -2.442   1.446  0.00  0.00    +0.028 C 
ATOM     11  C   UNL     1      -1.633  -3.963   1.429  0.00  0.00    -0.016 C 
ATOM     12  C   UNL     1      -2.914  -4.312   0.668  0.00  0.00    -0.078 C 
ATOM     13  N   UNL     1      -2.820  -3.813  -0.709  0.00  0.00    +0.384 N 
ATOM     14  C   UNL     1      -2.720  -2.349  -0.704  0.00  0.00    -0.046 C 
ATOM     15  H   UNL     1      -2.002  -4.203  -1.152  0.00  0.00    -0.081 HD
BRANCH   9  16
ATOM     16  O   UNL     1      -1.339  -0.499   0.012  0.00  0.00    -0.379 OA
BRANCH  16  18
ATOM     17  C   UNL     1      -0.019   1.526   0.010  0.00  0.00    +0.034 C 
ATOM     18  C   UNL     1       0.002  -0.004   0.002  0.00  0.00    +0.157 C 
ENDBRANCH  16  18
ENDBRANCH   9  16
ENDBRANCH   1  13
BRANCH   1  19
ATOM     19  C   UNL     1      -3.909  -3.708  -2.896  0.00  0.00    -0.099 C 
BRANCH  19  20
ATOM     20  N   UNL     1      -2.715  -4.283  -3.530  0.00  0.00    +0.377 N 
ATOM     21  H   UNL     1      -2.787  -5.289  -3.534  0.00  0.00    -0.090 HD
ATOM     22  H   UNL     1      -2.643  -3.947  -4.479  0.00  0.00    -0.090 HD
ATOM     23  H   UNL     1      -1.894  -4.007  -3.012  0.00  0.00    -0.090 HD
ENDBRANCH  19  20
ENDBRANCH   1  19
TORSDOF 5
