REMARK  Name = ZINC65499888
REMARK  11 active torsions:
REMARK  status: ('A' for Active; 'I' for Inactive)
REMARK    1  A    between atoms: C_1  and  C_2
REMARK    2  A    between atoms: C_2  and  N_3
REMARK    3  A    between atoms: C_4  and  C_26
REMARK    4  A    between atoms: C_5  and  C_9
REMARK    5  A    between atoms: C_6  and  C_8
REMARK    6  A    between atoms: C_9  and  C_11
REMARK    7  A    between atoms: C_9  and  N_12
REMARK    8  A    between atoms: N_12  and  C_13
REMARK    9  A    between atoms: C_13  and  C_14
REMARK   10  A    between atoms: C_17  and  C_19
REMARK   11  A    between atoms: C_24  and  C_25
REMARK                            x       y       z     vdW  Elec       q    Type
REMARK                         _______ _______ _______ _____ _____    ______ ____
ROOT
ATOM      1  N   UNL     1      -5.711  -1.072   1.082  0.00  0.00    +0.387 N 
ATOM      2  H   UNL     1      -5.609  -0.071   1.009  0.00  0.00    -0.085 HD
ATOM      3  H   UNL     1      -5.922  -1.456   0.173  0.00  0.00    -0.085 HD
ENDROOT
BRANCH   1   4
ATOM      4  C   UNL     1      -4.459  -1.656   1.581  0.00  0.00    -0.040 C 
ATOM      5  C   UNL     1      -4.569  -3.182   1.574  0.00  0.00    -0.009 C 
BRANCH   4   8
ATOM      6  N   UNL     1      -1.372  -0.511   0.012  0.00  0.00    -0.268 N 
ATOM      7  C   UNL     1      -2.109  -0.787   1.109  0.00  0.00    +0.038 A 
ATOM      8  C   UNL     1      -3.317  -1.231   0.694  0.00  0.00    -0.018 A 
ATOM      9  C   UNL     1      -3.320  -1.227  -0.705  0.00  0.00    +0.062 A 
ATOM     10  N   UNL     1      -2.156  -0.790  -1.114  0.00  0.00    -0.176 NA
ATOM     11  C   UNL     1      -4.467  -1.647  -1.588  0.00  0.00    +0.068 C 
ATOM     12  C   UNL     1      -1.664  -0.628   2.541  0.00  0.00    +0.065 C 
BRANCH   6  14
ATOM     13  C   UNL     1      -0.019   1.526   0.010  0.00  0.00    +0.029 C 
ATOM     14  C   UNL     1       0.002  -0.004   0.002  0.00  0.00    +0.140 C 
ENDBRANCH   6  14
ENDBRANCH   4   8
ENDBRANCH   1   4
BRANCH   1  15
ATOM     15  C   UNL     1      -6.803  -1.387   2.012  0.00  0.00    -0.037 C 
BRANCH  15  16
ATOM     16  C   UNL     1      -8.088  -0.788   1.500  0.00  0.00    -0.007 A 
ATOM     17  C   UNL     1      -9.029  -1.325   0.679  0.00  0.00    +0.120 A 
ATOM     18  N   UNL     1     -10.088  -0.623   0.352  0.00  0.00    -0.247 NA
ATOM     19  C   UNL     1     -10.265   0.609   0.808  0.00  0.00    +0.109 A 
ATOM     20  S   UNL     1      -8.800   0.822   1.810  0.00  0.00    -0.074 S 
BRANCH  19  21
ATOM     21  C   UNL     1     -11.377   1.551   0.558  0.00  0.00    +0.010 A 
ATOM     22  C   UNL     1     -11.364   2.820   1.139  0.00  0.00    +0.011 A 
ATOM     23  C   UNL     1     -12.405   3.695   0.903  0.00  0.00    +0.001 A 
ATOM     24  C   UNL     1     -13.460   3.316   0.092  0.00  0.00    +0.000 A 
ATOM     25  C   UNL     1     -13.479   2.059  -0.487  0.00  0.00    +0.004 A 
ATOM     26  C   UNL     1     -12.441   1.178  -0.263  0.00  0.00    -0.041 A 
ATOM     27  C   UNL     1     -12.461  -0.188  -0.899  0.00  0.00    +0.044 C 
ENDBRANCH  19  21
ENDBRANCH  15  16
ENDBRANCH   1  15
TORSDOF 6
