REMARK  Name = ZINC08915426
REMARK  9 active torsions:
REMARK  status: ('A' for Active; 'I' for Inactive)
REMARK    1  A    between atoms: C_1  and  C_2
REMARK    2  A    between atoms: C_2  and  C_3
REMARK    3  A    between atoms: C_2  and  C_4
REMARK    4  A    between atoms: C_2  and  C_5
REMARK    5  A    between atoms: C_8  and  C_11
REMARK    6  A    between atoms: C_13  and  C_25
REMARK    7  A    between atoms: C_15  and  C_20
REMARK    8  A    between atoms: C_15  and  O_24
REMARK    9  A    between atoms: C_25  and  C_27
REMARK                            x       y       z     vdW  Elec       q    Type
REMARK                         _______ _______ _______ _____ _____    ______ ____
ROOT
ATOM      1  C   UNL     1       2.685  -1.862  -4.745  0.00  0.00    +0.120 C 
ATOM      2  C   UNL     1       2.621  -0.797  -5.844  0.00  0.00    +0.145 C 
ATOM      3  C   UNL     1       3.457  -1.276  -7.037  0.00  0.00    +0.243 C 
ATOM      4  N   UNL     1       4.816  -1.574  -6.582  0.00  0.00    -0.264 N 
ATOM      5  C   UNL     1       5.058  -1.981  -5.327  0.00  0.00    +0.302 C 
ATOM      6  O   UNL     1       6.205  -2.225  -5.004  0.00  0.00    -0.253 OA
ATOM      7  N   UNL     1       4.086  -2.129  -4.414  0.00  0.00    -0.292 N 
ATOM      8  H   UNL     1       5.556  -1.475  -7.201  0.00  0.00    +0.153 HD
ATOM      9  H   UNL     1       4.316  -2.419  -3.517  0.00  0.00    +0.151 HD
ENDROOT
BRANCH   1  13
ATOM     10  C   UNL     1       0.643  -0.447  -1.270  0.00  0.00    -0.042 A 
ATOM     11  C   UNL     1       1.999  -0.221  -1.415  0.00  0.00    +0.004 A 
ATOM     12  C   UNL     1       2.660  -0.679  -2.539  0.00  0.00    +0.006 A 
ATOM     13  C   UNL     1       1.965  -1.363  -3.518  0.00  0.00    -0.026 A 
ATOM     14  C   UNL     1       0.609  -1.591  -3.373  0.00  0.00    +0.006 A 
ATOM     15  C   UNL     1      -0.051  -1.136  -2.247  0.00  0.00    +0.004 A 
BRANCH  10  17
ATOM     16  C   UNL     1      -0.692  -1.133   0.705  0.00  0.00    +0.015 C 
ATOM     17  C   UNL     1      -0.078   0.052  -0.044  0.00  0.00    -0.013 C 
ATOM     18  C   UNL     1      -1.186   1.020  -0.463  0.00  0.00    +0.015 C 
ATOM     19  C   UNL     1       0.913   0.776   0.871  0.00  0.00    +0.015 C 
ENDBRANCH  10  17
ENDBRANCH   1  13
BRANCH   3  20
ATOM     20  C   UNL     1       2.827  -2.539  -7.628  0.00  0.00    +0.436 C 
ATOM     21  F   UNL     1       1.525  -2.255  -8.055  0.00  0.00    -0.166 F 
ATOM     22  F   UNL     1       3.590  -2.975  -8.716  0.00  0.00    -0.166 F 
ATOM     23  F   UNL     1       2.789  -3.541  -6.652  0.00  0.00    -0.166 F 
ENDBRANCH   3  20
BRANCH   3  24
ATOM     24  O   UNL     1       3.499  -0.252  -8.032  0.00  0.00    -0.364 OA
ATOM     25  H   UNL     1       4.013  -0.487  -8.817  0.00  0.00    +0.212 HD
ENDBRANCH   3  24
BRANCH   2  26
ATOM     26  C   UNL     1       3.176   0.503  -5.323  0.00  0.00    +0.179 C 
ATOM     27  O   UNL     1       4.114   0.497  -4.550  0.00  0.00    -0.291 OA
BRANCH  26  28
ATOM     28  C   UNL     1       2.607   1.729  -5.732  0.00  0.00    +0.055 A 
ATOM     29  C   UNL     1       2.968   3.026  -5.378  0.00  0.00    +0.019 A 
ATOM     30  C   UNL     1       2.220   4.027  -5.944  0.00  0.00    +0.008 A 
ATOM     31  C   UNL     1       1.207   3.699  -6.787  0.00  0.00    +0.046 A 
ATOM     32  S   UNL     1       1.244   2.020  -6.844  0.00  0.00    -0.094 S 
ENDBRANCH  26  28
ENDBRANCH   2  26
TORSDOF 6
