REMARK  Name = ZINC14795711
REMARK  10 active torsions:
REMARK  status: ('A' for Active; 'I' for Inactive)
REMARK    1  A    between atoms: C_1  and  C_2
REMARK    2  A    between atoms: C_2  and  C_3
REMARK    3  A    between atoms: C_2  and  C_4
REMARK    4  A    between atoms: C_4  and  C_6
REMARK    5  A    between atoms: C_4  and  N_20
REMARK    6  A    between atoms: N_8  and  C_9
REMARK    7  A    between atoms: C_9  and  C_10
REMARK    8  A    between atoms: C_13  and  S_16
REMARK    9  A    between atoms: S_16  and  N_19
REMARK   10  A    between atoms: C_21  and  C_23
REMARK                            x       y       z     vdW  Elec       q    Type
REMARK                         _______ _______ _______ _____ _____    ______ ____
ROOT
ATOM      1  C   UNL     1      -2.130   7.391  -0.824  0.00  0.00    +0.161 C 
ENDROOT
BRANCH   1   2
ATOM      2  C   UNL     1      -3.342   7.781  -1.630  0.00  0.00    +0.234 C 
ATOM      3  O   UNL     1      -4.129   6.931  -1.992  0.00  0.00    -0.274 OA
ATOM      4  N   UNL     1      -3.553   9.073  -1.949  0.00  0.00    -0.310 N 
ATOM      5  H   UNL     1      -2.968   9.761  -1.595  0.00  0.00    +0.149 HD
BRANCH   4   6
ATOM      6  C   UNL     1      -4.666   9.438  -2.829  0.00  0.00    +0.139 C 
BRANCH   6   7
ATOM      7  C   UNL     1      -4.681  10.932  -3.026  0.00  0.00    -0.030 A 
ATOM      8  C   UNL     1      -5.408  11.735  -2.167  0.00  0.00    +0.007 A 
ATOM      9  C   UNL     1      -5.418  13.106  -2.345  0.00  0.00    +0.029 A 
ATOM     10  C   UNL     1      -4.709  13.673  -3.388  0.00  0.00    +0.105 A 
ATOM     11  C   UNL     1      -3.987  12.870  -4.250  0.00  0.00    +0.029 A 
ATOM     12  C   UNL     1      -3.973  11.499  -4.069  0.00  0.00    +0.007 A 
BRANCH  10  13
ATOM     13  S   UNL     1      -4.726  15.420  -3.617  0.00  0.00    +0.056 S 
ATOM     14  O   UNL     1      -5.033  15.993  -2.354  0.00  0.00    -0.153 OA
ATOM     15  O   UNL     1      -3.544  15.747  -4.335  0.00  0.00    -0.153 OA
BRANCH  13  16
ATOM     16  N   UNL     1      -5.999  15.770  -4.617  0.00  0.00    -0.204 NA
ATOM     17  H   UNL     1      -6.457  16.622  -4.539  0.00  0.00    +0.144 HD
ATOM     18  H   UNL     1      -6.286  15.124  -5.281  0.00  0.00    +0.144 HD
ENDBRANCH  13  16
ENDBRANCH  10  13
ENDBRANCH   6   7
ENDBRANCH   4   6
ENDBRANCH   1   2
BRANCH   1  19
ATOM     19  N   UNL     1      -2.333   6.059  -0.249  0.00  0.00    -0.303 N 
ATOM     20  C   UNL     1      -1.673   5.701   0.870  0.00  0.00    +0.220 C 
ATOM     21  O   UNL     1      -0.911   6.481   1.401  0.00  0.00    -0.275 OA
ATOM     22  H   UNL     1      -2.942   5.435  -0.674  0.00  0.00    +0.149 HD
BRANCH  20  23
ATOM     23  C   UNL     1      -1.882   4.331   1.462  0.00  0.00    +0.048 C 
ATOM     24  C   UNL     1      -1.479   3.267   0.439  0.00  0.00    +0.019 C 
ATOM     25  C   UNL     1      -1.691   1.876   1.039  0.00  0.00    -0.009 C 
ATOM     26  C   UNL     1      -0.831   1.726   2.296  0.00  0.00    +0.007 C 
ATOM     27  C   UNL     1      -1.234   2.790   3.319  0.00  0.00    -0.009 C 
ATOM     28  C   UNL     1      -1.022   4.181   2.718  0.00  0.00    +0.019 C 
ATOM     29  C   UNL     1      -2.708   2.612   3.686  0.00  0.00    +0.007 C 
ATOM     30  C   UNL     1      -3.568   2.762   2.430  0.00  0.00    -0.009 C 
ATOM     31  C   UNL     1      -3.166   1.698   1.407  0.00  0.00    +0.007 C 
ATOM     32  C   UNL     1      -3.356   4.153   1.829  0.00  0.00    +0.019 C 
ENDBRANCH  20  23
ENDBRANCH   1  19
BRANCH   1  34
ATOM     33  C   UNL     1       0.349   7.091  -0.893  0.00  0.00    +0.009 C 
ATOM     34  C   UNL     1      -0.899   7.373  -1.732  0.00  0.00    +0.012 C 
ATOM     35  C   UNL     1      -1.060   6.278  -2.789  0.00  0.00    +0.009 C 
ENDBRANCH   1  34
TORSDOF 8
