REMARK  Name = ZINC30978013
REMARK  11 active torsions:
REMARK  status: ('A' for Active; 'I' for Inactive)
REMARK    1  A    between atoms: C_1  and  C_2
REMARK    2  A    between atoms: C_2  and  C_3
REMARK    3  A    between atoms: C_2  and  C_4
REMARK    4  A    between atoms: C_2  and  C_5
REMARK    5  A    between atoms: C_8  and  C_11
REMARK    6  A    between atoms: C_13  and  C_16
REMARK    7  A    between atoms: C_16  and  N_17
REMARK    8  A    between atoms: C_20  and  C_23
REMARK    9  A    between atoms: N_25  and  C_26
REMARK   10  A    between atoms: C_35  and  O_37
REMARK   11  A    between atoms: O_37  and  C_38
REMARK                            x       y       z     vdW  Elec       q    Type
REMARK                         _______ _______ _______ _____ _____    ______ ____
ROOT
ATOM      1  N   UNL     1      -7.765   0.372  -2.003  0.00  0.00    +0.386 N 
ATOM      2  C   UNL     1      -6.730  -0.584  -1.588  0.00  0.00    -0.077 C 
ATOM      3  C   UNL     1      -5.741   0.110  -0.649  0.00  0.00    -0.006 C 
ATOM      4  C   UNL     1      -5.103   1.298  -1.375  0.00  0.00    +0.071 C 
ATOM      5  C   UNL     1      -6.205   2.254  -1.841  0.00  0.00    -0.006 C 
ATOM      6  C   UNL     1      -7.182   1.498  -2.744  0.00  0.00    -0.077 C 
ATOM      7  H   UNL     1      -8.233   0.775  -1.093  0.00  0.00    -0.081 HD
ENDROOT
BRANCH   4   8
ATOM      8  C   UNL     1      -4.173   2.021  -0.436  0.00  0.00    +0.216 C 
ATOM      9  O   UNL     1      -4.030   1.625   0.701  0.00  0.00    -0.276 OA
ATOM     10  N   UNL     1      -3.498   3.108  -0.860  0.00  0.00    -0.308 N 
ATOM     11  H   UNL     1      -3.627   3.468  -1.892  0.00  0.00    +0.149 HD
BRANCH  10  12
ATOM     12  C   UNL     1      -2.593   3.811   0.052  0.00  0.00    +0.103 C 
ATOM     13  C   UNL     1      -2.475   5.271  -0.381  0.00  0.00    +0.027 C 
ATOM     14  C   UNL     1      -1.368   5.933   0.448  0.00  0.00    +0.007 C 
ATOM     15  C   UNL     1      -0.024   5.357   0.006  0.00  0.00    +0.035 C 
ATOM     16  C   UNL     1      -0.064   3.851   0.017  0.00  0.00    -0.039 A 
ATOM     17  C   UNL     1      -1.245   3.141   0.029  0.00  0.00    -0.024 A 
ATOM     18  C   UNL     1      -1.214   1.752   0.017  0.00  0.00    +0.009 A 
ATOM     19  C   UNL     1      -0.013   1.076   0.008  0.00  0.00    +0.046 A 
ATOM     20  C   UNL     1       1.177   1.789   0.000  0.00  0.00    +0.120 A 
ATOM     21  C   UNL     1       1.147   3.173   0.005  0.00  0.00    +0.049 A 
BRANCH  20  22
ATOM     22  O   UNL     1       2.367   1.132  -0.011  0.00  0.00    -0.495 OA
ATOM     23  C   UNL     1       2.320  -0.296  -0.015  0.00  0.00    +0.277 C 
ENDBRANCH  20  22
ENDBRANCH  10  12
ENDBRANCH   4   8
BRANCH   1  24
ATOM     24  C   UNL     1      -8.810  -0.294  -2.794  0.00  0.00    +0.022 C 
BRANCH  24  27
ATOM     25  C   UNL     1     -11.296   2.123  -3.742  0.00  0.00    +0.202 A 
ATOM     26  N   UNL     1     -10.120   1.499  -3.978  0.00  0.00    -0.193 NA
ATOM     27  C   UNL     1      -9.967   0.650  -2.992  0.00  0.00    +0.211 A 
ATOM     28  O   UNL     1     -11.030   0.783  -2.192  0.00  0.00    -0.340 OA
ATOM     29  N   UNL     1     -11.780   1.628  -2.633  0.00  0.00    -0.056 NA
BRANCH  25  33
ATOM     30  C   UNL     1     -13.078   5.143  -6.148  0.00  0.00    -0.042 A 
ATOM     31  C   UNL     1     -13.712   4.717  -4.995  0.00  0.00    +0.005 A 
ATOM     32  C   UNL     1     -13.138   3.737  -4.210  0.00  0.00    +0.012 A 
ATOM     33  C   UNL     1     -11.918   3.177  -4.582  0.00  0.00    +0.022 A 
ATOM     34  C   UNL     1     -11.281   3.613  -5.742  0.00  0.00    +0.012 A 
ATOM     35  C   UNL     1     -11.866   4.590  -6.522  0.00  0.00    +0.005 A 
BRANCH  30  37
ATOM     36  C   UNL     1     -13.875   7.491  -6.174  0.00  0.00    +0.015 C 
ATOM     37  C   UNL     1     -13.709   6.214  -7.000  0.00  0.00    -0.013 C 
ATOM     38  C   UNL     1     -12.812   6.500  -8.207  0.00  0.00    +0.015 C 
ATOM     39  C   UNL     1     -15.080   5.738  -7.484  0.00  0.00    +0.015 C 
ENDBRANCH  30  37
ENDBRANCH  25  33
ENDBRANCH  24  27
ENDBRANCH   1  24
TORSDOF 7
