REMARK  Name = ZINC01438291
REMARK  8 active torsions:
REMARK  status: ('A' for Active; 'I' for Inactive)
REMARK    1  A    between atoms: C_1  and  C_2
REMARK    2  A    between atoms: C_2  and  C_3
REMARK    3  A    between atoms: C_3  and  C_5
REMARK    4  A    between atoms: C_3  and  O_6
REMARK    5  A    between atoms: O_6  and  C_7
REMARK    6  A    between atoms: C_7  and  C_9
REMARK    7  A    between atoms: C_10  and  C_24
REMARK    8  A    between atoms: C_15  and  C_17
REMARK                            x       y       z     vdW  Elec       q    Type
REMARK                         _______ _______ _______ _____ _____    ______ ____
ROOT
ATOM      1  C   UNL     1      -0.750   1.912   1.581  0.00  0.00    +0.078 C 
ATOM      2  C   UNL     1      -0.189   2.708   2.517  0.00  0.00    +0.021 C 
ATOM      3  N   UNL     1       1.137   3.031   2.464  0.00  0.00    -0.273 N 
ATOM      4  C   UNL     1       1.969   2.599   1.508  0.00  0.00    +0.304 C 
ATOM      5  O   UNL     1       3.135   2.940   1.544  0.00  0.00    -0.252 OA
ATOM      6  N   UNL     1       1.556   1.797   0.506  0.00  0.00    -0.288 N 
ATOM      7  C   UNL     1       0.141   1.390   0.472  0.00  0.00    +0.145 C 
ATOM      8  C   UNL     1      -1.039   3.248   3.638  0.00  0.00    +0.061 C 
ATOM      9  H   UNL     1       1.496   3.606   3.157  0.00  0.00    +0.156 HD
ATOM     10  H   UNL     1       2.175   1.496  -0.177  0.00  0.00    +0.151 HD
ENDROOT
BRANCH   7  11
ATOM     11  C   UNL     1      -0.442   1.843  -0.842  0.00  0.00    -0.009 A 
ATOM     12  C   UNL     1      -0.027   3.033  -1.409  0.00  0.00    +0.007 A 
ATOM     13  C   UNL     1      -0.556   3.445  -2.617  0.00  0.00    +0.000 A 
ATOM     14  C   UNL     1      -1.510   2.672  -3.254  0.00  0.00    +0.001 A 
ATOM     15  C   UNL     1      -1.930   1.485  -2.685  0.00  0.00    +0.015 A 
ATOM     16  C   UNL     1      -1.396   1.069  -1.478  0.00  0.00    +0.023 A 
ATOM     17 BR   UNL     1      -1.969  -0.556  -0.700  0.00  0.00    -0.050 Br
ENDBRANCH   7  11
BRANCH   1  18
ATOM     18  C   UNL     1      -2.124   1.577   1.635  0.00  0.00    +0.339 C 
ATOM     19  O   UNL     1      -2.916   2.140   0.903  0.00  0.00    -0.245 OA
BRANCH  18  20
ATOM     20  O   UNL     1      -2.555   0.634   2.499  0.00  0.00    -0.458 OA
BRANCH  20  21
ATOM     21  C   UNL     1      -3.939   0.284   2.439  0.00  0.00    +0.173 C 
ATOM     22  C   UNL     1      -4.752   1.274   3.276  0.00  0.00    +0.052 C 
BRANCH  21  24
ATOM     23  C   UNL     1      -3.410  -2.132   2.087  0.00  0.00    +0.007 C 
ATOM     24  C   UNL     1      -4.132  -1.130   2.990  0.00  0.00    +0.041 C 
ENDBRANCH  21  24
ENDBRANCH  20  21
ENDBRANCH  18  20
ENDBRANCH   1  18
TORSDOF 5
