REMARK  Name = ZINC09067767
REMARK  7 active torsions:
REMARK  status: ('A' for Active; 'I' for Inactive)
REMARK    1  A    between atoms: C_1  and  C_2
REMARK    2  A    between atoms: C_4  and  C_36
REMARK    3  A    between atoms: N_11  and  C_12
REMARK    4  A    between atoms: C_12  and  C_13
REMARK    5  A    between atoms: C_18  and  C_20
REMARK    6  A    between atoms: N_25  and  S_26
REMARK    7  A    between atoms: S_26  and  C_29
REMARK                            x       y       z     vdW  Elec       q    Type
REMARK                         _______ _______ _______ _____ _____    ______ ____
ROOT
ATOM      1  C   UNL     1       1.761   7.821  -6.167  0.00  0.00    +0.044 C 
ATOM      2  C   UNL     1       1.602   6.942  -4.953  0.00  0.00    -0.048 A 
ATOM      3  C   UNL     1       2.716   6.642  -4.183  0.00  0.00    +0.008 A 
ATOM      4  C   UNL     1       2.572   5.836  -3.068  0.00  0.00    -0.034 A 
ATOM      5  C   UNL     1       1.332   5.345  -2.743  0.00  0.00    +0.044 A 
ATOM      6  C   UNL     1       0.175   5.629  -3.504  0.00  0.00    +0.081 A 
ATOM      7  C   UNL     1       0.360   6.457  -4.636  0.00  0.00    +0.032 A 
ATOM      8  N   UNL     1      -0.970   5.069  -3.059  0.00  0.00    -0.224 NA
ATOM      9  C   UNL     1      -1.016   4.317  -1.984  0.00  0.00    +0.169 A 
ATOM     10  S   UNL     1       0.690   4.309  -1.451  0.00  0.00    -0.052 S 
ATOM     11  N   UNL     1      -2.109   3.686  -1.412  0.00  0.00    -0.242 N 
ATOM     12  C   UNL     1      -3.329   3.814  -1.969  0.00  0.00    +0.241 C 
ATOM     13  O   UNL     1      -3.463   4.439  -2.999  0.00  0.00    -0.273 OA
ATOM     14  C   UNL     1       3.769   5.498  -2.217  0.00  0.00    +0.045 C 
ENDROOT
BRANCH  12  15
ATOM     15  C   UNL     1      -4.528   3.180  -1.311  0.00  0.00    +0.166 C 
ATOM     16  C   UNL     1      -4.981   1.930  -2.107  0.00  0.00    +0.031 C 
ATOM     17  C   UNL     1      -6.475   1.828  -1.700  0.00  0.00    +0.019 C 
ATOM     18  C   UNL     1      -6.902   3.305  -1.578  0.00  0.00    +0.110 C 
ATOM     19  N   UNL     1      -5.681   4.097  -1.354  0.00  0.00    -0.165 NA
BRANCH  19  20
ATOM     20  S   UNL     1      -5.614   5.742  -1.181  0.00  0.00    +0.062 S 
ATOM     21  O   UNL     1      -6.795   6.127  -0.492  0.00  0.00    -0.153 OA
ATOM     22  O   UNL     1      -4.314   6.046  -0.692  0.00  0.00    -0.153 OA
BRANCH  20  23
ATOM     23  C   UNL     1      -5.721   6.441  -2.795  0.00  0.00    +0.106 A 
ATOM     24  C   UNL     1      -4.571   6.826  -3.458  0.00  0.00    +0.031 A 
ATOM     25  C   UNL     1      -4.653   7.369  -4.726  0.00  0.00    +0.040 A 
ATOM     26  C   UNL     1      -5.889   7.538  -5.328  0.00  0.00    +0.124 A 
ATOM     27  C   UNL     1      -7.040   7.157  -4.660  0.00  0.00    +0.040 A 
ATOM     28  C   UNL     1      -6.955   6.609  -3.394  0.00  0.00    +0.031 A 
ATOM     29  F   UNL     1      -5.971   8.074  -6.565  0.00  0.00    -0.205 F 
ENDBRANCH  20  23
ENDBRANCH  19  20
ENDBRANCH  12  15
BRANCH  11  30
ATOM     30  C   UNL     1      -1.937   2.878  -0.201  0.00  0.00    +0.189 C 
BRANCH  30  31
ATOM     31  C   UNL     1      -1.773   1.430  -0.582  0.00  0.00    +0.123 A 
ATOM     32  C   UNL     1      -0.620   0.836  -0.938  0.00  0.00    +0.046 A 
ATOM     33  C   UNL     1      -0.924  -0.518  -1.211  0.00  0.00    +0.041 A 
ATOM     34  C   UNL     1      -2.244  -0.670  -1.006  0.00  0.00    +0.195 A 
ATOM     35  O   UNL     1      -2.755   0.514  -0.631  0.00  0.00    -0.466 OA
ENDBRANCH  30  31
ENDBRANCH  11  30
TORSDOF 5
