REMARK  Name = ZINC14083426
REMARK  8 active torsions:
REMARK  status: ('A' for Active; 'I' for Inactive)
REMARK    1  A    between atoms: C_3  and  C_6
REMARK    2  A    between atoms: C_6  and  C_8
REMARK    3  A    between atoms: C_6  and  N_63
REMARK    4  A    between atoms: C_8  and  N_9
REMARK    5  A    between atoms: C_10  and  C_12
REMARK    6  A    between atoms: N_15  and  S_18
REMARK    7  A    between atoms: S_18  and  C_21
REMARK    8  A    between atoms: C_24  and  C_27
REMARK                            x       y       z     vdW  Elec       q    Type
REMARK                         _______ _______ _______ _____ _____    ______ ____
ROOT
ATOM      1  C   UNL     1       1.152   6.049   3.885  0.00  0.00    +0.077 C 
ATOM      2  C   UNL     1       2.353   5.912   2.947  0.00  0.00    +0.030 C 
ATOM      3  C   UNL     1       2.435   4.469   2.438  0.00  0.00    +0.110 C 
ATOM      4  N   UNL     1       1.148   4.109   1.827  0.00  0.00    -0.177 NA
ATOM      5  C   UNL     1      -0.081   4.293   2.611  0.00  0.00    +0.110 C 
ATOM      6  C   UNL     1      -0.135   5.733   3.120  0.00  0.00    +0.030 C 
ENDROOT
BRANCH   1   8
ATOM      7  N   UNL     1       0.105   7.814   5.266  0.00  0.00    -0.316 N 
ATOM      8  C   UNL     1       1.087   7.458   4.415  0.00  0.00    +0.216 C 
ATOM      9  O   UNL     1       1.919   8.273   4.075  0.00  0.00    -0.276 OA
ATOM     10  H   UNL     1      -0.561   7.163   5.538  0.00  0.00    +0.149 HD
BRANCH   7  11
ATOM     11  C   UNL     1       0.042   9.184   5.781  0.00  0.00    +0.096 C 
BRANCH  11  12
ATOM     12  C   UNL     1      -1.223   9.354   6.625  0.00  0.00    +0.016 C 
BRANCH  12  17
ATOM     13  C   UNL     1      -1.434  11.653   5.851  0.00  0.00    -0.078 C 
ATOM     14  C   UNL     1      -2.079  12.941   6.423  0.00  0.00    -0.020 C 
ATOM     15  C   UNL     1      -3.104  12.392   7.441  0.00  0.00    -0.020 C 
ATOM     16  C   UNL     1      -2.605  10.977   7.790  0.00  0.00    -0.078 C 
ATOM     17  N   UNL     1      -1.367  10.784   7.036  0.00  0.00    +0.387 N 
ATOM     18  H   UNL     1      -0.562  11.050   7.616  0.00  0.00    -0.081 HD
ENDBRANCH  12  17
BRANCH  12  21
ATOM     19  C   UNL     1      -1.373   6.820   9.296  0.00  0.00    +0.041 A 
ATOM     20  C   UNL     1      -1.726   7.285   8.008  0.00  0.00    +0.043 A 
ATOM     21  C   UNL     1      -1.132   8.481   7.849  0.00  0.00    +0.093 A 
ATOM     22  O   UNL     1      -0.448   8.767   8.969  0.00  0.00    -0.469 OA
ATOM     23  C   UNL     1      -0.590   7.763   9.850  0.00  0.00    +0.195 A 
ENDBRANCH  12  21
ENDBRANCH  11  12
ENDBRANCH   7  11
ENDBRANCH   1   8
BRANCH   4  24
ATOM     24  S   UNL     1       1.084   3.512   0.284  0.00  0.00    +0.061 S 
ATOM     25  O   UNL     1       2.257   3.967  -0.377  0.00  0.00    -0.153 OA
ATOM     26  O   UNL     1      -0.222   3.788  -0.204  0.00  0.00    -0.153 OA
BRANCH  24  27
ATOM     27  C   UNL     1       1.218   1.759   0.398  0.00  0.00    +0.106 A 
ATOM     28  C   UNL     1       0.077   0.987   0.525  0.00  0.00    +0.029 A 
ATOM     29  C   UNL     1       0.175  -0.386   0.614  0.00  0.00    +0.015 A 
ATOM     30  C   UNL     1       1.430  -0.997   0.575  0.00  0.00    +0.037 A 
ATOM     31  C   UNL     1       2.577  -0.213   0.446  0.00  0.00    +0.015 A 
ATOM     32  C   UNL     1       2.465   1.159   0.358  0.00  0.00    +0.029 A 
BRANCH  30  33
ATOM     33  C   UNL     1       1.542  -2.468   0.670  0.00  0.00    +0.242 C 
ATOM     34  O   UNL     1       0.541  -3.148   0.783  0.00  0.00    -0.270 OA
ATOM     35  N   UNL     1       2.755  -3.055   0.632  0.00  0.00    -0.325 N 
ATOM     36  H   UNL     1       3.554  -2.512   0.542  0.00  0.00    +0.145 HD
ATOM     37  H   UNL     1       2.829  -4.020   0.695  0.00  0.00    +0.145 HD
ENDBRANCH  30  33
ENDBRANCH  24  27
ENDBRANCH   4  24
TORSDOF 8
