REMARK  Name = ZINC45569092
REMARK  6 active torsions:
REMARK  status: ('A' for Active; 'I' for Inactive)
REMARK    1  A    between atoms: C_1  and  C_2
REMARK    2  A    between atoms: C_5  and  C_7
REMARK    3  A    between atoms: C_10  and  C_12
REMARK    4  A    between atoms: C_13  and  C_14
REMARK    5  A    between atoms: N_16  and  C_17
REMARK    6  A    between atoms: C_26  and  C_29
REMARK                            x       y       z     vdW  Elec       q    Type
REMARK                         _______ _______ _______ _____ _____    ______ ____
ROOT
ATOM      1  C   UNL     1       2.493  -7.522  -0.872  0.00  0.00    +0.241 C 
ATOM      2  O   UNL     1       1.383  -7.880  -1.224  0.00  0.00    -0.270 OA
ATOM      3  N   UNL     1       3.534  -8.374  -0.956  0.00  0.00    -0.282 N 
ATOM      4  H   UNL     1       4.429  -8.069  -0.739  0.00  0.00    +0.155 HD
ENDROOT
BRANCH   3   5
ATOM      5  C   UNL     1       3.324  -9.699  -1.357  0.00  0.00    +0.036 A 
ATOM      6  C   UNL     1       2.358  -9.990  -2.311  0.00  0.00    +0.027 A 
ATOM      7  C   UNL     1       2.147 -11.297  -2.710  0.00  0.00    +0.049 A 
ATOM      8  C   UNL     1       2.900 -12.318  -2.158  0.00  0.00    +0.143 A 
ATOM      9  C   UNL     1       3.871 -12.029  -1.200  0.00  0.00    +0.077 A 
ATOM     10  C   UNL     1       4.086 -10.720  -0.804  0.00  0.00    +0.050 A 
ATOM     11  N   UNL     1       4.624 -13.076  -0.649  0.00  0.00    -0.279 N 
ATOM     12  C   UNL     1       4.625 -14.277  -1.267  0.00  0.00    +0.258 C 
ATOM     13  O   UNL     1       5.245 -15.205  -0.792  0.00  0.00    -0.271 OA
ATOM     14  C   UNL     1       3.853 -14.460  -2.549  0.00  0.00    +0.256 C 
ATOM     15  O   UNL     1       2.703 -13.609  -2.543  0.00  0.00    -0.478 OA
ATOM     16  C   UNL     1       4.746 -14.100  -3.737  0.00  0.00    +0.062 C 
ATOM     17  H   UNL     1       5.136 -12.939   0.163  0.00  0.00    +0.155 HD
ENDBRANCH   3   5
BRANCH   1  19
ATOM     18  C   UNL     1       1.641  -5.355  -0.288  0.00  0.00    +0.051 C 
ATOM     19  C   UNL     1       2.689  -6.212  -0.373  0.00  0.00    +0.071 C 
BRANCH  18  23
ATOM     20  C   UNL     1       1.439  -1.982   0.849  0.00  0.00    +0.109 A 
ATOM     21  C   UNL     1       2.759  -2.194   1.046  0.00  0.00    +0.045 A 
ATOM     22  C   UNL     1       3.033  -3.510   0.643  0.00  0.00    +0.049 A 
ATOM     23  C   UNL     1       1.837  -4.044   0.210  0.00  0.00    +0.128 A 
ATOM     24  O   UNL     1       0.886  -3.097   0.353  0.00  0.00    -0.460 OA
BRANCH  20  28
ATOM     25  C   UNL     1      -0.022   1.527  -0.018  0.00  0.00    +0.008 C 
ATOM     26  C   UNL     1       0.000  -0.003  -0.019  0.00  0.00    -0.003 C 
ATOM     27  C   UNL     1      -0.823  -0.722   1.052  0.00  0.00    +0.015 C 
ATOM     28  C   UNL     1       0.705  -0.700   1.147  0.00  0.00    +0.058 C 
ENDBRANCH  20  28
ENDBRANCH  18  23
ENDBRANCH   1  19
TORSDOF 4
