REMARK  Name = ZINC01836856
REMARK  10 active torsions:
REMARK  status: ('A' for Active; 'I' for Inactive)
REMARK    1  A    between atoms: C_1  and  C_2
REMARK    2  A    between atoms: C_2  and  C_4
REMARK    3  A    between atoms: C_4  and  O_41
REMARK    4  A    between atoms: C_9  and  C_40
REMARK    5  A    between atoms: C_20  and  N_25
REMARK    6  A    between atoms: C_23  and  C_24
REMARK    7  A    between atoms: N_25  and  O_26
REMARK    8  A    between atoms: O_26  and  C_27
REMARK    9  A    between atoms: C_27  and  C_28
REMARK   10  A    between atoms: N_30  and  C_31
REMARK                            x       y       z     vdW  Elec       q    Type
REMARK                         _______ _______ _______ _____ _____    ______ ____
ROOT
ATOM      1  C   UNL     1      -0.258   0.201   1.791  0.00  0.00    +0.129 C 
ATOM      2  C   UNL     1      -0.897  -0.316   3.095  0.00  0.00    +0.043 C 
ATOM      3  C   UNL     1      -1.130  -1.833   2.894  0.00  0.00    +0.008 C 
ATOM      4  C   UNL     1      -1.193  -1.983   1.369  0.00  0.00    +0.002 C 
ATOM      5  C   UNL     1      -0.104  -1.023   0.854  0.00  0.00    +0.007 C 
ATOM      6  C   UNL     1       1.271  -1.647   1.060  0.00  0.00    +0.010 C 
ATOM      7  C   UNL     1       1.379  -2.998   0.364  0.00  0.00    +0.005 C 
ATOM      8  C   UNL     1       0.315  -3.993   0.809  0.00  0.00    +0.003 C 
ATOM      9  C   UNL     1      -1.061  -3.389   0.862  0.00  0.00    -0.003 C 
ATOM     10  C   UNL     1      -2.115  -4.307   1.479  0.00  0.00    +0.008 C 
ATOM     11  C   UNL     1      -1.663  -4.781   2.860  0.00  0.00    +0.031 C 
ATOM     12  C   UNL     1      -0.362  -5.537   2.677  0.00  0.00    -0.061 C 
ATOM     13  C   UNL     1      -0.279  -6.750   3.206  0.00  0.00    +0.027 C 
ATOM     14  C   UNL     1       0.947  -7.550   3.056  0.00  0.00    +0.057 C 
ATOM     15  C   UNL     1       1.892  -7.143   2.217  0.00  0.00    +0.001 C 
ATOM     16  C   UNL     1       1.768  -5.907   1.395  0.00  0.00    +0.040 C 
ATOM     17  C   UNL     1       0.764  -4.895   1.934  0.00  0.00    -0.004 C 
ATOM     18  C   UNL     1       1.556  -4.102   2.974  0.00  0.00    +0.016 C 
ATOM     19  C   UNL     1      -0.345  -0.633  -0.610  0.00  0.00    +0.015 C 
ENDROOT
BRANCH   1  21
ATOM     20  C   UNL     1       1.606   1.902   1.135  0.00  0.00    +0.089 C 
ATOM     21  C   UNL     1       1.059   0.865   2.082  0.00  0.00    +0.162 C 
ATOM     22  O   UNL     1       1.679   0.568   3.075  0.00  0.00    -0.295 OA
ENDBRANCH   1  21
BRANCH  14  23
ATOM     23  N   UNL     1       1.118  -8.722   3.791  0.00  0.00    -0.266 N 
ATOM     24  H   UNL     1       0.426  -9.013   4.406  0.00  0.00    +0.194 HD
BRANCH  23  25
ATOM     25  O   UNL     1       2.300  -9.486   3.642  0.00  0.00    -0.265 OA
BRANCH  25  26
ATOM     26  C   UNL     1       2.341 -10.660   4.455  0.00  0.00    +0.288 C 
BRANCH  26  27
ATOM     27  C   UNL     1       3.636 -11.392   4.217  0.00  0.00    +0.242 C 
ATOM     28  O   UNL     1       4.445 -10.952   3.427  0.00  0.00    -0.273 OA
ATOM     29  N   UNL     1       3.895 -12.536   4.880  0.00  0.00    -0.302 N 
ATOM     30  H   UNL     1       3.248 -12.888   5.511  0.00  0.00    +0.150 HD
BRANCH  29  31
ATOM     31  C   UNL     1       5.154 -13.248   4.648  0.00  0.00    +0.159 C 
ATOM     32  C   UNL     1       5.045 -14.676   5.188  0.00  0.00    +0.032 C 
ATOM     33  C   UNL     1       4.188 -14.713   6.440  0.00  0.00    +0.004 C 
ATOM     34  C   UNL     1       4.805 -13.996   7.627  0.00  0.00    +0.019 C 
ATOM     35  C   UNL     1       4.883 -12.489   7.373  0.00  0.00    +0.104 C 
ATOM     36  N   UNL     1       6.136 -12.197   6.657  0.00  0.00    -0.314 N 
ATOM     37  C   UNL     1       6.280 -12.541   5.373  0.00  0.00    +0.233 C 
ATOM     38  O   UNL     1       7.313 -12.292   4.789  0.00  0.00    -0.274 OA
ATOM     39  H   UNL     1       6.862 -11.750   7.120  0.00  0.00    +0.149 HD
ENDBRANCH  29  31
ENDBRANCH  26  27
ENDBRANCH  25  26
ENDBRANCH  23  25
ENDBRANCH  14  23
BRANCH   1  40
ATOM     40  O   UNL     1      -1.143   1.155   1.184  0.00  0.00    -0.381 OA
ATOM     41  H   UNL     1      -1.318   1.933   1.732  0.00  0.00    +0.211 HD
ENDBRANCH   1  40
TORSDOF 7
