REMARK  Name = ZINC09307677
REMARK  7 active torsions:
REMARK  status: ('A' for Active; 'I' for Inactive)
REMARK    1  A    between atoms: C_1  and  N_2
REMARK    2  A    between atoms: N_2  and  C_3
REMARK    3  A    between atoms: N_2  and  C_30
REMARK    4  A    between atoms: C_3  and  C_4
REMARK    5  A    between atoms: C_5  and  C_15
REMARK    6  A    between atoms: N_17  and  N_18
REMARK    7  A    between atoms: C_19  and  C_20
REMARK                            x       y       z     vdW  Elec       q    Type
REMARK                         _______ _______ _______ _____ _____    ______ ____
ROOT
ATOM      1  C   UNL     1       3.121  -2.200  -0.023  0.00  0.00    +0.063 A 
ATOM      2  C   UNL     1       3.084  -3.566  -0.033  0.00  0.00    +0.170 A 
ATOM      3  N   UNL     1       1.798  -3.957  -0.031  0.00  0.00    -0.124 NA
ATOM      4  N   UNL     1       1.032  -2.922  -0.015  0.00  0.00    -0.058 NA
ATOM      5  N   UNL     1       1.838  -1.775  -0.006  0.00  0.00    -0.194 N 
ATOM      6  C   UNL     1       1.400  -0.446   0.011  0.00  0.00    +0.240 A 
ATOM      7  C   UNL     1       0.002  -0.004   0.024  0.00  0.00    +0.206 A 
ATOM      8  N   UNL     1      -0.015   1.300   0.038  0.00  0.00    -0.032 NA
ATOM      9  O   UNL     1       1.327   1.752   0.035  0.00  0.00    -0.239 OA
ATOM     10  N   UNL     1       2.164   0.609   0.018  0.00  0.00    -0.027 NA
ATOM     11  N   UNL     1      -1.114  -0.834   0.021  0.00  0.00    -0.337 N 
ATOM     12  H   UNL     1      -2.123  -0.397   0.031  0.00  0.00    +0.144 HD
ATOM     13  H   UNL     1      -0.987  -1.926   0.009  0.00  0.00    +0.144 HD
ENDROOT
BRANCH   2  14
ATOM     14  C   UNL     1       4.257  -4.460  -0.049  0.00  0.00    +0.285 C 
ATOM     15  O   UNL     1       5.379  -3.991  -0.050  0.00  0.00    -0.267 OA
ATOM     16  N   UNL     1       4.085  -5.797  -0.064  0.00  0.00    -0.202 N 
ATOM     17  H   UNL     1       3.070  -6.221  -0.063  0.00  0.00    +0.178 HD
BRANCH  16  18
ATOM     18  N   UNL     1       5.199  -6.646  -0.080  0.00  0.00    -0.187 NA
ATOM     19  C   UNL     1       5.033  -7.935  -0.094  0.00  0.00    +0.139 C 
BRANCH  19  20
ATOM     20  C   UNL     1       6.202  -8.827  -0.110  0.00  0.00    +0.002 A 
ATOM     21  C   UNL     1       6.046 -10.204  -0.013  0.00  0.00    +0.010 A 
ATOM     22  C   UNL     1       7.151 -11.043  -0.035  0.00  0.00    +0.001 A 
ATOM     23  C   UNL     1       8.419 -10.559  -0.139  0.00  0.00    +0.008 A 
ATOM     24  C   UNL     1       8.653  -9.177  -0.235  0.00  0.00    -0.017 A 
ATOM     25  C   UNL     1       7.554  -8.283  -0.223  0.00  0.00    -0.009 A 
ATOM     26  C   UNL     1       7.783  -6.905  -0.319  0.00  0.00    +0.009 A 
ATOM     27  C   UNL     1       9.060  -6.439  -0.423  0.00  0.00    +0.001 A 
ATOM     28  C   UNL     1      10.142  -7.316  -0.434  0.00  0.00    +0.001 A 
ATOM     29  C   UNL     1       9.956  -8.662  -0.343  0.00  0.00    +0.008 A 
ENDBRANCH  19  20
ENDBRANCH  16  18
ENDBRANCH   2  14
BRANCH   1  30
ATOM     30  C   UNL     1       4.355  -1.335  -0.027  0.00  0.00    -0.020 C 
BRANCH  30  32
ATOM     31  C   UNL     1       5.210  -2.300   2.022  0.00  0.00    -0.095 C 
ATOM     32  N   UNL     1       4.770  -1.067   1.356  0.00  0.00    +0.383 N 
ATOM     33  H   UNL     1       3.896  -0.682   1.903  0.00  0.00    -0.081 HD
BRANCH  32  34
ATOM     34  C   UNL     1       5.820  -0.040   1.402  0.00  0.00    -0.068 C 
ATOM     35  C   UNL     1       7.081  -0.570   0.716  0.00  0.00    -0.015 C 
ATOM     36  C   UNL     1       8.174   0.499   0.763  0.00  0.00    -0.002 C 
ATOM     37  C   UNL     1       8.491   0.840   2.221  0.00  0.00    -0.000 C 
ATOM     38  C   UNL     1       7.230   1.370   2.907  0.00  0.00    -0.002 C 
ATOM     39  C   UNL     1       6.137   0.300   2.859  0.00  0.00    -0.015 C 
ENDBRANCH  32  34
ENDBRANCH  30  32
ENDBRANCH   1  30
TORSDOF 6
