REMARK  Name = ZINC20690921
REMARK  9 active torsions:
REMARK  status: ('A' for Active; 'I' for Inactive)
REMARK    1  A    between atoms: C_1  and  C_2
REMARK    2  A    between atoms: C_2  and  C_3
REMARK    3  A    between atoms: C_3  and  C_5
REMARK    4  A    between atoms: C_3  and  N_6
REMARK    5  A    between atoms: C_7  and  C_9
REMARK    6  A    between atoms: C_22  and  C_25
REMARK    7  A    between atoms: C_28  and  O_32
REMARK    8  A    between atoms: C_29  and  O_31
REMARK    9  A    between atoms: O_32  and  C_33
REMARK                            x       y       z     vdW  Elec       q    Type
REMARK                         _______ _______ _______ _____ _____    ______ ____
ROOT
ATOM      1  C   UNL     1       2.434   0.935  -0.016  0.00  0.00    +0.037 A 
ATOM      2  C   UNL     1       2.454  -0.463  -0.018  0.00  0.00    +0.015 A 
ATOM      3  C   UNL     1       3.659  -1.125  -0.037  0.00  0.00    +0.024 A 
ATOM      4  C   UNL     1       4.853  -0.407  -0.044  0.00  0.00    +0.031 A 
ATOM      5  C   UNL     1       4.845   0.983  -0.038  0.00  0.00    -0.019 A 
ATOM      6  C   UNL     1       3.633   1.649  -0.024  0.00  0.00    +0.019 A 
ATOM      7  C   UNL     1       6.105   1.790  -0.049  0.00  0.00    +0.049 C 
ATOM      8  C   UNL     1       6.387   2.390   1.308  0.00  0.00    -0.023 C 
ATOM      9  C   UNL     1       7.666   2.414   1.546  0.00  0.00    -0.030 C 
ATOM     10  C   UNL     1       8.429   1.810   0.383  0.00  0.00    +0.033 C 
ATOM     11  C   UNL     1       7.358   0.942  -0.340  0.00  0.00    +0.029 C 
ATOM     12  C   UNL     1       7.271  -0.391   0.409  0.00  0.00    +0.105 C 
ATOM     13  N   UNL     1       6.062  -1.100  -0.022  0.00  0.00    -0.336 N 
ATOM     14  H   UNL     1       6.121  -2.157  -0.320  0.00  0.00    +0.147 HD
ENDROOT
BRANCH  12  15
ATOM     15  C   UNL     1       8.485  -1.227   0.096  0.00  0.00    -0.023 A 
ATOM     16  C   UNL     1       8.544  -1.942  -1.086  0.00  0.00    +0.009 A 
ATOM     17  C   UNL     1       9.658  -2.705  -1.380  0.00  0.00    +0.050 A 
ATOM     18  C   UNL     1      10.713  -2.765  -0.485  0.00  0.00    +0.161 A 
ATOM     19  C   UNL     1      10.652  -2.050   0.708  0.00  0.00    +0.159 A 
ATOM     20  C   UNL     1       9.534  -1.282   0.994  0.00  0.00    +0.054 A 
BRANCH  19  21
ATOM     21  O   UNL     1      11.685  -2.105   1.590  0.00  0.00    -0.503 OA
ATOM     22  H   UNL     1      11.635  -1.540   2.532  0.00  0.00    +0.292 HD
ENDBRANCH  19  21
BRANCH  18  23
ATOM     23  O   UNL     1      11.808  -3.520  -0.770  0.00  0.00    -0.491 OA
ATOM     24  C   UNL     1      11.802  -4.227  -2.013  0.00  0.00    +0.277 C 
ENDBRANCH  18  23
ENDBRANCH  12  15
BRANCH   1  26
ATOM     25  N   UNL     1      -0.011   0.966   0.007  0.00  0.00    -0.309 N 
ATOM     26  C   UNL     1       1.147   1.655   0.000  0.00  0.00    +0.244 C 
ATOM     27  O   UNL     1       1.130   2.871   0.007  0.00  0.00    -0.270 OA
ATOM     28  H   UNL     1       0.004  -0.134   0.006  0.00  0.00    +0.149 HD
BRANCH  25  29
ATOM     29  C   UNL     1      -1.290   1.681   0.017  0.00  0.00    +0.070 C 
ATOM     30  C   UNL     1      -1.680   2.047  -1.416  0.00  0.00    +0.028 C 
BRANCH  29  32
ATOM     31  C   UNL     1      -2.043   0.521   2.098  0.00  0.00    +0.005 C 
ATOM     32  C   UNL     1      -2.370   0.786   0.627  0.00  0.00    +0.018 C 
ENDBRANCH  29  32
ENDBRANCH  25  29
ENDBRANCH   1  26
TORSDOF 6
