REMARK  Name = ZINC09187521
REMARK  16 active torsions:
REMARK  status: ('A' for Active; 'I' for Inactive)
REMARK    1  A    between atoms: C_1  and  C_2
REMARK    2  A    between atoms: C_2  and  C_3
REMARK    3  A    between atoms: C_3  and  O_4
REMARK    4  A    between atoms: O_4  and  C_5
REMARK    5  A    between atoms: C_8  and  C_14
REMARK    6  A    between atoms: C_10  and  O_11
REMARK    7  A    between atoms: O_11  and  C_12
REMARK    8  A    between atoms: C_12  and  C_13
REMARK    9  A    between atoms: C_16  and  C_26
REMARK   10  A    between atoms: C_17  and  O_25
REMARK   11  A    between atoms: N_20  and  C_21
REMARK   12  A    between atoms: C_21  and  C_22
REMARK   13  A    between atoms: C_22  and  N_71
REMARK   14  A    between atoms: C_23  and  N_71
REMARK   15  A    between atoms: C_24  and  N_71
REMARK   16  A    between atoms: C_26  and  C_28
REMARK                            x       y       z     vdW  Elec       q    Type
REMARK                         _______ _______ _______ _____ _____    ______ ____
ROOT
ATOM      1  C   UNL     1      -0.515   1.395   0.260  0.00  0.00    +0.144 C 
ATOM      2  C   UNL     1      -0.718   1.768  -1.190  0.00  0.00    +0.071 C 
ATOM      3  C   UNL     1       0.488   2.158  -1.665  0.00  0.00    +0.188 C 
ATOM      4  C   UNL     1       1.491   2.058  -0.585  0.00  0.00    +0.282 C 
ATOM      5  O   UNL     1       2.668   2.337  -0.698  0.00  0.00    -0.267 OA
ATOM      6  N   UNL     1       0.908   1.613   0.543  0.00  0.00    -0.285 N 
ENDROOT
BRANCH   1  10
ATOM      7  C   UNL     1      -2.909   3.895   2.772  0.00  0.00    +0.162 A 
ATOM      8  C   UNL     1      -1.767   4.401   2.172  0.00  0.00    +0.050 A 
ATOM      9  C   UNL     1      -0.992   3.589   1.365  0.00  0.00    +0.009 A 
ATOM     10  C   UNL     1      -1.360   2.274   1.146  0.00  0.00    -0.019 A 
ATOM     11  C   UNL     1      -2.498   1.763   1.741  0.00  0.00    +0.055 A 
ATOM     12  C   UNL     1      -3.276   2.570   2.556  0.00  0.00    +0.162 A 
BRANCH   7  13
ATOM     13  O   UNL     1      -3.668   4.691   3.571  0.00  0.00    -0.488 OA
BRANCH  13  14
ATOM     14  C   UNL     1      -3.231   6.040   3.748  0.00  0.00    +0.229 C 
BRANCH  14  16
ATOM     15  C   UNL     1      -3.736   8.219   4.861  0.00  0.00    +0.007 C 
ATOM     16  C   UNL     1      -4.204   6.775   4.672  0.00  0.00    +0.038 C 
ENDBRANCH  14  16
ENDBRANCH  13  14
ENDBRANCH   7  13
BRANCH  12  17
ATOM     17  O   UNL     1      -4.396   2.069   3.143  0.00  0.00    -0.489 OA
BRANCH  17  18
ATOM     18  C   UNL     1      -4.755   0.726   2.812  0.00  0.00    +0.226 C 
ATOM     19  C   UNL     1      -6.091   0.378   3.473  0.00  0.00    +0.048 C 
ENDBRANCH  17  18
ENDBRANCH  12  17
ENDBRANCH   1  10
BRANCH   3  20
ATOM     20  O   UNL     1       0.736   2.572  -2.929  0.00  0.00    -0.502 OA
ATOM     21  H   UNL     1       1.704   2.802  -3.021  0.00  0.00    +0.292 HD
ENDBRANCH   3  20
BRANCH   2  22
ATOM     22  C   UNL     1      -1.978   1.718  -1.938  0.00  0.00    +0.195 C 
ATOM     23  O   UNL     1      -2.471   2.743  -2.369  0.00  0.00    -0.287 OA
BRANCH  22  24
ATOM     24  C   UNL     1      -2.648   0.423  -2.168  0.00  0.00    +0.026 A 
ATOM     25  C   UNL     1      -2.025  -0.768  -1.782  0.00  0.00    +0.015 A 
ATOM     26  C   UNL     1      -2.655  -1.974  -1.994  0.00  0.00    +0.050 A 
ATOM     27  C   UNL     1      -3.905  -2.014  -2.601  0.00  0.00    +0.162 A 
ATOM     28  C   UNL     1      -4.530  -0.832  -2.992  0.00  0.00    +0.163 A 
ATOM     29  C   UNL     1      -3.905   0.383  -2.778  0.00  0.00    +0.061 A 
ATOM     30  O   UNL     1      -5.758  -0.855  -3.580  0.00  0.00    -0.485 OA
ATOM     31  C   UNL     1      -6.192  -2.110  -4.114  0.00  0.00    +0.270 C 
ATOM     32  C   UNL     1      -5.911  -3.199  -3.070  0.00  0.00    +0.270 C 
ATOM     33  O   UNL     1      -4.504  -3.217  -2.809  0.00  0.00    -0.485 OA
ENDBRANCH  22  24
ENDBRANCH   2  22
BRANCH   6  34
ATOM     34  C   UNL     1       1.577   1.384   1.827  0.00  0.00    +0.090 C 
BRANCH  34  35
ATOM     35  C   UNL     1       2.094  -0.054   1.883  0.00  0.00    -0.060 C 
BRANCH  35  38
ATOM     36  C   UNL     1       3.065  -1.708   3.361  0.00  0.00    -0.097 C 
ATOM     37  C   UNL     1       3.982   0.531   3.282  0.00  0.00    -0.097 C 
ATOM     38  N   UNL     1       2.747  -0.275   3.191  0.00  0.00    +0.377 N 
ATOM     39  H   UNL     1       2.104   0.014   3.938  0.00  0.00    -0.083 HD
ENDBRANCH  35  38
ENDBRANCH  34  35
ENDBRANCH   6  34
TORSDOF 12
