REMARK  Name = ZINC38573487
REMARK  6 active torsions:
REMARK  status: ('A' for Active; 'I' for Inactive)
REMARK    1  A    between atoms: C_1  and  C_2
REMARK    2  A    between atoms: C_5  and  C_9
REMARK    3  A    between atoms: C_6  and  O_8
REMARK    4  A    between atoms: C_11  and  C_15
REMARK    5  A    between atoms: N_17  and  C_18
REMARK    6  A    between atoms: C_23  and  C_24
REMARK                            x       y       z     vdW  Elec       q    Type
REMARK                         _______ _______ _______ _____ _____    ______ ____
ROOT
ATOM      1  C   UNL     1       0.037  -4.273  -0.042  0.00  0.00    +0.095 C 
ATOM      2  C   UNL     1       0.051  -5.049   1.059  0.00  0.00    +0.041 C 
ATOM      3  C   UNL     1       0.080  -6.463   0.507  0.00  0.00    +0.239 C 
ATOM      4  N   UNL     1       0.078  -6.255  -0.950  0.00  0.00    -0.170 NA
ATOM      5  N   UNL     1       0.049  -5.041  -1.163  0.00  0.00    -0.153 NA
ENDROOT
BRANCH   1  10
ATOM      6  C   UNL     1      -0.084   1.488  -0.009  0.00  0.00    +0.044 C 
ATOM      7  C   UNL     1      -0.052  -0.019  -0.014  0.00  0.00    -0.047 A 
ATOM      8  C   UNL     1      -0.041  -0.703  -1.217  0.00  0.00    +0.004 A 
ATOM      9  C   UNL     1      -0.012  -2.083  -1.232  0.00  0.00    +0.014 A 
ATOM     10  C   UNL     1       0.006  -2.790  -0.032  0.00  0.00    +0.043 A 
ATOM     11  C   UNL     1      -0.005  -2.096   1.182  0.00  0.00    +0.126 A 
ATOM     12  C   UNL     1      -0.028  -0.711   1.182  0.00  0.00    +0.049 A 
BRANCH  11  13
ATOM     13  O   UNL     1       0.013  -2.777   2.357  0.00  0.00    -0.506 OA
ATOM     14  H   UNL     1       0.901  -2.956   2.695  0.00  0.00    +0.292 HD
ENDBRANCH  11  13
ENDBRANCH   1  10
BRANCH   3  15
ATOM     15  C   UNL     1       1.332  -7.179   0.944  0.00  0.00    +0.248 C 
ATOM     16  O   UNL     1       2.272  -7.276   0.184  0.00  0.00    -0.273 OA
ATOM     17  N   UNL     1       1.407  -7.712   2.180  0.00  0.00    -0.283 N 
ATOM     18  H   UNL     1       0.689  -7.566   2.816  0.00  0.00    +0.155 HD
BRANCH  17  19
ATOM     19  C   UNL     1       2.521  -8.475   2.546  0.00  0.00    +0.038 A 
ATOM     20  C   UNL     1       3.275  -9.117   1.573  0.00  0.00    +0.023 A 
ATOM     21  C   UNL     1       4.375  -9.870   1.937  0.00  0.00    +0.003 A 
ATOM     22  C   UNL     1       4.726  -9.985   3.269  0.00  0.00    +0.020 A 
ATOM     23  C   UNL     1       3.977  -9.346   4.242  0.00  0.00    +0.046 A 
ATOM     24  C   UNL     1       2.878  -8.587   3.883  0.00  0.00    -0.011 A 
ATOM     25  C   UNL     1       2.067  -7.886   4.942  0.00  0.00    +0.047 C 
ATOM     26 CL   UNL     1       4.420  -9.493   5.914  0.00  0.00    -0.083 Cl
ENDBRANCH  17  19
ENDBRANCH   3  15
TORSDOF 4
