REMARK  Name = ZINC39654850
REMARK  5 active torsions:
REMARK  status: ('A' for Active; 'I' for Inactive)
REMARK    1  A    between atoms: C_3  and  C_6
REMARK    2  A    between atoms: C_6  and  N_7
REMARK    3  A    between atoms: C_8  and  C_10
REMARK    4  A    between atoms: C_21  and  C_23
REMARK    5  A    between atoms: C_23  and  C_24
REMARK                            x       y       z     vdW  Elec       q    Type
REMARK                         _______ _______ _______ _____ _____    ______ ____
ROOT
ATOM      1  C   UNL     1       5.944   0.555   2.996  0.00  0.00    +0.100 C 
ATOM      2  C   UNL     1       5.649   1.902   3.694  0.00  0.00    +0.121 C 
ATOM      3  N   UNL     1       6.840   2.155   4.538  0.00  0.00    -0.300 N 
ATOM      4  C   UNL     1       7.983   1.710   3.706  0.00  0.00    +0.115 C 
ATOM      5  C   UNL     1       7.477   0.433   3.005  0.00  0.00    -0.004 C 
ATOM      6  C   UNL     1       7.904  -0.804   3.789  0.00  0.00    -0.010 C 
ATOM      7  C   UNL     1       9.428  -0.935   3.736  0.00  0.00    -0.082 C 
ATOM      8  N   UNL     1       9.864  -1.043   2.339  0.00  0.00    +0.379 N 
ATOM      9  C   UNL     1       9.531   0.190   1.614  0.00  0.00    -0.082 C 
ATOM     10  C   UNL     1       8.011   0.369   1.577  0.00  0.00    -0.010 C 
ATOM     11  C   UNL     1       6.876   2.672   5.782  0.00  0.00    +0.220 C 
ATOM     12  O   UNL     1       7.939   2.820   6.347  0.00  0.00    -0.275 OA
ATOM     13  H   UNL     1      10.861  -1.190   2.309  0.00  0.00    -0.086 HD
ATOM     14  H   UNL     1       9.398  -1.824   1.902  0.00  0.00    -0.086 HD
ENDROOT
BRANCH   1  16
ATOM     15  N   UNL     1       5.046  -0.574   0.986  0.00  0.00    -0.308 N 
ATOM     16  C   UNL     1       5.428   0.575   1.580  0.00  0.00    +0.219 C 
ATOM     17  O   UNL     1       5.355   1.623   0.975  0.00  0.00    -0.275 OA
ATOM     18  H   UNL     1       5.104  -1.413   1.470  0.00  0.00    +0.149 HD
BRANCH  15  19
ATOM     19  C   UNL     1       4.545  -0.555  -0.390  0.00  0.00    +0.178 C 
BRANCH  19  22
ATOM     20  C   UNL     1       3.100  -3.849  -1.196  0.00  0.00    +0.041 A 
ATOM     21  C   UNL     1       2.989  -2.544  -0.663  0.00  0.00    +0.046 A 
ATOM     22  C   UNL     1       4.189  -1.957  -0.814  0.00  0.00    +0.122 A 
ATOM     23  O   UNL     1       5.018  -2.832  -1.407  0.00  0.00    -0.466 OA
ATOM     24  C   UNL     1       4.363  -3.981  -1.641  0.00  0.00    +0.195 A 
ENDBRANCH  19  22
ENDBRANCH  15  19
ENDBRANCH   1  16
BRANCH  11  25
ATOM     25  C   UNL     1       5.596   3.068   6.471  0.00  0.00    +0.131 C 
BRANCH  25  26
ATOM     26  C   UNL     1       5.910   3.615   7.840  0.00  0.00    -0.039 A 
ATOM     27  C   UNL     1       5.966   2.763   8.927  0.00  0.00    +0.005 A 
ATOM     28  C   UNL     1       6.255   3.264  10.183  0.00  0.00    +0.020 A 
ATOM     29  C   UNL     1       6.486   4.617  10.351  0.00  0.00    +0.041 A 
ATOM     30  C   UNL     1       6.428   5.469   9.263  0.00  0.00    +0.020 A 
ATOM     31  C   UNL     1       6.146   4.966   8.007  0.00  0.00    +0.005 A 
ATOM     32 CL   UNL     1       6.847   5.247  11.928  0.00  0.00    -0.084 Cl
ENDBRANCH  25  26
ENDBRANCH  11  25
TORSDOF 5
