REMARK  Name = ZINC00715168
REMARK  6 active torsions:
REMARK  status: ('A' for Active; 'I' for Inactive)
REMARK    1  A    between atoms: C_1  and  C_2
REMARK    2  A    between atoms: C_3  and  C_16
REMARK    3  A    between atoms: C_4  and  C_10
REMARK    4  A    between atoms: C_16  and  O_18
REMARK    5  A    between atoms: O_18  and  C_19
REMARK    6  A    between atoms: C_19  and  C_20
REMARK                            x       y       z     vdW  Elec       q    Type
REMARK                         _______ _______ _______ _____ _____    ______ ____
ROOT
ATOM      1  C   UNL     1       2.425  -0.198   0.205  0.00  0.00    +0.061 C 
ATOM      2  C   UNL     1       2.391   1.304   0.093  0.00  0.00    +0.021 C 
ATOM      3  C   UNL     1       1.205   1.932  -0.066  0.00  0.00    +0.078 C 
ATOM      4  C   UNL     1       1.216   3.443  -0.168  0.00  0.00    +0.143 C 
ATOM      5  N   UNL     1       2.527   4.108  -0.092  0.00  0.00    -0.288 N 
ATOM      6  C   UNL     1       3.626   3.344   0.063  0.00  0.00    +0.304 C 
ATOM      7  O   UNL     1       4.713   3.883   0.128  0.00  0.00    -0.252 OA
ATOM      8  N   UNL     1       3.559   2.009   0.148  0.00  0.00    -0.273 N 
ATOM      9  H   UNL     1       2.599   5.074  -0.151  0.00  0.00    +0.151 HD
ATOM     10  H   UNL     1       4.387   1.515   0.259  0.00  0.00    +0.156 HD
ENDROOT
BRANCH   4  11
ATOM     11  C   UNL     1       0.353   3.990   0.940  0.00  0.00    -0.023 A 
ATOM     12  C   UNL     1       0.855   4.084   2.224  0.00  0.00    +0.006 A 
ATOM     13  C   UNL     1       0.065   4.589   3.240  0.00  0.00    +0.000 A 
ATOM     14  C   UNL     1      -1.230   4.992   2.973  0.00  0.00    +0.000 A 
ATOM     15  C   UNL     1      -1.734   4.894   1.689  0.00  0.00    +0.000 A 
ATOM     16  C   UNL     1      -0.942   4.393   0.673  0.00  0.00    +0.006 A 
ENDBRANCH   4  11
BRANCH   3  17
ATOM     17  C   UNL     1      -0.005   1.203  -0.128  0.00  0.00    +0.339 C 
ATOM     18  O   UNL     1      -0.521   0.971  -1.206  0.00  0.00    -0.245 OA
BRANCH  17  19
ATOM     19  O   UNL     1      -0.591   0.769   1.007  0.00  0.00    -0.457 OA
BRANCH  19  20
ATOM     20  C   UNL     1      -1.815   0.044   0.870  0.00  0.00    +0.287 C 
BRANCH  20  21
ATOM     21  C   UNL     1      -2.325  -0.362   2.254  0.00  0.00    +0.224 C 
ATOM     22 CL   UNL     1      -2.610   1.115   3.247  0.00  0.00    -0.080 Cl
ATOM     23 CL   UNL     1      -3.869  -1.277   2.081  0.00  0.00    -0.080 Cl
ATOM     24 CL   UNL     1      -1.097  -1.404   3.065  0.00  0.00    -0.080 Cl
ENDBRANCH  20  21
ENDBRANCH  19  20
ENDBRANCH  17  19
ENDBRANCH   3  17
TORSDOF 5
