REMARK  Name = ZINC19864093
REMARK  7 active torsions:
REMARK  status: ('A' for Active; 'I' for Inactive)
REMARK    1  A    between atoms: C_3  and  O_26
REMARK    2  A    between atoms: C_6  and  C_7
REMARK    3  A    between atoms: N_8  and  N_9
REMARK    4  A    between atoms: C_10  and  C_12
REMARK    5  A    between atoms: C_12  and  O_13
REMARK    6  A    between atoms: O_13  and  C_14
REMARK    7  A    between atoms: C_19  and  C_20
REMARK                            x       y       z     vdW  Elec       q    Type
REMARK                         _______ _______ _______ _____ _____    ______ ____
ROOT
ATOM      1  N   UNL     1      -3.962   5.069   4.681  0.00  0.00    -0.204 N 
ATOM      2  C   UNL     1      -3.248   4.452   3.719  0.00  0.00    +0.270 C 
ATOM      3  O   UNL     1      -2.064   4.686   3.598  0.00  0.00    -0.270 OA
ATOM      4  H   UNL     1      -5.036   4.857   4.791  0.00  0.00    +0.177 HD
ENDROOT
BRANCH   1   6
ATOM      5  C   UNL     1      -4.025   6.575   6.468  0.00  0.00    +0.138 C 
ATOM      6  N   UNL     1      -3.337   5.981   5.542  0.00  0.00    -0.188 NA
BRANCH   5  12
ATOM      7  C   UNL     1      -2.002   7.802   7.240  0.00  0.00    +0.013 A 
ATOM      8  C   UNL     1      -1.392   8.703   8.085  0.00  0.00    +0.046 A 
ATOM      9  C   UNL     1      -2.131   9.339   9.075  0.00  0.00    +0.117 A 
ATOM     10  C   UNL     1      -3.486   9.072   9.216  0.00  0.00    +0.046 A 
ATOM     11  C   UNL     1      -4.106   8.176   8.372  0.00  0.00    +0.013 A 
ATOM     12  C   UNL     1      -3.367   7.535   7.373  0.00  0.00    -0.005 A 
BRANCH   9  13
ATOM     13  O   UNL     1      -1.524  10.223   9.910  0.00  0.00    -0.507 OA
ATOM     14  H   UNL     1      -2.107  10.727  10.695  0.00  0.00    +0.292 HD
ENDBRANCH   9  13
ENDBRANCH   5  12
ENDBRANCH   1   6
BRANCH   2  15
ATOM     15  C   UNL     1      -3.920   3.471   2.793  0.00  0.00    +0.326 C 
BRANCH  15  16
ATOM     16  O   UNL     1      -2.961   2.955   1.868  0.00  0.00    -0.482 OA
BRANCH  16  17
ATOM     17  C   UNL     1      -3.408   2.051   0.958  0.00  0.00    +0.132 A 
ATOM     18  C   UNL     1      -4.740   1.672   0.950  0.00  0.00    +0.047 A 
ATOM     19  C   UNL     1      -5.192   0.749   0.026  0.00  0.00    +0.019 A 
ATOM     20  C   UNL     1      -4.320   0.200  -0.899  0.00  0.00    +0.019 A 
ATOM     21  C   UNL     1      -2.991   0.571  -0.907  0.00  0.00    +0.030 A 
ATOM     22  C   UNL     1      -2.523   1.503   0.020  0.00  0.00    +0.063 A 
ATOM     23 BR   UNL     1      -4.953  -1.063  -2.157  0.00  0.00    -0.050 Br
BRANCH  22  24
ATOM     24  C   UNL     1      -1.102   1.905   0.017  0.00  0.00    +0.171 A 
ATOM     25  C   UNL     1      -0.013   1.076   0.008  0.00  0.00    +0.072 A 
ATOM     26  C   UNL     1       1.085   1.960   0.002  0.00  0.00    +0.157 A 
ATOM     27  N   UNL     1       0.592   3.166   0.013  0.00  0.00    -0.086 NA
ATOM     28  O   UNL     1      -0.617   3.160   0.024  0.00  0.00    -0.355 OA
ENDBRANCH  22  24
ENDBRANCH  16  17
ENDBRANCH  15  16
ENDBRANCH   2  15
TORSDOF 7
