REMARK  Name = ZINC28052576
REMARK  7 active torsions:
REMARK  status: ('A' for Active; 'I' for Inactive)
REMARK    1  A    between atoms: C_1  and  C_2
REMARK    2  A    between atoms: C_10  and  C_12
REMARK    3  A    between atoms: C_22  and  C_25
REMARK    4  A    between atoms: C_28  and  O_33
REMARK    5  A    between atoms: C_29  and  O_31
REMARK    6  A    between atoms: O_31  and  C_32
REMARK    7  A    between atoms: O_33  and  C_34
REMARK                            x       y       z     vdW  Elec       q    Type
REMARK                         _______ _______ _______ _____ _____    ______ ____
ROOT
ATOM      1  C   UNL     1      -2.078   0.174  -3.159  0.00  0.00    +0.069 C 
ATOM      2  C   UNL     1      -3.160   1.021  -2.542  0.00  0.00    +0.087 A 
ATOM      3  C   UNL     1      -3.310   1.337  -1.194  0.00  0.00    +0.049 A 
ATOM      4  C   UNL     1      -4.434   2.120  -1.148  0.00  0.00    +0.226 A 
ATOM      5  O   UNL     1      -4.867   2.225  -2.400  0.00  0.00    -0.339 OA
ATOM      6  N   UNL     1      -4.151   1.609  -3.165  0.00  0.00    -0.081 NA
ATOM      7  N   UNL     1      -4.902   2.627   0.047  0.00  0.00    -0.286 N 
ATOM      8  C   UNL     1      -4.408   2.108   1.220  0.00  0.00    +0.019 C 
ATOM      9  C   UNL     1      -3.307   1.327   1.263  0.00  0.00    +0.024 C 
ATOM     10  C   UNL     1      -2.514   0.979   0.020  0.00  0.00    +0.091 C 
ATOM     11  C   UNL     1      -2.845   0.794   2.479  0.00  0.00    +0.162 C 
ATOM     12  O   UNL     1      -1.842   0.109   2.484  0.00  0.00    -0.292 OA
ATOM     13  C   UNL     1      -3.564   1.052   3.774  0.00  0.00    +0.088 C 
ATOM     14  C   UNL     1      -5.049   1.290   3.479  0.00  0.00    +0.032 C 
ATOM     15  C   UNL     1      -5.161   2.448   2.486  0.00  0.00    +0.059 C 
ATOM     16  H   UNL     1      -5.655   3.429   0.047  0.00  0.00    +0.155 HD
ENDROOT
BRANCH  10  17
ATOM     17  C   UNL     1      -1.219   1.751   0.017  0.00  0.00    -0.035 A 
ATOM     18  C   UNL     1      -0.013   1.076   0.008  0.00  0.00    +0.005 A 
ATOM     19  C   UNL     1       1.175   1.783   0.000  0.00  0.00    +0.015 A 
ATOM     20  C   UNL     1       1.156   3.166   0.008  0.00  0.00    +0.018 A 
ATOM     21  C   UNL     1      -0.051   3.841   0.022  0.00  0.00    +0.015 A 
ATOM     22  C   UNL     1      -1.238   3.133   0.030  0.00  0.00    +0.005 A 
ATOM     23 BR   UNL     1       2.780   4.134  -0.002  0.00  0.00    -0.050 Br
ENDBRANCH  10  17
BRANCH  14  24
ATOM     24  C   UNL     1      -5.771   1.641   4.754  0.00  0.00    -0.040 A 
ATOM     25  C   UNL     1      -5.389   2.755   5.479  0.00  0.00    +0.008 A 
ATOM     26  C   UNL     1      -6.052   3.084   6.646  0.00  0.00    +0.049 A 
ATOM     27  C   UNL     1      -7.094   2.290   7.099  0.00  0.00    +0.161 A 
ATOM     28  C   UNL     1      -7.474   1.166   6.373  0.00  0.00    +0.162 A 
ATOM     29  C   UNL     1      -6.809   0.845   5.200  0.00  0.00    +0.053 A 
BRANCH  28  30
ATOM     30  O   UNL     1      -8.496   0.384   6.813  0.00  0.00    -0.491 OA
ATOM     31  C   UNL     1      -8.832  -0.754   6.016  0.00  0.00    +0.277 C 
ENDBRANCH  28  30
BRANCH  27  32
ATOM     32  O   UNL     1      -7.743   2.610   8.251  0.00  0.00    -0.491 OA
ATOM     33  C   UNL     1      -7.298   3.778   8.944  0.00  0.00    +0.277 C 
ENDBRANCH  27  32
ENDBRANCH  14  24
TORSDOF 4
