REMARK  Name = ZINC56597388
REMARK  7 active torsions:
REMARK  status: ('A' for Active; 'I' for Inactive)
REMARK    1  A    between atoms: C_1  and  C_2
REMARK    2  A    between atoms: C_2  and  C_4
REMARK    3  A    between atoms: C_2  and  N_12
REMARK    4  A    between atoms: C_4  and  C_5
REMARK    5  A    between atoms: C_8  and  O_11
REMARK    6  A    between atoms: N_15  and  C_16
REMARK    7  A    between atoms: C_19  and  N_22
REMARK                            x       y       z     vdW  Elec       q    Type
REMARK                         _______ _______ _______ _____ _____    ______ ____
ROOT
ATOM      1  N   UNL     1      -1.370  -0.517   0.012  0.00  0.00    -0.296 N 
ATOM      2  C   UNL     1      -2.051  -0.641  -1.144  0.00  0.00    +0.304 C 
ATOM      3  O   UNL     1      -1.526  -0.331  -2.196  0.00  0.00    -0.253 OA
ATOM      4  N   UNL     1      -3.315  -1.109  -1.135  0.00  0.00    -0.269 N 
ATOM      5  H   UNL     1      -1.790  -0.764   0.851  0.00  0.00    +0.151 HD
ATOM      6  H   UNL     1      -3.711  -1.420  -0.306  0.00  0.00    +0.156 HD
ENDROOT
BRANCH   4   7
ATOM      7  C   UNL     1      -4.057  -1.148  -2.324  0.00  0.00    +0.035 A 
ATOM      8  C   UNL     1      -5.424  -0.902  -2.298  0.00  0.00    +0.025 A 
ATOM      9  C   UNL     1      -6.154  -0.940  -3.468  0.00  0.00    +0.026 A 
ATOM     10  C   UNL     1      -5.523  -1.223  -4.673  0.00  0.00    +0.051 A 
ATOM     11  C   UNL     1      -4.156  -1.468  -4.699  0.00  0.00    +0.026 A 
ATOM     12  C   UNL     1      -3.425  -1.425  -3.528  0.00  0.00    +0.025 A 
BRANCH  10  13
ATOM     13  N   UNL     1      -6.263  -1.261  -5.859  0.00  0.00    -0.207 N 
ATOM     14  C   UNL     1      -7.706  -1.530  -5.997  0.00  0.00    +0.133 C 
ATOM     15  C   UNL     1      -8.281  -0.813  -7.233  0.00  0.00    +0.045 C 
ATOM     16  C   UNL     1      -7.259  -1.094  -8.376  0.00  0.00    +0.190 C 
ATOM     17  S   UNL     1      -5.693  -1.003  -7.414  0.00  0.00    +0.046 S 
ATOM     18  O   UNL     1      -5.177   0.321  -7.415  0.00  0.00    -0.155 OA
ATOM     19  O   UNL     1      -4.862  -2.119  -7.703  0.00  0.00    -0.155 OA
ENDBRANCH  10  13
ENDBRANCH   4   7
BRANCH   1  21
ATOM     20  C   UNL     1      -0.019   1.522   0.021  0.00  0.00    +0.028 C 
ATOM     21  C   UNL     1       0.003  -0.008   0.002  0.00  0.00    +0.076 C 
BRANCH  21  22
ATOM     22  C   UNL     1       0.747  -0.522   1.236  0.00  0.00    +0.057 C 
BRANCH  22  23
ATOM     23  C   UNL     1       0.877  -2.022   1.156  0.00  0.00    -0.045 A 
ATOM     24  C   UNL     1      -0.109  -2.829   1.691  0.00  0.00    +0.007 A 
ATOM     25  C   UNL     1       0.007  -4.204   1.619  0.00  0.00    +0.045 A 
ATOM     26  C   UNL     1       1.115  -4.774   1.008  0.00  0.00    +0.117 A 
ATOM     27  C   UNL     1       2.103  -3.961   0.471  0.00  0.00    +0.045 A 
ATOM     28  C   UNL     1       1.979  -2.587   0.541  0.00  0.00    +0.007 A 
BRANCH  26  29
ATOM     29  O   UNL     1       1.232  -6.126   0.936  0.00  0.00    -0.507 OA
ATOM     30  H   UNL     1       0.841  -6.513   0.141  0.00  0.00    +0.292 HD
ENDBRANCH  26  29
ENDBRANCH  22  23
ENDBRANCH  21  22
ENDBRANCH   1  21
TORSDOF 6
