REMARK  Name = ZINC42391103
REMARK  5 active torsions:
REMARK  status: ('A' for Active; 'I' for Inactive)
REMARK    1  A    between atoms: C_1  and  N_2
REMARK    2  A    between atoms: C_3  and  C_5
REMARK    3  A    between atoms: N_10  and  C_11
REMARK    4  A    between atoms: C_11  and  C_12
REMARK    5  A    between atoms: C_14  and  N_22
REMARK                            x       y       z     vdW  Elec       q    Type
REMARK                         _______ _______ _______ _____ _____    ______ ____
ROOT
ATOM      1  C   UNL     1       1.275  -2.991  -4.620  0.00  0.00    -0.020 A 
ATOM      2  C   UNL     1       1.154  -4.206  -5.265  0.00  0.00    +0.028 A 
ATOM      3  C   UNL     1       1.905  -4.463  -6.404  0.00  0.00    +0.025 A 
ATOM      4  C   UNL     1       2.777  -3.499  -6.891  0.00  0.00    +0.032 A 
ATOM      5  C   UNL     1       2.898  -2.284  -6.243  0.00  0.00    +0.022 A 
ATOM      6  C   UNL     1       2.141  -2.025  -5.111  0.00  0.00    +0.130 A 
ATOM      7  O   UNL     1       2.240  -0.827  -4.473  0.00  0.00    -0.466 OA
ATOM      8  C   UNL     1       3.379  -0.020  -4.786  0.00  0.00    +0.394 C 
ATOM      9  O   UNL     1       3.526   0.030  -6.210  0.00  0.00    -0.339 OA
ATOM     10  C   UNL     1       3.851  -1.246  -6.779  0.00  0.00    +0.202 C 
ENDROOT
BRANCH   3  11
ATOM     11  N   UNL     1       1.784  -5.693  -7.061  0.00  0.00    -0.358 N 
ATOM     12  H   UNL     1       1.175  -6.366  -6.720  0.00  0.00    +0.142 HD
ATOM     13  H   UNL     1       2.309  -5.872  -7.857  0.00  0.00    +0.142 HD
ENDBRANCH   3  11
BRANCH   1  14
ATOM     14  C   UNL     1       0.459  -2.713  -3.383  0.00  0.00    -0.038 C 
BRANCH  14  19
ATOM     15  C   UNL     1       0.560  -2.448  -0.977  0.00  0.00    +0.020 C 
ATOM     16  C   UNL     1       1.329  -3.155   0.167  0.00  0.00    -0.008 C 
ATOM     17  C   UNL     1       1.728  -4.507  -0.467  0.00  0.00    -0.020 C 
ATOM     18  C   UNL     1       1.686  -4.265  -1.988  0.00  0.00    -0.077 C 
ATOM     19  N   UNL     1       1.312  -2.847  -2.194  0.00  0.00    +0.390 N 
ATOM     20  H   UNL     1       2.141  -2.281  -2.293  0.00  0.00    -0.080 HD
BRANCH  15  23
ATOM     21  C   UNL     1       0.042   1.065   0.453  0.00  0.00    +0.128 C 
ATOM     22  N   UNL     1       0.008  -0.389   0.278  0.00  0.00    -0.320 N 
ATOM     23  C   UNL     1       0.595  -0.952  -0.797  0.00  0.00    +0.199 C 
ATOM     24  O   UNL     1       1.151  -0.255  -1.619  0.00  0.00    -0.278 OA
ATOM     25  H   UNL     1      -0.436  -0.946   0.935  0.00  0.00    +0.148 HD
ENDBRANCH  15  23
ENDBRANCH  14  19
ENDBRANCH   1  14
TORSDOF 4
