REMARK  Name = ZINC67063477
REMARK  7 active torsions:
REMARK  status: ('A' for Active; 'I' for Inactive)
REMARK    1  A    between atoms: C_1  and  C_2
REMARK    2  A    between atoms: C_2  and  C_3
REMARK    3  A    between atoms: C_3  and  C_5
REMARK    4  A    between atoms: C_3  and  N_15
REMARK    5  A    between atoms: N_18  and  C_19
REMARK    6  A    between atoms: C_19  and  C_21
REMARK    7  A    between atoms: C_19  and  C_22
REMARK                            x       y       z     vdW  Elec       q    Type
REMARK                         _______ _______ _______ _____ _____    ______ ____
ROOT
ATOM      1  N   UNL     1      -0.055  -0.114  -2.441  0.00  0.00    -0.290 N 
ATOM      2  C   UNL     1       0.107   1.109  -2.984  0.00  0.00    +0.301 C 
ATOM      3  O   UNL     1       0.895   1.893  -2.492  0.00  0.00    -0.253 OA
ATOM      4  N   UNL     1      -0.604   1.462  -4.073  0.00  0.00    -0.293 N 
ATOM      5  H   UNL     1      -0.683  -0.740  -2.833  0.00  0.00    +0.151 HD
ATOM      6  H   UNL     1      -1.233   0.836  -4.466  0.00  0.00    +0.151 HD
ENDROOT
BRANCH   4   7
ATOM      7  C   UNL     1      -0.428   2.791  -4.664  0.00  0.00    +0.102 C 
ATOM      8  C   UNL     1       0.759   2.767  -5.628  0.00  0.00    +0.033 C 
BRANCH   7   9
ATOM      9  C   UNL     1      -1.677   3.176  -5.414  0.00  0.00    -0.025 A 
ATOM     10  C   UNL     1      -2.352   2.229  -6.161  0.00  0.00    +0.009 A 
ATOM     11  C   UNL     1      -3.500   2.574  -6.852  0.00  0.00    +0.048 A 
ATOM     12  C   UNL     1      -3.974   3.873  -6.796  0.00  0.00    +0.142 A 
ATOM     13  C   UNL     1      -3.292   4.829  -6.044  0.00  0.00    +0.076 A 
ATOM     14  C   UNL     1      -2.147   4.475  -5.349  0.00  0.00    +0.032 A 
ATOM     15  N   UNL     1      -3.781   6.142  -5.997  0.00  0.00    -0.280 N 
ATOM     16  C   UNL     1      -5.045   6.384  -6.407  0.00  0.00    +0.255 C 
ATOM     17  O   UNL     1      -5.479   7.517  -6.406  0.00  0.00    -0.272 OA
ATOM     18  C   UNL     1      -5.914   5.241  -6.867  0.00  0.00    +0.325 C 
ATOM     19  O   UNL     1      -5.101   4.230  -7.468  0.00  0.00    -0.481 OA
ATOM     20  H   UNL     1      -3.221   6.865  -5.676  0.00  0.00    +0.155 HD
ENDBRANCH   7   9
ENDBRANCH   4   7
BRANCH   1  21
ATOM     21  C   UNL     1       0.718  -0.497  -1.257  0.00  0.00    +0.140 C 
BRANCH  21  22
ATOM     22  C   UNL     1       0.847  -1.998  -1.206  0.00  0.00    +0.129 A 
ATOM     23  N   UNL     1       0.413  -2.851  -2.172  0.00  0.00    -0.340 N 
ATOM     24  H   UNL     1      -0.027  -2.605  -3.001  0.00  0.00    +0.167 HD
ATOM     25  C   UNL     1       0.714  -4.132  -1.755  0.00  0.00    +0.066 A 
ATOM     26  C   UNL     1       0.523  -5.396  -2.298  0.00  0.00    +0.028 A 
ATOM     27  C   UNL     1       0.953  -6.508  -1.606  0.00  0.00    +0.002 A 
ATOM     28  C   UNL     1       1.572  -6.372  -0.372  0.00  0.00    +0.002 A 
ATOM     29  C   UNL     1       1.768  -5.137   0.178  0.00  0.00    +0.030 A 
ATOM     30  C   UNL     1       1.342  -3.995  -0.506  0.00  0.00    +0.089 A 
ATOM     31  N   UNL     1       1.396  -2.666  -0.233  0.00  0.00    -0.231 NA
ENDBRANCH  21  22
BRANCH  21  33
ATOM     32  C   UNL     1      -0.019   1.526   0.010  0.00  0.00    +0.006 C 
ATOM     33  C   UNL     1       0.002  -0.004   0.002  0.00  0.00    +0.027 C 
ENDBRANCH  21  33
ENDBRANCH   1  21
TORSDOF 5
