REMARK  Name = ZINC00797894
REMARK  11 active torsions:
REMARK  status: ('A' for Active; 'I' for Inactive)
REMARK    1  A    between atoms: C_1  and  C_2
REMARK    2  A    between atoms: C_3  and  C_37
REMARK    3  A    between atoms: C_4  and  C_17
REMARK    4  A    between atoms: C_19  and  O_35
REMARK    5  A    between atoms: C_20  and  O_24
REMARK    6  A    between atoms: O_24  and  C_25
REMARK    7  A    between atoms: C_25  and  C_26
REMARK    8  A    between atoms: C_29  and  N_32
REMARK    9  A    between atoms: O_35  and  C_36
REMARK   10  A    between atoms: C_37  and  O_39
REMARK   11  A    between atoms: O_39  and  C_40
REMARK                            x       y       z     vdW  Elec       q    Type
REMARK                         _______ _______ _______ _____ _____    ______ ____
ROOT
ATOM      1  C   UNL     1      -0.018   1.503   0.010  0.00  0.00    +0.061 C 
ATOM      2  C   UNL     1       0.002  -0.004   0.002  0.00  0.00    +0.016 C 
ATOM      3  C   UNL     1      -1.166  -0.660   0.004  0.00  0.00    +0.065 C 
ATOM      4  C   UNL     1      -1.265  -2.162  -0.015  0.00  0.00    +0.093 C 
ATOM      5  C   UNL     1       0.095  -2.748   0.274  0.00  0.00    +0.034 C 
ATOM      6  C   UNL     1       1.240  -1.993   0.263  0.00  0.00    +0.047 C 
ATOM      7  N   UNL     1       1.214  -0.642  -0.013  0.00  0.00    -0.317 N 
ATOM      8  C   UNL     1       2.384  -2.857   0.576  0.00  0.00    +0.007 A 
ATOM      9  C   UNL     1       3.740  -2.594   0.686  0.00  0.00    +0.010 A 
ATOM     10  C   UNL     1       4.571  -3.671   1.005  0.00  0.00    +0.001 A 
ATOM     11  C   UNL     1       4.076  -4.939   1.202  0.00  0.00    +0.001 A 
ATOM     12  C   UNL     1       2.710  -5.221   1.094  0.00  0.00    +0.012 A 
ATOM     13  C   UNL     1       1.877  -4.165   0.779  0.00  0.00    +0.031 A 
ATOM     14  C   UNL     1       0.412  -4.089   0.585  0.00  0.00    +0.193 C 
ATOM     15  O   UNL     1      -0.375  -5.012   0.676  0.00  0.00    -0.287 OA
ATOM     16  H   UNL     1       2.031  -0.157  -0.209  0.00  0.00    +0.152 HD
ENDROOT
BRANCH   4  17
ATOM     17  C   UNL     1      -1.735  -2.620  -1.372  0.00  0.00    -0.030 A 
ATOM     18  C   UNL     1      -2.914  -3.333  -1.488  0.00  0.00    +0.054 A 
ATOM     19  C   UNL     1      -3.348  -3.755  -2.735  0.00  0.00    +0.163 A 
ATOM     20  C   UNL     1      -2.596  -3.458  -3.868  0.00  0.00    +0.181 A 
ATOM     21  C   UNL     1      -1.416  -2.742  -3.744  0.00  0.00    +0.086 A 
ATOM     22  C   UNL     1      -0.991  -2.320  -2.497  0.00  0.00    +0.028 A 
ATOM     23 CL   UNL     1      -0.474  -2.371  -5.154  0.00  0.00    -0.080 Cl
BRANCH  19  24
ATOM     24  O   UNL     1      -4.507  -4.458  -2.851  0.00  0.00    -0.491 OA
ATOM     25  C   UNL     1      -5.226  -4.726  -1.646  0.00  0.00    +0.277 C 
ENDBRANCH  19  24
BRANCH  20  26
ATOM     26  O   UNL     1      -3.018  -3.871  -5.093  0.00  0.00    -0.482 OA
BRANCH  26  27
ATOM     27  C   UNL     1      -3.865  -2.980  -5.821  0.00  0.00    +0.264 C 
BRANCH  27  28
ATOM     28  C   UNL     1      -4.228  -3.601  -7.145  0.00  0.00    -0.010 A 
ATOM     29  C   UNL     1      -3.429  -3.386  -8.252  0.00  0.00    +0.009 A 
ATOM     30  C   UNL     1      -3.763  -3.956  -9.467  0.00  0.00    +0.033 A 
ATOM     31  C   UNL     1      -4.895  -4.742  -9.574  0.00  0.00    +0.126 A 
ATOM     32  C   UNL     1      -5.694  -4.958  -8.466  0.00  0.00    +0.033 A 
ATOM     33  C   UNL     1      -5.358  -4.391  -7.251  0.00  0.00    +0.009 A 
BRANCH  31  34
ATOM     34  N   UNL     1      -5.252  -5.352 -10.874  0.00  0.00    +0.056 N 
ATOM     35  O   UNL     1      -4.554  -5.163 -11.843  0.00  0.00    -0.126 OA
ATOM     36  O   UNL     1      -6.243  -6.039 -10.968  0.00  0.00    -0.126 OA
ENDBRANCH  31  34
ENDBRANCH  27  28
ENDBRANCH  26  27
ENDBRANCH  20  26
ENDBRANCH   4  17
BRANCH   3  37
ATOM     37  C   UNL     1      -2.363   0.094   0.026  0.00  0.00    +0.337 C 
ATOM     38  O   UNL     1      -2.316   1.310   0.042  0.00  0.00    -0.245 OA
BRANCH  37  39
ATOM     39  O   UNL     1      -3.557  -0.535   0.028  0.00  0.00    -0.465 OA
ATOM     40  C   UNL     1      -4.724   0.289   0.051  0.00  0.00    +0.280 C 
ENDBRANCH  37  39
ENDBRANCH   3  37
TORSDOF 8
