REMARK  Name = ZINC64635845
REMARK  7 active torsions:
REMARK  status: ('A' for Active; 'I' for Inactive)
REMARK    1  A    between atoms: C_1  and  N_2
REMARK    2  A    between atoms: N_2  and  C_3
REMARK    3  A    between atoms: N_2  and  C_9
REMARK    4  A    between atoms: C_3  and  C_4
REMARK    5  A    between atoms: C_4  and  C_5
REMARK    6  A    between atoms: C_9  and  C_10
REMARK    7  A    between atoms: C_20  and  C_21
REMARK                            x       y       z     vdW  Elec       q    Type
REMARK                         _______ _______ _______ _____ _____    ______ ____
ROOT
ATOM      1  C   UNL     1       2.269   0.093  -0.898  0.00  0.00    +0.200 C 
ATOM      2  O   UNL     1       2.810   0.788  -0.064  0.00  0.00    -0.278 OA
ATOM      3  N   UNL     1       2.964  -0.343  -1.966  0.00  0.00    -0.292 N 
ATOM      4  C   UNL     1       2.316  -1.181  -2.986  0.00  0.00    +0.114 C 
ATOM      5  C   UNL     1       2.290  -0.397  -4.308  0.00  0.00    +0.062 C 
ATOM      6  C   UNL     1       3.615   0.266  -4.498  0.00  0.00    -0.003 A 
ATOM      7  C   UNL     1       4.584   0.482  -3.567  0.00  0.00    -0.012 A 
ATOM      8  C   UNL     1       5.735   1.135  -4.002  0.00  0.00    +0.013 A 
ATOM      9  C   UNL     1       5.850   1.516  -5.295  0.00  0.00    +0.046 A 
ATOM     10  S   UNL     1       4.299   0.957  -5.982  0.00  0.00    -0.101 S 
ATOM     11  C   UNL     1       4.380   0.016  -2.131  0.00  0.00    +0.137 C 
ENDROOT
BRANCH  11  12
ATOM     12  C   UNL     1       5.246  -1.187  -1.861  0.00  0.00    -0.023 A 
ATOM     13  C   UNL     1       5.160  -2.298  -2.679  0.00  0.00    +0.006 A 
ATOM     14  C   UNL     1       5.955  -3.402  -2.432  0.00  0.00    +0.000 A 
ATOM     15  C   UNL     1       6.836  -3.395  -1.367  0.00  0.00    +0.000 A 
ATOM     16  C   UNL     1       6.923  -2.283  -0.550  0.00  0.00    +0.000 A 
ATOM     17  C   UNL     1       6.131  -1.178  -0.799  0.00  0.00    +0.006 A 
ENDBRANCH  11  12
BRANCH   1  18
ATOM     18  C   UNL     1       0.818  -0.281  -0.739  0.00  0.00    +0.018 C 
BRANCH  18  20
ATOM     19  C   UNL     1       0.303   1.778   0.378  0.00  0.00    -0.096 C 
ATOM     20  N   UNL     1       0.290   0.314   0.496  0.00  0.00    +0.384 N 
ATOM     21  H   UNL     1       0.866   0.034   1.276  0.00  0.00    -0.082 HD
BRANCH  20  22
ATOM     22  C   UNL     1      -1.087  -0.148   0.713  0.00  0.00    -0.070 C 
BRANCH  22  23
ATOM     23  C   UNL     1      -1.593   0.371   2.061  0.00  0.00    +0.095 C 
BRANCH  23  24
ATOM     24  C   UNL     1      -3.028  -0.110   2.286  0.00  0.00    +0.388 C 
ATOM     25  F   UNL     1      -3.056  -1.508   2.285  0.00  0.00    -0.171 F 
ATOM     26  F   UNL     1      -3.490   0.365   3.519  0.00  0.00    -0.171 F 
ATOM     27  F   UNL     1      -3.849   0.375   1.262  0.00  0.00    -0.171 F 
ENDBRANCH  23  24
ENDBRANCH  22  23
ENDBRANCH  20  22
ENDBRANCH  18  20
ENDBRANCH   1  18
TORSDOF 6
