REMARK  Name = ZINC15202432
REMARK  5 active torsions:
REMARK  status: ('A' for Active; 'I' for Inactive)
REMARK    1  A    between atoms: C_1  and  C_2
REMARK    2  A    between atoms: C_2  and  C_16
REMARK    3  A    between atoms: C_4  and  C_11
REMARK    4  A    between atoms: C_4  and  O_15
REMARK    5  A    between atoms: C_5  and  C_8
REMARK                            x       y       z     vdW  Elec       q    Type
REMARK                         _______ _______ _______ _____ _____    ______ ____
ROOT
ATOM      1  C   UNL     1      -0.019   1.526   0.010  0.00  0.00    +0.033 C 
ATOM      2  C   UNL     1       0.002  -0.004   0.002  0.00  0.00    +0.045 C 
ATOM      3  C   UNL     1       0.824  -0.533  -1.200  0.00  0.00    +0.072 C 
ATOM      4  C   UNL     1       2.282  -0.418  -0.699  0.00  0.00    +0.186 C 
ATOM      5  C   UNL     1       2.179  -0.397   0.837  0.00  0.00    +0.182 C 
ATOM      6  N   UNL     1       0.746  -0.525   1.178  0.00  0.00    -0.294 NA
ATOM      7  H   UNL     1       0.523   0.002   2.009  0.00  0.00    +0.124 HD
ENDROOT
BRANCH   2   8
ATOM      8  C   UNL     1      -1.401  -0.553  -0.026  0.00  0.00    -0.028 A 
ATOM      9  C   UNL     1      -2.016  -0.817  -1.235  0.00  0.00    +0.005 A 
ATOM     10  C   UNL     1      -3.303  -1.321  -1.261  0.00  0.00    +0.000 A 
ATOM     11  C   UNL     1      -3.975  -1.561  -0.077  0.00  0.00    +0.000 A 
ATOM     12  C   UNL     1      -3.360  -1.298   1.133  0.00  0.00    +0.000 A 
ATOM     13  C   UNL     1      -2.071  -0.798   1.158  0.00  0.00    +0.005 A 
ENDBRANCH   2   8
BRANCH   5  14
ATOM     14  C   UNL     1       2.724   0.903   1.370  0.00  0.00    +0.231 C 
ATOM     15  O   UNL     1       1.964   1.795   1.686  0.00  0.00    -0.274 OA
ATOM     16  N   UNL     1       4.054   1.075   1.496  0.00  0.00    -0.328 N 
ATOM     17  H   UNL     1       4.662   0.362   1.244  0.00  0.00    +0.145 HD
ATOM     18  H   UNL     1       4.405   1.912   1.839  0.00  0.00    +0.145 HD
ENDBRANCH   5  14
BRANCH   4  19
ATOM     19  C   UNL     1       3.099  -1.627  -1.160  0.00  0.00    +0.420 C 
ATOM     20  F   UNL     1       3.099  -1.684  -2.558  0.00  0.00    -0.168 F 
ATOM     21  F   UNL     1       4.414  -1.505  -0.698  0.00  0.00    -0.168 F 
ATOM     22  F   UNL     1       2.530  -2.797  -0.646  0.00  0.00    -0.168 F 
ENDBRANCH   4  19
BRANCH   4  23
ATOM     23  O   UNL     1       2.875   0.792  -1.173  0.00  0.00    -0.378 OA
ATOM     24  H   UNL     1       3.791   0.919  -0.890  0.00  0.00    +0.211 HD
ENDBRANCH   4  23
TORSDOF 4
