REMARK  Name = ZINC19664635
REMARK  11 active torsions:
REMARK  status: ('A' for Active; 'I' for Inactive)
REMARK    1  A    between atoms: C_1  and  C_2
REMARK    2  A    between atoms: C_2  and  C_3
REMARK    3  A    between atoms: C_3  and  C_5
REMARK    4  A    between atoms: C_3  and  N_14
REMARK    5  A    between atoms: C_6  and  C_13
REMARK    6  A    between atoms: N_8  and  C_11
REMARK    7  A    between atoms: C_9  and  C_10
REMARK    8  A    between atoms: C_11  and  C_12
REMARK    9  A    between atoms: C_15  and  C_17
REMARK   10  A    between atoms: C_19  and  C_27
REMARK   11  A    between atoms: N_30  and  C_32
REMARK                            x       y       z     vdW  Elec       q    Type
REMARK                         _______ _______ _______ _____ _____    ______ ____
ROOT
ATOM      1  N   UNL     1      -1.435   3.330   5.278  0.00  0.00    -0.304 N 
ATOM      2  C   UNL     1      -1.028   4.060   6.336  0.00  0.00    +0.245 C 
ATOM      3  O   UNL     1      -0.596   5.183   6.169  0.00  0.00    -0.270 OA
ATOM      4  H   UNL     1      -1.826   2.313   5.429  0.00  0.00    +0.150 HD
ENDROOT
BRANCH   2   5
ATOM      5  C   UNL     1      -1.106   3.492   7.700  0.00  0.00    +0.048 A 
ATOM      6  C   UNL     1      -1.701   2.261   7.936  0.00  0.00    +0.043 A 
ATOM      7  C   UNL     1      -1.747   1.758   9.245  0.00  0.00    +0.092 A 
ATOM      8  N   UNL     1      -1.255   2.420  10.271  0.00  0.00    -0.245 NA
ATOM      9  C   UNL     1      -0.672   3.613  10.136  0.00  0.00    +0.072 A 
ATOM     10  C   UNL     1      -0.566   4.210   8.854  0.00  0.00    +0.013 A 
ATOM     11  C   UNL     1       0.047   5.460   8.717  0.00  0.00    +0.011 A 
ATOM     12  C   UNL     1       0.537   6.094   9.820  0.00  0.00    +0.001 A 
ATOM     13  C   UNL     1       0.436   5.512  11.082  0.00  0.00    +0.002 A 
ATOM     14  C   UNL     1      -0.154   4.298  11.251  0.00  0.00    +0.028 A 
BRANCH   7  15
ATOM     15  C   UNL     1      -2.379   0.438   9.482  0.00  0.00    +0.111 A 
ATOM     16  C   UNL     1      -2.513  -0.205  10.729  0.00  0.00    +0.051 A 
ATOM     17  C   UNL     1      -3.141  -1.383  10.522  0.00  0.00    +0.108 A 
ATOM     18  N   UNL     1      -3.398  -1.492   9.201  0.00  0.00    -0.274 N 
ATOM     19  N   UNL     1      -2.919  -0.339   8.566  0.00  0.00    -0.170 NA
ATOM     20  C   UNL     1      -4.068  -2.618   8.546  0.00  0.00    +0.172 C 
ENDBRANCH   7  15
ENDBRANCH   2   5
BRANCH   1  21
ATOM     21  C   UNL     1      -1.357   3.892   3.928  0.00  0.00    +0.107 C 
BRANCH  21  22
ATOM     22  C   UNL     1      -1.264   2.773   2.922  0.00  0.00    +0.016 A 
ATOM     23  C   UNL     1      -2.039   1.609   2.914  0.00  0.00    +0.065 A 
ATOM     24  N   UNL     1      -1.670   0.880   1.892  0.00  0.00    -0.176 NA
ATOM     25  N   UNL     1      -0.648   1.559   1.216  0.00  0.00    -0.268 N 
ATOM     26  C   UNL     1      -0.413   2.715   1.872  0.00  0.00    +0.041 A 
ATOM     27  C   UNL     1       0.610   3.756   1.499  0.00  0.00    +0.065 C 
ATOM     28  C   UNL     1      -3.113   1.254   3.910  0.00  0.00    +0.068 C 
BRANCH  25  29
ATOM     29  C   UNL     1       0.049   1.093   0.015  0.00  0.00    +0.140 C 
ATOM     30  C   UNL     1      -0.691   1.591  -1.229  0.00  0.00    +0.029 C 
ENDBRANCH  25  29
ENDBRANCH  21  22
BRANCH  21  32
ATOM     31  C   UNL     1      -2.639   5.933   4.588  0.00  0.00    +0.006 C 
ATOM     32  C   UNL     1      -2.610   4.726   3.649  0.00  0.00    +0.024 C 
ENDBRANCH  21  32
ENDBRANCH   1  21
TORSDOF 6
