REMARK  Name = ZINC31169061
REMARK  7 active torsions:
REMARK  status: ('A' for Active; 'I' for Inactive)
REMARK    1  A    between atoms: C_1  and  C_2
REMARK    2  A    between atoms: C_6  and  O_30
REMARK    3  A    between atoms: C_11  and  C_27
REMARK    4  A    between atoms: C_11  and  C_28
REMARK    5  A    between atoms: C_15  and  C_26
REMARK    6  A    between atoms: C_19  and  O_25
REMARK    7  A    between atoms: C_28  and  O_29
REMARK                            x       y       z     vdW  Elec       q    Type
REMARK                         _______ _______ _______ _____ _____    ______ ____
ROOT
ATOM      1  C   UNL     1      -2.168   3.247   1.672  0.00  0.00    +0.013 C 
ATOM      2  C   UNL     1      -2.685   1.817   1.637  0.00  0.00    +0.024 C 
ATOM      3  C   UNL     1      -1.679   0.802   1.099  0.00  0.00    +0.028 C 
ATOM      4  C   UNL     1      -0.357   0.895   1.842  0.00  0.00    +0.119 C 
ATOM      5  C   UNL     1       0.711   1.676   1.083  0.00  0.00    +0.036 C 
ATOM      6  C   UNL     1       0.834   1.108  -0.330  0.00  0.00    +0.006 C 
ATOM      7  C   UNL     1       2.114   1.536  -1.012  0.00  0.00    -0.006 C 
ATOM      8  C   UNL     1       2.159   1.122  -2.482  0.00  0.00    +0.009 C 
ATOM      9  C   UNL     1       0.874   1.480  -3.214  0.00  0.00    +0.001 C 
ATOM     10  C   UNL     1      -0.322   0.832  -2.520  0.00  0.00    +0.007 C 
ATOM     11  C   UNL     1      -0.456   1.386  -1.093  0.00  0.00    -0.025 C 
ATOM     12  C   UNL     1      -1.590   0.642  -0.389  0.00  0.00    +0.008 C 
ATOM     13  C   UNL     1      -2.888   0.667  -1.177  0.00  0.00    +0.088 C 
ATOM     14  C   UNL     1      -3.891   1.709  -0.718  0.00  0.00    +0.237 C 
ATOM     15  C   UNL     1      -3.930   1.706   0.795  0.00  0.00    +0.011 C 
ATOM     16  C   UNL     1      -5.193   1.614   1.159  0.00  0.00    +0.097 C 
ATOM     17  C   UNL     1      -6.029   1.454  -0.038  0.00  0.00    +0.335 C 
ATOM     18  O   UNL     1      -7.243   1.385  -0.038  0.00  0.00    -0.246 OA
ATOM     19  O   UNL     1      -5.249   1.399  -1.136  0.00  0.00    -0.425 OA
ATOM     20  C   UNL     1      -0.755   2.877  -1.183  0.00  0.00    +0.012 C 
ATOM     21  C   UNL     1       2.378   3.037  -0.887  0.00  0.00    +0.014 C 
ENDROOT
BRANCH  14  22
ATOM     22  O   UNL     1      -3.569   3.012  -1.215  0.00  0.00    -0.352 OA
ATOM     23  H   UNL     1      -4.210   3.870  -0.964  0.00  0.00    +0.214 HD
ENDBRANCH  14  22
BRANCH   4  24
ATOM     24  O   UNL     1       0.135  -0.431   2.099  0.00  0.00    -0.391 OA
ATOM     25  H   UNL     1       1.087  -0.571   2.632  0.00  0.00    +0.210 HD
ENDBRANCH   4  24
BRANCH   7  26
ATOM     26  C   UNL     1       3.295   0.811  -0.319  0.00  0.00    +0.162 C 
BRANCH  26  27
ATOM     27  O   UNL     1       4.522   1.196  -0.943  0.00  0.00    -0.394 OA
ATOM     28  H   UNL     1       5.475   0.781  -0.584  0.00  0.00    +0.209 HD
ENDBRANCH  26  27
ENDBRANCH   7  26
TORSDOF 4
