REMARK  Name = ZINC09910136
REMARK  9 active torsions:
REMARK  status: ('A' for Active; 'I' for Inactive)
REMARK    1  A    between atoms: C_1  and  O_2
REMARK    2  A    between atoms: O_2  and  C_3
REMARK    3  A    between atoms: C_8  and  O_9
REMARK    4  A    between atoms: O_9  and  C_10
REMARK    5  A    between atoms: C_11  and  C_26
REMARK    6  A    between atoms: C_15  and  C_16
REMARK    7  A    between atoms: C_15  and  N_57
REMARK    8  A    between atoms: N_18  and  C_19
REMARK    9  A    between atoms: C_19  and  C_24
REMARK                            x       y       z     vdW  Elec       q    Type
REMARK                         _______ _______ _______ _____ _____    ______ ____
ROOT
ATOM      1  C   UNL     1      -1.889   0.921   1.269  0.00  0.00    +0.162 A 
ATOM      2  C   UNL     1      -2.585   0.285   0.257  0.00  0.00    +0.053 A 
ATOM      3  C   UNL     1      -3.904  -0.099   0.446  0.00  0.00    -0.043 A 
ATOM      4  C   UNL     1      -4.531   0.160   1.647  0.00  0.00    -0.049 A 
ATOM      5  C   UNL     1      -3.839   0.802   2.663  0.00  0.00    +0.052 A 
ATOM      6  C   UNL     1      -2.522   1.185   2.480  0.00  0.00    +0.162 A 
ATOM      7  C   UNL     1      -5.962  -0.240   1.899  0.00  0.00    +0.001 C 
ATOM      8  C   UNL     1      -5.878  -1.482  -0.165  0.00  0.00    -0.072 C 
ATOM      9  C   UNL     1      -4.620  -0.788  -0.687  0.00  0.00    +0.017 C 
ATOM     10  N   UNL     1      -6.646  -0.494   0.620  0.00  0.00    +0.393 N 
ATOM     11  H   UNL     1      -6.703   0.383   0.090  0.00  0.00    -0.080 HD
ENDROOT
BRANCH   7  12
ATOM     12  C   UNL     1      -6.672   0.879   2.616  0.00  0.00    -0.019 A 
ATOM     13  C   UNL     1      -6.953   1.003   3.937  0.00  0.00    +0.010 A 
ATOM     14  C   UNL     1      -7.621   2.130   4.376  0.00  0.00    +0.008 A 
ATOM     15  C   UNL     1      -7.976   3.078   3.474  0.00  0.00    +0.045 A 
ATOM     16  S   UNL     1      -7.354   2.388   1.950  0.00  0.00    -0.103 S 
ENDBRANCH   7  12
BRANCH   1  18
ATOM     17  C   UNL     1      -0.012   0.990  -0.190  0.00  0.00    +0.277 C 
ATOM     18  O   UNL     1      -0.595   1.293   1.080  0.00  0.00    -0.491 OA
ENDBRANCH   1  18
BRANCH   6  19
ATOM     19  O   UNL     1      -1.849   1.815   3.480  0.00  0.00    -0.491 OA
ATOM     20  C   UNL     1      -2.563   2.051   4.695  0.00  0.00    +0.277 C 
ENDBRANCH   6  19
BRANCH  10  21
ATOM     21  C   UNL     1      -8.016  -0.997   0.869  0.00  0.00    +0.020 C 
BRANCH  21  22
ATOM     22  C   UNL     1      -7.963  -2.343   1.545  0.00  0.00    +0.198 C 
ATOM     23  O   UNL     1      -6.898  -2.804   1.897  0.00  0.00    -0.278 OA
ATOM     24  N   UNL     1      -9.101  -3.034   1.760  0.00  0.00    -0.299 N 
ATOM     25  H   UNL     1      -9.953  -2.665   1.478  0.00  0.00    +0.150 HD
BRANCH  24  26
ATOM     26  C   UNL     1      -9.050  -4.342   2.417  0.00  0.00    +0.121 C 
ATOM     27  C   UNL     1      -8.242  -5.335   1.556  0.00  0.00    +0.041 C 
ATOM     28  C   UNL     1      -8.987  -6.682   1.731  0.00  0.00    +0.003 C 
ATOM     29  C   UNL     1     -10.474  -6.250   1.756  0.00  0.00    +0.003 C 
ATOM     30  C   UNL     1     -10.469  -4.924   2.544  0.00  0.00    +0.041 C 
BRANCH  26  31
ATOM     31  C   UNL     1      -8.437  -4.213   3.749  0.00  0.00    +0.088 C 
ATOM     32  N   UNL     1      -7.964  -4.113   4.777  0.00  0.00    -0.194 NA
ENDBRANCH  26  31
ENDBRANCH  24  26
ENDBRANCH  21  22
ENDBRANCH  10  21
TORSDOF 7
