REMARK  Name = ZINC64212547
REMARK  6 active torsions:
REMARK  status: ('A' for Active; 'I' for Inactive)
REMARK    1  A    between atoms: C_4  and  C_7
REMARK    2  A    between atoms: C_10  and  S_13
REMARK    3  A    between atoms: S_13  and  C_14
REMARK    4  A    between atoms: C_14  and  C_15
REMARK    5  A    between atoms: N_17  and  C_18
REMARK    6  A    between atoms: C_20  and  C_29
REMARK                            x       y       z     vdW  Elec       q    Type
REMARK                         _______ _______ _______ _____ _____    ______ ____
ROOT
ATOM      1  C   UNL     1       8.635  -4.332  -0.514  0.00  0.00    +0.224 C 
ATOM      2  O   UNL     1       7.978  -5.342  -0.375  0.00  0.00    -0.275 OA
ATOM      3  N   UNL     1       9.980  -4.391  -0.453  0.00  0.00    -0.302 N 
ATOM      4  H   UNL     1      10.506  -3.583  -0.564  0.00  0.00    +0.150 HD
ENDROOT
BRANCH   3   5
ATOM      5  C   UNL     1      10.648  -5.673  -0.220  0.00  0.00    +0.151 C 
ATOM      6  C   UNL     1      11.778  -5.921  -1.247  0.00  0.00    +0.132 C 
ATOM      7  C   UNL     1      11.846  -7.370  -1.661  0.00  0.00    -0.046 C 
ATOM      8  C   UNL     1      10.777  -8.124  -1.437  0.00  0.00    -0.013 C 
ATOM      9  S   UNL     1       9.557  -7.093  -0.653  0.00  0.00    -0.106 S 
ATOM     10  C   UNL     1      10.610  -9.579  -1.774  0.00  0.00    +0.042 C 
ATOM     11  C   UNL     1      11.721  -9.992  -2.747  0.00  0.00    +0.005 C 
ATOM     12  C   UNL     1      13.058  -9.476  -2.204  0.00  0.00    +0.005 C 
ATOM     13  C   UNL     1      13.098  -7.952  -2.314  0.00  0.00    +0.032 C 
BRANCH   6  14
ATOM     14  C   UNL     1      13.097  -5.524  -0.634  0.00  0.00    +0.220 C 
ATOM     15  O   UNL     1      13.300  -5.719   0.545  0.00  0.00    -0.275 OA
ATOM     16  N   UNL     1      14.050  -4.953  -1.397  0.00  0.00    -0.329 N 
ATOM     17  H   UNL     1      13.887  -4.797  -2.341  0.00  0.00    +0.145 HD
ATOM     18  H   UNL     1      14.898  -4.698  -1.002  0.00  0.00    +0.145 HD
ENDBRANCH   6  14
ENDBRANCH   3   5
BRANCH   1  19
ATOM     19  C   UNL     1       7.948  -3.013  -0.755  0.00  0.00    +0.173 C 
BRANCH  19  20
ATOM     20  S   UNL     1       6.151  -3.263  -0.783  0.00  0.00    -0.079 S 
BRANCH  20  24
ATOM     21  C   UNL     1       4.111   0.030  -1.396  0.00  0.00    +0.067 A 
ATOM     22  C   UNL     1       5.391   0.486  -1.421  0.00  0.00    +0.139 A 
ATOM     23  N   UNL     1       6.210  -0.554  -1.221  0.00  0.00    -0.230 NA
ATOM     24  C   UNL     1       5.501  -1.651  -1.070  0.00  0.00    +0.167 A 
ATOM     25  N   UNL     1       4.181  -1.333  -1.165  0.00  0.00    -0.333 N 
ATOM     26  H   UNL     1       3.432  -1.945  -1.089  0.00  0.00    +0.168 HD
BRANCH  21  30
ATOM     27  C   UNL     1       0.585   2.341  -1.906  0.00  0.00    +0.000 A 
ATOM     28  C   UNL     1       1.824   2.954  -1.965  0.00  0.00    +0.001 A 
ATOM     29  C   UNL     1       2.973   2.209  -1.800  0.00  0.00    +0.010 A 
ATOM     30  C   UNL     1       2.884   0.835  -1.573  0.00  0.00    -0.000 A 
ATOM     31  C   UNL     1       1.631   0.223  -1.515  0.00  0.00    +0.010 A 
ATOM     32  C   UNL     1       0.489   0.979  -1.682  0.00  0.00    +0.001 A 
ENDBRANCH  21  30
ENDBRANCH  20  24
ENDBRANCH  19  20
ENDBRANCH   1  19
TORSDOF 6
