REMARK  Name = ZINC63886407
REMARK  4 active torsions:
REMARK  status: ('A' for Active; 'I' for Inactive)
REMARK    1  A    between atoms: C_10  and  S_14
REMARK    2  A    between atoms: S_14  and  C_15
REMARK    3  A    between atoms: C_15  and  C_16
REMARK    4  A    between atoms: C_19  and  O_22
REMARK                            x       y       z     vdW  Elec       q    Type
REMARK                         _______ _______ _______ _____ _____    ______ ____
ROOT
ATOM      1  C   UNL     1      -0.017   1.374   0.010  0.00  0.00    +0.001 A 
ATOM      2  C   UNL     1       1.172   2.087   0.002  0.00  0.00    +0.004 A 
ATOM      3  C   UNL     1       2.384   1.431  -0.013  0.00  0.00    +0.047 A 
ATOM      4  C   UNL     1       2.424   0.041  -0.022  0.00  0.00    +0.138 A 
ATOM      5  C   UNL     1       1.220  -0.678  -0.014  0.00  0.00    +0.046 A 
ATOM      6  C   UNL     1       0.002  -0.004   0.002  0.00  0.00    +0.014 A 
ATOM      7  C   UNL     1       1.604  -2.100  -0.026  0.00  0.00    +0.121 A 
ATOM      8  C   UNL     1       3.003  -2.112  -0.040  0.00  0.00    +0.186 A 
ATOM      9  O   UNL     1       3.449  -0.840  -0.037  0.00  0.00    -0.451 OA
ATOM     10  C   UNL     1       3.646  -3.357  -0.055  0.00  0.00    +0.143 A 
ATOM     11  N   UNL     1       2.904  -4.460  -0.054  0.00  0.00    -0.225 NA
ATOM     12  C   UNL     1       1.586  -4.399  -0.040  0.00  0.00    +0.223 A 
ATOM     13  N   UNL     1       0.939  -3.252  -0.026  0.00  0.00    -0.232 NA
ENDROOT
BRANCH  10  14
ATOM     14  S   UNL     1       5.405  -3.458  -0.074  0.00  0.00    -0.100 S 
BRANCH  14  15
ATOM     15  C   UNL     1       5.742  -5.240  -0.088  0.00  0.00    +0.109 C 
BRANCH  15  16
ATOM     16  C   UNL     1       7.254  -5.473  -0.106  0.00  0.00    +0.166 C 
ATOM     17  C   UNL     1       7.568  -6.957  -0.177  0.00  0.00    +0.070 C 
ATOM     18  C   UNL     1       8.234  -7.090  -1.331  0.00  0.00    +0.230 C 
ATOM     19  N   UNL     1       8.359  -5.892  -1.952  0.00  0.00    -0.116 NA
ATOM     20  N   UNL     1       7.848  -4.943  -1.345  0.00  0.00    -0.176 NA
BRANCH  18  21
ATOM     21  O   UNL     1       8.720  -8.265  -1.813  0.00  0.00    -0.492 OA
ATOM     22  H   UNL     1       9.177  -8.184  -2.661  0.00  0.00    +0.294 HD
ENDBRANCH  18  21
ENDBRANCH  15  16
ENDBRANCH  14  15
ENDBRANCH  10  14
TORSDOF 4
