REMARK  Name = ZINC03013656
REMARK  6 active torsions:
REMARK  status: ('A' for Active; 'I' for Inactive)
REMARK    1  A    between atoms: C_1  and  C_2
REMARK    2  A    between atoms: C_2  and  C_4
REMARK    3  A    between atoms: C_2  and  N_51
REMARK    4  A    between atoms: C_10  and  N_51
REMARK    5  A    between atoms: N_15  and  C_18
REMARK    6  A    between atoms: C_21  and  C_24
REMARK                            x       y       z     vdW  Elec       q    Type
REMARK                         _______ _______ _______ _____ _____    ______ ____
ROOT
ATOM      1  C   UNL     1       1.563   3.327  -0.579  0.00  0.00    +0.027 C 
ATOM      2  C   UNL     1       2.954   3.489  -1.226  0.00  0.00    +0.090 C 
ATOM      3  C   UNL     1       3.579   4.624  -0.444  0.00  0.00    +0.225 C 
ATOM      4  O   UNL     1       4.687   5.079  -0.631  0.00  0.00    -0.275 OA
ATOM      5  N   UNL     1       2.714   5.046   0.487  0.00  0.00    -0.212 N 
ATOM      6  C   UNL     1       1.549   4.387   0.501  0.00  0.00    +0.213 C 
ATOM      7  O   UNL     1       0.628   4.605   1.259  0.00  0.00    -0.277 OA
ENDROOT
BRANCH   5   8
ATOM      8  C   UNL     1       3.005   6.090   1.373  0.00  0.00    +0.044 A 
ATOM      9  C   UNL     1       3.992   5.926   2.337  0.00  0.00    +0.025 A 
ATOM     10  C   UNL     1       4.285   6.953   3.208  0.00  0.00    +0.015 A 
ATOM     11  C   UNL     1       3.580   8.156   3.127  0.00  0.00    +0.037 A 
ATOM     12  C   UNL     1       2.584   8.315   2.160  0.00  0.00    +0.015 A 
ATOM     13  C   UNL     1       2.301   7.286   1.290  0.00  0.00    +0.025 A 
BRANCH  11  14
ATOM     14  C   UNL     1       3.886   9.258   4.062  0.00  0.00    +0.228 A 
ATOM     15  N   UNL     1       4.797   9.213   5.003  0.00  0.00    -0.209 NA
ATOM     16  C   UNL     1       4.801  10.399   5.663  0.00  0.00    +0.110 A 
ATOM     17  C   UNL     1       5.545  10.906   6.731  0.00  0.00    +0.031 A 
ATOM     18  C   UNL     1       5.306  12.184   7.184  0.00  0.00    +0.002 A 
ATOM     19  C   UNL     1       4.332  12.971   6.587  0.00  0.00    +0.004 A 
ATOM     20  C   UNL     1       3.590  12.484   5.531  0.00  0.00    +0.048 A 
ATOM     21  C   UNL     1       3.816  11.200   5.061  0.00  0.00    +0.156 A 
ATOM     22  O   UNL     1       3.275  10.457   4.069  0.00  0.00    -0.435 OA
ENDBRANCH  11  14
ENDBRANCH   5   8
BRANCH   1  23
ATOM     23  N   UNL     1       1.422   1.986   0.020  0.00  0.00    +0.391 N 
ATOM     24  H   UNL     1       2.325   1.691   0.408  0.00  0.00    -0.084 HD
ATOM     25  H   UNL     1       0.722   2.022   0.770  0.00  0.00    -0.084 HD
BRANCH  23  27
ATOM     26  C   UNL     1      -0.537   1.022  -1.102  0.00  0.00    -0.009 C 
ATOM     27  C   UNL     1       0.990   1.013  -1.001  0.00  0.00    -0.043 C 
BRANCH  27  28
ATOM     28  C   UNL     1       1.459  -0.363  -0.604  0.00  0.00    -0.062 A 
ATOM     29  C   UNL     1       1.409  -0.753   0.722  0.00  0.00    +0.002 A 
ATOM     30  C   UNL     1       1.835  -2.017   1.086  0.00  0.00    +0.000 A 
ATOM     31  C   UNL     1       2.320  -2.886   0.127  0.00  0.00    +0.000 A 
ATOM     32  C   UNL     1       2.375  -2.494  -1.198  0.00  0.00    +0.000 A 
ATOM     33  C   UNL     1       1.944  -1.232  -1.563  0.00  0.00    +0.002 A 
ENDBRANCH  27  28
ENDBRANCH  23  27
ENDBRANCH   1  23
TORSDOF 5
