REMARK  Name = ZINC36586878
REMARK  15 active torsions:
REMARK  status: ('A' for Active; 'I' for Inactive)
REMARK    1  A    between atoms: C_1  and  C_2
REMARK    2  A    between atoms: C_5  and  S_8
REMARK    3  A    between atoms: S_8  and  C_11
REMARK    4  A    between atoms: C_11  and  N_12
REMARK    5  A    between atoms: C_13  and  C_15
REMARK    6  A    between atoms: C_15  and  C_17
REMARK    7  A    between atoms: C_15  and  N_24
REMARK    8  A    between atoms: C_20  and  O_23
REMARK    9  A    between atoms: N_24  and  C_35
REMARK   10  A    between atoms: C_25  and  C_27
REMARK   11  A    between atoms: C_31  and  O_34
REMARK   12  A    between atoms: C_32  and  O_33
REMARK   13  A    between atoms: C_35  and  C_36
REMARK   14  A    between atoms: C_35  and  C_37
REMARK   15  A    between atoms: C_35  and  C_38
REMARK                            x       y       z     vdW  Elec       q    Type
REMARK                         _______ _______ _______ _____ _____    ______ ____
ROOT
ATOM      1  C   UNL     1       4.613  -9.761   4.485  0.00  0.00    +0.193 C 
ENDROOT
BRANCH   1   2
ATOM      2  C   UNL     1       4.720 -11.259   4.609  0.00  0.00    -0.018 A 
ATOM      3  C   UNL     1       3.664 -11.987   5.125  0.00  0.00    +0.009 A 
ATOM      4  C   UNL     1       3.760 -13.360   5.240  0.00  0.00    +0.046 A 
ATOM      5  C   UNL     1       4.918 -14.009   4.836  0.00  0.00    +0.117 A 
ATOM      6  C   UNL     1       5.976 -13.277   4.318  0.00  0.00    +0.046 A 
ATOM      7  C   UNL     1       5.873 -11.905   4.200  0.00  0.00    +0.009 A 
BRANCH   5   8
ATOM      8  O   UNL     1       5.015 -15.360   4.948  0.00  0.00    -0.507 OA
ATOM      9  H   UNL     1       4.708 -15.843   4.168  0.00  0.00    +0.292 HD
ENDBRANCH   5   8
ENDBRANCH   1   2
BRANCH   1  11
ATOM     10  N   UNL     1       5.788  -9.584   2.316  0.00  0.00    -0.294 N 
ATOM     11  C   UNL     1       4.665  -9.372   3.030  0.00  0.00    +0.239 C 
ATOM     12  O   UNL     1       3.697  -8.869   2.502  0.00  0.00    -0.273 OA
ATOM     13  H   UNL     1       6.563  -9.987   2.739  0.00  0.00    +0.150 HD
BRANCH  10  14
ATOM     14  C   UNL     1       5.839  -9.206   0.902  0.00  0.00    +0.278 C 
BRANCH  14  15
ATOM     15  S   UNL     1       6.568  -7.552   0.744  0.00  0.00    +0.013 S 
ATOM     16  O   UNL     1       5.969  -6.662   1.675  0.00  0.00    -0.168 OA
ATOM     17  O   UNL     1       6.683  -7.197  -0.627  0.00  0.00    -0.168 OA
BRANCH  15  22
ATOM     18  C   UNL     1      12.258  -8.174   2.652  0.00  0.00    +0.044 C 
ATOM     19  C   UNL     1      10.837  -8.019   2.175  0.00  0.00    -0.050 A 
ATOM     20  C   UNL     1      10.531  -8.208   0.841  0.00  0.00    +0.005 A 
ATOM     21  C   UNL     1       9.228  -8.066   0.403  0.00  0.00    +0.027 A 
ATOM     22  C   UNL     1       8.230  -7.735   1.301  0.00  0.00    +0.090 A 
ATOM     23  C   UNL     1       8.536  -7.547   2.636  0.00  0.00    +0.027 A 
ATOM     24  C   UNL     1       9.839  -7.693   3.074  0.00  0.00    +0.005 A 
ENDBRANCH  15  22
ENDBRANCH  14  15
ENDBRANCH  10  14
ENDBRANCH   1  11
BRANCH   1  25
ATOM     25  N   UNL     1       3.345  -9.313   5.065  0.00  0.00    -0.277 N 
ATOM     26  C   UNL     1       2.191  -9.910   4.706  0.00  0.00    +0.252 C 
ATOM     27  O   UNL     1       2.126 -10.528   3.661  0.00  0.00    -0.270 OA
BRANCH  26  28
ATOM     28  C   UNL     1       1.006  -9.814   5.580  0.00  0.00    +0.082 A 
ATOM     29  C   UNL     1       0.512  -8.562   5.958  0.00  0.00    +0.017 A 
ATOM     30  C   UNL     1      -0.594  -8.475   6.774  0.00  0.00    +0.005 A 
ATOM     31  C   UNL     1      -1.222  -9.625   7.225  0.00  0.00    +0.049 A 
ATOM     32  C   UNL     1      -0.745 -10.872   6.860  0.00  0.00    +0.159 A 
ATOM     33  C   UNL     1       0.368 -10.975   6.032  0.00  0.00    +0.171 A 
BRANCH  33  34
ATOM     34  O   UNL     1       0.836 -12.196   5.666  0.00  0.00    -0.503 OA
ATOM     35  H   UNL     1       1.496 -12.562   6.272  0.00  0.00    +0.292 HD
ENDBRANCH  33  34
BRANCH  32  36
ATOM     36  O   UNL     1      -1.367 -11.996   7.307  0.00  0.00    -0.503 OA
ATOM     37  H   UNL     1      -2.071 -12.313   6.725  0.00  0.00    +0.292 HD
ENDBRANCH  32  36
ENDBRANCH  26  28
BRANCH  25  38
ATOM     38  C   UNL     1       3.330  -8.216   6.036  0.00  0.00    +0.030 C 
ATOM     39  C   UNL     1       4.735  -8.026   6.612  0.00  0.00    +0.031 C 
ATOM     40  C   UNL     1       2.884  -6.927   5.342  0.00  0.00    +0.031 C 
ATOM     41  C   UNL     1       2.356  -8.549   7.168  0.00  0.00    +0.031 C 
ENDBRANCH  25  38
ENDBRANCH   1  25
TORSDOF 11
