REMARK  Name = ZINC67164457
REMARK  12 active torsions:
REMARK  status: ('A' for Active; 'I' for Inactive)
REMARK    1  A    between atoms: C_1  and  C_2
REMARK    2  A    between atoms: N_8  and  C_9
REMARK    3  A    between atoms: C_9  and  C_10
REMARK    4  A    between atoms: C_13  and  C_16
REMARK    5  A    between atoms: C_16  and  N_17
REMARK    6  A    between atoms: C_18  and  C_20
REMARK    7  A    between atoms: C_20  and  N_21
REMARK    8  A    between atoms: C_22  and  O_24
REMARK    9  A    between atoms: O_24  and  C_25
REMARK   10  A    between atoms: C_25  and  C_26
REMARK   11  A    between atoms: C_25  and  C_27
REMARK   12  A    between atoms: C_25  and  C_28
REMARK                            x       y       z     vdW  Elec       q    Type
REMARK                         _______ _______ _______ _____ _____    ______ ____
ROOT
ATOM      1  C   UNL     1       2.754  -0.315   2.498  0.00  0.00    -0.064 A 
ATOM      2  C   UNL     1       2.638   0.481   3.622  0.00  0.00    +0.002 A 
ATOM      3  C   UNL     1       3.269   0.116   4.796  0.00  0.00    +0.005 A 
ATOM      4  C   UNL     1       4.016  -1.046   4.847  0.00  0.00    -0.030 A 
ATOM      5  C   UNL     1       4.131  -1.843   3.723  0.00  0.00    +0.005 A 
ATOM      6  C   UNL     1       3.497  -1.480   2.550  0.00  0.00    +0.002 A 
ENDROOT
BRANCH   1   7
ATOM      7  C   UNL     1       2.066   0.083   1.218  0.00  0.00    -0.043 C 
BRANCH   7  14
ATOM      8  C   UNL     1      -0.019   1.526   0.010  0.00  0.00    -0.013 C 
ATOM      9  C   UNL     1       0.002  -0.004   0.002  0.00  0.00    -0.071 C 
ATOM     10  C   UNL     1      -1.434  -0.533   0.011  0.00  0.00    -0.016 C 
ATOM     11  C   UNL     1      -1.408  -2.064   0.003  0.00  0.00    -0.003 C 
ATOM     12  C   UNL     1      -0.600  -2.558   1.206  0.00  0.00    -0.019 C 
ATOM     13  C   UNL     1       0.805  -1.954   1.152  0.00  0.00    -0.078 C 
ATOM     14  N   UNL     1       0.713  -0.490   1.191  0.00  0.00    +0.384 N 
ATOM     15  H   UNL     1       0.213  -0.206   2.020  0.00  0.00    -0.081 HD
ENDBRANCH   7  14
ENDBRANCH   1   7
BRANCH   4  16
ATOM     16  C   UNL     1       4.705  -1.444   6.127  0.00  0.00    +0.139 C 
BRANCH  16  17
ATOM     17  N   UNL     1       3.805  -2.278   6.927  0.00  0.00    -0.310 N 
ATOM     18  C   UNL     1       4.211  -2.754   8.121  0.00  0.00    +0.231 C 
ATOM     19  O   UNL     1       5.321  -2.491   8.533  0.00  0.00    -0.274 OA
ATOM     20  H   UNL     1       2.918  -2.488   6.597  0.00  0.00    +0.149 HD
BRANCH  18  21
ATOM     21  C   UNL     1       3.285  -3.612   8.944  0.00  0.00    +0.203 C 
BRANCH  21  22
ATOM     22  N   UNL     1       3.955  -3.999  10.188  0.00  0.00    -0.273 N 
ATOM     23  C   UNL     1       3.314  -4.773  11.086  0.00  0.00    +0.401 C 
ATOM     24  O   UNL     1       2.180  -5.150  10.864  0.00  0.00    -0.226 OA
ATOM     25  H   UNL     1       4.860  -3.698  10.366  0.00  0.00    +0.153 HD
BRANCH  23  26
ATOM     26  O   UNL     1       3.930  -5.128  12.230  0.00  0.00    -0.445 OA
BRANCH  26  27
ATOM     27  C   UNL     1       3.191  -5.950  13.136  0.00  0.00    +0.107 C 
ATOM     28  C   UNL     1       2.817  -7.263  12.445  0.00  0.00    +0.055 C 
ATOM     29  C   UNL     1       4.047  -6.248  14.368  0.00  0.00    +0.055 C 
ATOM     30  C   UNL     1       1.917  -5.218  13.565  0.00  0.00    +0.055 C 
ENDBRANCH  26  27
ENDBRANCH  23  26
ENDBRANCH  21  22
ENDBRANCH  18  21
ENDBRANCH  16  17
ENDBRANCH   4  16
TORSDOF 8
