REMARK  Name = ZINC62869955
REMARK  5 active torsions:
REMARK  status: ('A' for Active; 'I' for Inactive)
REMARK    1  A    between atoms: C_1  and  C_2
REMARK    2  A    between atoms: C_2  and  C_3
REMARK    3  A    between atoms: C_3  and  C_19
REMARK    4  A    between atoms: C_9  and  C_11
REMARK    5  A    between atoms: C_14  and  N_16
REMARK                            x       y       z     vdW  Elec       q    Type
REMARK                         _______ _______ _______ _____ _____    ______ ____
ROOT
ATOM      1  C   UNL     1       0.255   0.564  -0.506  0.00  0.00    +0.087 C 
ATOM      2  C   UNL     1      -0.376  -0.752  -0.045  0.00  0.00    +0.021 C 
ATOM      3  C   UNL     1       0.367  -1.270   1.189  0.00  0.00    +0.020 C 
ATOM      4  C   UNL     1       1.830  -1.538   0.825  0.00  0.00    +0.108 C 
ATOM      5  N   UNL     1       2.404  -0.316   0.245  0.00  0.00    -0.296 N 
ATOM      6  C   UNL     1       1.718   0.318  -0.890  0.00  0.00    +0.126 C 
ATOM      7  C   UNL     1       3.538   0.215   0.744  0.00  0.00    +0.253 C 
ATOM      8  O   UNL     1       4.035   1.193   0.217  0.00  0.00    -0.269 OA
ENDROOT
BRANCH   7   9
ATOM      9  C   UNL     1       4.172  -0.386   1.921  0.00  0.00    +0.076 A 
ATOM     10  C   UNL     1       4.794   0.237   2.992  0.00  0.00    +0.023 A 
ATOM     11  C   UNL     1       5.300  -0.600   3.957  0.00  0.00    +0.041 A 
ATOM     12  C   UNL     1       5.163  -1.941   3.805  0.00  0.00    +0.164 A 
ATOM     13  S   UNL     1       4.337  -2.108   2.352  0.00  0.00    -0.060 S 
BRANCH  12  14
ATOM     14  N   UNL     1       5.630  -3.012   4.714  0.00  0.00    +0.063 N 
ATOM     15  O   UNL     1       6.212  -2.727   5.735  0.00  0.00    -0.126 OA
ATOM     16  O   UNL     1       5.430  -4.171   4.436  0.00  0.00    -0.126 OA
ENDBRANCH  12  14
ENDBRANCH   7   9
BRANCH   1  17
ATOM     17  C   UNL     1      -0.496   1.091  -1.701  0.00  0.00    +0.364 C 
ATOM     18  O   UNL     1      -0.151   2.136  -2.227  0.00  0.00    -0.246 OA
ATOM     19  O   UNL     1      -1.450   0.473  -2.143  0.00  0.00    -0.246 OA
ENDBRANCH   1  17
BRANCH   1  21
ATOM     20  C   UNL     1       0.825   2.901   0.169  0.00  0.00    +0.005 C 
ATOM     21  C   UNL     1       0.191   1.587   0.630  0.00  0.00    +0.016 C 
ENDBRANCH   1  21
TORSDOF 4
