REMARK  Name = ZINC14189092
REMARK  10 active torsions:
REMARK  status: ('A' for Active; 'I' for Inactive)
REMARK    1  A    between atoms: C_1  and  C_2
REMARK    2  A    between atoms: C_2  and  C_3
REMARK    3  A    between atoms: C_3  and  C_4
REMARK    4  A    between atoms: C_3  and  C_5
REMARK    5  A    between atoms: C_3  and  N_47
REMARK    6  A    between atoms: C_6  and  C_7
REMARK    7  A    between atoms: C_6  and  N_47
REMARK    8  A    between atoms: C_13  and  S_20
REMARK    9  A    between atoms: C_17  and  C_19
REMARK   10  A    between atoms: S_20  and  N_23
REMARK                            x       y       z     vdW  Elec       q    Type
REMARK                         _______ _______ _______ _____ _____    ______ ____
ROOT
ATOM      1  C   UNL     1       1.240   1.401   2.791  0.00  0.00    +0.203 C 
ATOM      2  O   UNL     1       1.900   2.113   2.064  0.00  0.00    -0.277 OA
ATOM      3  N   UNL     1      -0.034   1.104   2.466  0.00  0.00    -0.270 N 
ATOM      4  C   UNL     1      -0.887   0.295   3.225  0.00  0.00    +0.040 A 
ATOM      5  C   UNL     1      -0.641  -0.362   4.432  0.00  0.00    +0.026 A 
ATOM      6  C   UNL     1      -1.629  -1.119   5.025  0.00  0.00    +0.030 A 
ATOM      7  C   UNL     1      -2.870  -1.235   4.427  0.00  0.00    +0.105 A 
ATOM      8  C   UNL     1      -3.121  -0.587   3.232  0.00  0.00    +0.034 A 
ATOM      9  C   UNL     1      -2.134   0.173   2.634  0.00  0.00    -0.022 A 
ATOM     10  C   UNL     1      -2.139   0.973   1.351  0.00  0.00    +0.059 C 
ATOM     11  C   UNL     1      -0.729   1.579   1.267  0.00  0.00    +0.083 C 
ATOM     12  C   UNL     1      -0.013   1.086   0.008  0.00  0.00    +0.029 C 
ENDROOT
BRANCH   7  13
ATOM     13  S   UNL     1      -4.130  -2.205   5.187  0.00  0.00    +0.056 S 
ATOM     14  O   UNL     1      -5.022  -2.595   4.152  0.00  0.00    -0.153 OA
ATOM     15  O   UNL     1      -3.469  -3.148   6.019  0.00  0.00    -0.153 OA
BRANCH  13  16
ATOM     16  N   UNL     1      -4.981  -1.201   6.193  0.00  0.00    -0.204 NA
ATOM     17  H   UNL     1      -4.735  -0.266   6.266  0.00  0.00    +0.144 HD
ATOM     18  H   UNL     1      -5.725  -1.549   6.709  0.00  0.00    +0.144 HD
ENDBRANCH  13  16
ENDBRANCH   7  13
BRANCH   1  19
ATOM     19  C   UNL     1       1.844   0.849   4.056  0.00  0.00    +0.016 C 
BRANCH  19  20
ATOM     20  N   UNL     1       3.236   1.322   4.173  0.00  0.00    +0.388 N 
ATOM     21  H   UNL     1       3.773   0.998   3.360  0.00  0.00    -0.084 HD
ATOM     22  H   UNL     1       3.244   2.348   4.202  0.00  0.00    -0.084 HD
BRANCH  20  23
ATOM     23  C   UNL     1       3.853   0.795   5.405  0.00  0.00    -0.074 C 
ATOM     24  C   UNL     1       3.063   1.277   6.623  0.00  0.00    -0.010 C 
ATOM     25  C   UNL     1       3.852  -0.734   5.369  0.00  0.00    -0.010 C 
BRANCH  23  27
ATOM     26  C   UNL     1       5.942   0.760   6.776  0.00  0.00    +0.002 C 
ATOM     27  C   UNL     1       5.294   1.302   5.500  0.00  0.00    -0.016 C 
ENDBRANCH  23  27
ENDBRANCH  20  23
ENDBRANCH  19  20
ENDBRANCH   1  19
TORSDOF 6
