REMARK  Name = ZINC12565362
REMARK  10 active torsions:
REMARK  status: ('A' for Active; 'I' for Inactive)
REMARK    1  A    between atoms: C_1  and  C_2
REMARK    2  A    between atoms: C_2  and  C_3
REMARK    3  A    between atoms: C_2  and  C_4
REMARK    4  A    between atoms: C_2  and  C_5
REMARK    5  A    between atoms: C_8  and  C_11
REMARK    6  A    between atoms: C_11  and  N_57
REMARK    7  A    between atoms: C_12  and  N_57
REMARK    8  A    between atoms: C_13  and  N_14
REMARK    9  A    between atoms: C_13  and  N_57
REMARK   10  A    between atoms: N_26  and  C_29
REMARK                            x       y       z     vdW  Elec       q    Type
REMARK                         _______ _______ _______ _____ _____    ______ ____
ROOT
ATOM      1  N   UNL     1      -2.798  -2.186   0.018  0.00  0.00    -0.255 N 
ATOM      2  C   UNL     1      -1.459  -2.029   0.006  0.00  0.00    +0.182 A 
ATOM      3  S   UNL     1      -0.295  -3.284  -0.013  0.00  0.00    -0.011 S 
ATOM      4  N   UNL     1      -1.203  -0.704   0.010  0.00  0.00    -0.257 N 
ATOM      5  C   UNL     1       0.002  -0.004   0.002  0.00  0.00    +0.064 A 
ATOM      6  C   UNL     1       1.216  -0.674  -0.013  0.00  0.00    +0.027 A 
ATOM      7  C   UNL     1       2.396   0.043  -0.021  0.00  0.00    +0.002 A 
ATOM      8  C   UNL     1       2.379   1.428  -0.013  0.00  0.00    +0.001 A 
ATOM      9  C   UNL     1       1.181   2.111   0.002  0.00  0.00    +0.015 A 
ATOM     10  C   UNL     1      -0.017   1.399   0.010  0.00  0.00    +0.064 A 
ATOM     11  C   UNL     1      -1.318   2.092   0.032  0.00  0.00    +0.263 A 
ATOM     12  O   UNL     1      -1.370   3.307   0.040  0.00  0.00    -0.267 OA
ATOM     13  N   UNL     1      -2.449   1.358   0.034  0.00  0.00    -0.280 N 
ATOM     14  C   UNL     1      -2.403  -0.029   0.026  0.00  0.00    +0.238 A 
ATOM     15  N   UNL     1      -3.369  -0.907   0.031  0.00  0.00    -0.133 NA
ATOM     16  C   UNL     1      -3.748   2.036   0.050  0.00  0.00    +0.155 C 
ENDROOT
BRANCH   1  17
ATOM     17  C   UNL     1      -3.523  -3.459   0.018  0.00  0.00    +0.072 C 
BRANCH  17  19
ATOM     18  C   UNL     1      -2.482  -4.212   2.070  0.00  0.00    -0.093 C 
ATOM     19  N   UNL     1      -3.763  -3.871   1.417  0.00  0.00    +0.394 N 
ATOM     20  H   UNL     1      -4.198  -3.091   1.924  0.00  0.00    -0.079 HD
BRANCH  19  21
ATOM     21  C   UNL     1      -4.674  -5.034   1.452  0.00  0.00    -0.041 C 
BRANCH  21  25
ATOM     22  C   UNL     1      -5.814  -5.772   5.502  0.00  0.00    -0.042 A 
ATOM     23  C   UNL     1      -6.558  -4.907   4.721  0.00  0.00    +0.004 A 
ATOM     24  C   UNL     1      -6.189  -4.668   3.410  0.00  0.00    +0.002 A 
ATOM     25  C   UNL     1      -5.076  -5.294   2.881  0.00  0.00    -0.064 A 
ATOM     26  C   UNL     1      -4.335  -6.163   3.660  0.00  0.00    +0.002 A 
ATOM     27  C   UNL     1      -4.702  -6.398   4.972  0.00  0.00    +0.004 A 
BRANCH  22  29
ATOM     28  C   UNL     1      -7.627  -6.624   6.964  0.00  0.00    +0.015 C 
ATOM     29  C   UNL     1      -6.216  -6.032   6.931  0.00  0.00    -0.013 C 
ATOM     30  C   UNL     1      -5.234  -7.019   7.565  0.00  0.00    +0.015 C 
ATOM     31  C   UNL     1      -6.196  -4.718   7.713  0.00  0.00    +0.015 C 
ENDBRANCH  22  29
ENDBRANCH  21  25
ENDBRANCH  19  21
ENDBRANCH  17  19
ENDBRANCH   1  17
TORSDOF 5
