REMARK  Name = ZINC01422893
REMARK  12 active torsions:
REMARK  status: ('A' for Active; 'I' for Inactive)
REMARK    1  A    between atoms: C_1  and  C_2
REMARK    2  A    between atoms: C_2  and  O_3
REMARK    3  A    between atoms: O_3  and  C_4
REMARK    4  A    between atoms: C_4  and  C_6
REMARK    5  A    between atoms: C_7  and  C_22
REMARK    6  A    between atoms: C_12  and  C_14
REMARK    7  A    between atoms: C_16  and  C_21
REMARK    8  A    between atoms: C_19  and  C_20
REMARK    9  A    between atoms: C_22  and  S_23
REMARK   10  A    between atoms: S_23  and  C_24
REMARK   11  A    between atoms: N_34  and  C_35
REMARK   12  A    between atoms: C_35  and  C_36
REMARK                            x       y       z     vdW  Elec       q    Type
REMARK                         _______ _______ _______ _____ _____    ______ ____
ROOT
ATOM      1  C   UNL     1      -2.802  -2.962  -0.595  0.00  0.00    +0.079 C 
ATOM      2  C   UNL     1      -3.068  -4.284  -0.516  0.00  0.00    +0.034 C 
ATOM      3  N   UNL     1      -4.301  -4.733  -0.139  0.00  0.00    -0.272 N 
ATOM      4  C   UNL     1      -5.322  -3.925   0.175  0.00  0.00    +0.304 C 
ATOM      5  O   UNL     1      -6.384  -4.419   0.500  0.00  0.00    -0.252 OA
ATOM      6  N   UNL     1      -5.210  -2.583   0.143  0.00  0.00    -0.288 N 
ATOM      7  C   UNL     1      -3.916  -1.996  -0.246  0.00  0.00    +0.144 C 
ATOM      8  H   UNL     1      -4.445  -5.691  -0.096  0.00  0.00    +0.156 HD
ATOM      9  H   UNL     1      -5.962  -2.016   0.374  0.00  0.00    +0.151 HD
ENDROOT
BRANCH   7  10
ATOM     10  C   UNL     1      -4.154  -1.109  -1.441  0.00  0.00    -0.019 A 
ATOM     11  C   UNL     1      -5.097  -1.463  -2.387  0.00  0.00    +0.009 A 
ATOM     12  C   UNL     1      -5.315  -0.650  -3.483  0.00  0.00    -0.050 A 
ATOM     13  C   UNL     1      -4.590   0.518  -3.633  0.00  0.00    +0.003 A 
ATOM     14  C   UNL     1      -3.648   0.872  -2.686  0.00  0.00    +0.004 A 
ATOM     15  C   UNL     1      -3.433   0.060  -1.587  0.00  0.00    -0.045 A 
ATOM     16  C   UNL     1      -2.408   0.449  -0.552  0.00  0.00    +0.044 C 
ATOM     17  C   UNL     1      -6.343  -1.036  -4.515  0.00  0.00    +0.044 C 
ENDBRANCH   7  10
BRANCH   1  18
ATOM     18  C   UNL     1      -1.525  -2.495  -0.985  0.00  0.00    +0.339 C 
ATOM     19  O   UNL     1      -0.727  -2.128  -0.142  0.00  0.00    -0.245 OA
BRANCH  18  20
ATOM     20  O   UNL     1      -1.191  -2.456  -2.292  0.00  0.00    -0.462 OA
BRANCH  20  22
ATOM     21  C   UNL     1       0.362  -2.142  -4.117  0.00  0.00    +0.048 C 
ATOM     22  C   UNL     1       0.127  -2.004  -2.612  0.00  0.00    +0.229 C 
ENDBRANCH  20  22
ENDBRANCH  18  20
ENDBRANCH   1  18
BRANCH   2  23
ATOM     23  C   UNL     1      -1.986  -5.279  -0.850  0.00  0.00    +0.128 C 
BRANCH  23  24
ATOM     24  S   UNL     1      -1.361  -6.028   0.679  0.00  0.00    -0.078 S 
BRANCH  24  25
ATOM     25  C   UNL     1      -0.121  -7.152   0.127  0.00  0.00    +0.212 A 
ATOM     26  N   UNL     1       0.541  -7.879   1.018  0.00  0.00    -0.201 NA
ATOM     27  C   UNL     1       1.476  -8.726   0.599  0.00  0.00    +0.165 A 
ATOM     28  C   UNL     1       1.726  -8.817  -0.785  0.00  0.00    +0.138 A 
ATOM     29  C   UNL     1       2.794  -9.818  -0.948  0.00  0.00    +0.029 A 
ATOM     30  C   UNL     1       3.464 -10.338  -2.054  0.00  0.00    +0.012 A 
ATOM     31  C   UNL     1       4.443 -11.291  -1.876  0.00  0.00    +0.001 A 
ATOM     32  C   UNL     1       4.764 -11.733  -0.602  0.00  0.00    +0.002 A 
ATOM     33  C   UNL     1       4.109 -11.227   0.501  0.00  0.00    +0.026 A 
ATOM     34  C   UNL     1       3.118 -10.265   0.342  0.00  0.00    +0.053 A 
ATOM     35  N   UNL     1       2.314  -9.596   1.251  0.00  0.00    -0.320 N 
ATOM     36  N   UNL     1       1.030  -8.063  -1.624  0.00  0.00    -0.143 NA
ATOM     37  N   UNL     1       0.130  -7.258  -1.174  0.00  0.00    -0.122 NA
BRANCH  35  38
ATOM     38  C   UNL     1       2.355  -9.789   2.703  0.00  0.00    +0.150 C 
BRANCH  38  39
ATOM     39  C   UNL     1       1.391 -10.881   3.091  0.00  0.00    -0.013 C 
ATOM     40  C   UNL     1       1.812 -11.911   3.782  0.00  0.00    +0.005 C 
ENDBRANCH  38  39
ENDBRANCH  35  38
ENDBRANCH  24  25
ENDBRANCH  23  24
ENDBRANCH   2  23
TORSDOF 9
