REMARK  Name = ZINC57472598
REMARK  6 active torsions:
REMARK  status: ('A' for Active; 'I' for Inactive)
REMARK    1  A    between atoms: C_1  and  C_2
REMARK    2  A    between atoms: C_15  and  C_17
REMARK    3  A    between atoms: C_17  and  C_19
REMARK    4  A    between atoms: C_17  and  S_20
REMARK    5  A    between atoms: S_20  and  C_21
REMARK    6  A    between atoms: C_25  and  N_27
REMARK                            x       y       z     vdW  Elec       q    Type
REMARK                         _______ _______ _______ _____ _____    ______ ____
ROOT
ATOM      1  C   UNL     1      -0.019   1.526   0.010  0.00  0.00    +0.008 C 
ATOM      2  C   UNL     1       0.002  -0.004   0.002  0.00  0.00    -0.009 C 
ATOM      3  C   UNL     1      -1.433  -0.537   0.021  0.00  0.00    +0.008 C 
ATOM      4  C   UNL     1      -1.430  -2.044  -0.237  0.00  0.00    +0.037 C 
ATOM      5  C   UNL     1      -0.472  -2.712   0.745  0.00  0.00    -0.023 A 
ATOM      6  C   UNL     1       0.476  -1.985   1.383  0.00  0.00    -0.004 A 
ATOM      7  S   UNL     1       1.343  -3.148   2.406  0.00  0.00    -0.073 S 
ATOM      8  C   UNL     1       0.437  -4.601   1.978  0.00  0.00    +0.116 A 
ATOM      9  C   UNL     1      -0.517  -4.131   1.048  0.00  0.00    +0.075 A 
ATOM     10  C   UNL     1      -1.426  -5.099   0.502  0.00  0.00    +0.260 A 
ATOM     11  O   UNL     1      -2.286  -4.796  -0.308  0.00  0.00    -0.267 OA
ATOM     12  N   UNL     1      -1.267  -6.369   0.944  0.00  0.00    -0.309 N 
ATOM     13  H   UNL     1      -1.860  -7.056   0.601  0.00  0.00    +0.170 HD
ATOM     14  C   UNL     1      -0.319  -6.726   1.843  0.00  0.00    +0.124 A 
ATOM     15  N   UNL     1       0.532  -5.869   2.365  0.00  0.00    -0.225 NA
ATOM     16  C   UNL     1       0.737  -0.516   1.249  0.00  0.00    +0.046 C 
ENDROOT
BRANCH  14  17
ATOM     17  C   UNL     1      -0.234  -8.170   2.263  0.00  0.00    +0.117 C 
ATOM     18  C   UNL     1      -1.028  -8.373   3.555  0.00  0.00    +0.027 C 
BRANCH  17  19
ATOM     19  S   UNL     1       1.502  -8.617   2.545  0.00  0.00    -0.075 S 
BRANCH  19  20
ATOM     20  C   UNL     1       1.448 -10.347   2.879  0.00  0.00    +0.192 A 
ATOM     21  N   UNL     1       0.279 -10.970   2.866  0.00  0.00    -0.207 NA
ATOM     22  C   UNL     1       0.200 -12.276   3.113  0.00  0.00    +0.122 A 
ATOM     23  C   UNL     1       1.365 -12.985   3.388  0.00  0.00    +0.086 A 
ATOM     24  C   UNL     1       2.575 -12.296   3.393  0.00  0.00    +0.122 A 
ATOM     25  N   UNL     1       2.578 -10.991   3.132  0.00  0.00    -0.207 NA
ATOM     26  N   UNL     1      -1.028 -12.920   3.098  0.00  0.00    -0.343 N 
ATOM     27  H   UNL     1      -1.836 -12.420   2.906  0.00  0.00    +0.144 HD
ATOM     28  H   UNL     1      -1.078 -13.872   3.279  0.00  0.00    +0.144 HD
BRANCH  24  29
ATOM     29  N   UNL     1       3.761 -12.961   3.662  0.00  0.00    -0.343 N 
ATOM     30  H   UNL     1       3.751 -13.913   3.848  0.00  0.00    +0.144 HD
ATOM     31  H   UNL     1       4.600 -12.474   3.664  0.00  0.00    +0.144 HD
ENDBRANCH  24  29
ENDBRANCH  19  20
ENDBRANCH  17  19
ENDBRANCH  14  17
TORSDOF 4
