REMARK  Name = ZINC02806067
REMARK  12 active torsions:
REMARK  status: ('A' for Active; 'I' for Inactive)
REMARK    1  A    between atoms: C_1  and  C_2
REMARK    2  A    between atoms: C_3  and  C_32
REMARK    3  A    between atoms: C_4  and  C_23
REMARK    4  A    between atoms: C_10  and  C_15
REMARK    5  A    between atoms: C_18  and  O_21
REMARK    6  A    between atoms: O_21  and  C_22
REMARK    7  A    between atoms: C_27  and  N_29
REMARK    8  A    between atoms: C_32  and  O_34
REMARK    9  A    between atoms: O_34  and  C_35
REMARK   10  A    between atoms: C_35  and  C_36
REMARK   11  A    between atoms: C_36  and  O_37
REMARK   12  A    between atoms: O_37  and  C_38
REMARK                            x       y       z     vdW  Elec       q    Type
REMARK                         _______ _______ _______ _____ _____    ______ ____
ROOT
ATOM      1  C   UNL     1       1.662  -1.747  -3.359  0.00  0.00    +0.061 C 
ATOM      2  C   UNL     1       1.166  -2.599  -2.219  0.00  0.00    +0.016 C 
ATOM      3  C   UNL     1       0.664  -2.014  -1.117  0.00  0.00    +0.065 C 
ATOM      4  C   UNL     1       0.160  -2.830   0.036  0.00  0.00    +0.092 C 
ATOM      5  C   UNL     1       0.668  -4.247  -0.037  0.00  0.00    +0.024 C 
ATOM      6  C   UNL     1       1.173  -4.740  -1.187  0.00  0.00    +0.016 C 
ATOM      7  N   UNL     1       1.231  -3.961  -2.312  0.00  0.00    -0.321 N 
ATOM      8  C   UNL     1       1.690  -6.155  -1.265  0.00  0.00    +0.059 C 
ATOM      9  C   UNL     1       0.912  -7.040  -0.288  0.00  0.00    +0.032 C 
ATOM     10  C   UNL     1       1.073  -6.465   1.123  0.00  0.00    +0.088 C 
ATOM     11  C   UNL     1       0.604  -5.036   1.125  0.00  0.00    +0.162 C 
ATOM     12  O   UNL     1       0.160  -4.555   2.149  0.00  0.00    -0.292 OA
ATOM     13  H   UNL     1       1.330  -4.441  -3.296  0.00  0.00    +0.152 HD
ENDROOT
BRANCH   9  14
ATOM     14  C   UNL     1       1.461  -8.443  -0.329  0.00  0.00    -0.043 A 
ATOM     15  C   UNL     1       2.792  -8.673  -0.032  0.00  0.00    +0.007 A 
ATOM     16  C   UNL     1       3.296  -9.959  -0.063  0.00  0.00    +0.046 A 
ATOM     17  C   UNL     1       2.469 -11.019  -0.404  0.00  0.00    +0.120 A 
ATOM     18  C   UNL     1       1.135 -10.785  -0.707  0.00  0.00    +0.046 A 
ATOM     19  C   UNL     1       0.634  -9.498  -0.669  0.00  0.00    +0.007 A 
BRANCH  17  20
ATOM     20  O   UNL     1       2.964 -12.284  -0.442  0.00  0.00    -0.495 OA
ATOM     21  C   UNL     1       4.346 -12.449  -0.117  0.00  0.00    +0.277 C 
ENDBRANCH  17  20
ENDBRANCH   9  14
BRANCH   4  22
ATOM     22  C   UNL     1      -1.347  -2.849   0.007  0.00  0.00    -0.033 A 
ATOM     23  C   UNL     1      -2.011  -3.366  -1.089  0.00  0.00    +0.005 A 
ATOM     24  C   UNL     1      -3.393  -3.383  -1.116  0.00  0.00    +0.003 A 
ATOM     25  C   UNL     1      -4.111  -2.884  -0.045  0.00  0.00    +0.033 A 
ATOM     26  C   UNL     1      -3.447  -2.368   1.052  0.00  0.00    +0.126 A 
ATOM     27  C   UNL     1      -2.065  -2.354   1.080  0.00  0.00    +0.037 A 
BRANCH  26  28
ATOM     28  N   UNL     1      -4.216  -1.834   2.199  0.00  0.00    +0.056 N 
ATOM     29  O   UNL     1      -5.434  -1.849   2.175  0.00  0.00    -0.126 OA
ATOM     30  O   UNL     1      -3.631  -1.379   3.165  0.00  0.00    -0.126 OA
ENDBRANCH  26  28
ENDBRANCH   4  22
BRANCH   3  31
ATOM     31  C   UNL     1       0.616  -0.603  -1.042  0.00  0.00    +0.338 C 
ATOM     32  O   UNL     1       1.121   0.071  -1.920  0.00  0.00    -0.245 OA
BRANCH  31  33
ATOM     33  O   UNL     1       0.010  -0.003   0.004  0.00  0.00    -0.459 OA
BRANCH  33  34
ATOM     34  C   UNL     1      -0.001   1.426   0.016  0.00  0.00    +0.260 C 
BRANCH  34  35
ATOM     35  C   UNL     1      -0.727   1.920   1.269  0.00  0.00    +0.200 C 
BRANCH  35  36
ATOM     36  O   UNL     1       0.014   1.538   2.430  0.00  0.00    -0.380 OA
ATOM     37  C   UNL     1      -0.580   1.954   3.661  0.00  0.00    +0.194 C 
ENDBRANCH  35  36
ENDBRANCH  34  35
ENDBRANCH  33  34
ENDBRANCH  31  33
ENDBRANCH   3  31
TORSDOF 9
