REMARK  Name = ZINC13791213
REMARK  9 active torsions:
REMARK  status: ('A' for Active; 'I' for Inactive)
REMARK    1  A    between atoms: C_1  and  O_2
REMARK    2  A    between atoms: O_2  and  C_3
REMARK    3  A    between atoms: C_6  and  O_33
REMARK    4  A    between atoms: N_12  and  C_13
REMARK    5  A    between atoms: C_13  and  C_14
REMARK    6  A    between atoms: C_20  and  C_22
REMARK    7  A    between atoms: N_27  and  S_29
REMARK    8  A    between atoms: S_29  and  C_32
REMARK    9  A    between atoms: O_33  and  C_34
REMARK                            x       y       z     vdW  Elec       q    Type
REMARK                         _______ _______ _______ _____ _____    ______ ____
ROOT
ATOM      1  C   UNL     1      -8.038   4.935  -0.492  0.00  0.00    +0.147 A 
ATOM      2  C   UNL     1      -8.456   6.123  -1.042  0.00  0.00    +0.051 A 
ATOM      3  C   UNL     1      -7.706   6.778  -2.008  0.00  0.00    +0.050 A 
ATOM      4  C   UNL     1      -6.508   6.222  -2.429  0.00  0.00    +0.136 A 
ATOM      5  C   UNL     1      -6.081   5.032  -1.883  0.00  0.00    +0.086 A 
ATOM      6  C   UNL     1      -6.817   4.338  -0.899  0.00  0.00    +0.125 A 
ATOM      7  N   UNL     1      -6.268   3.183  -0.461  0.00  0.00    -0.221 NA
ATOM      8  C   UNL     1      -5.124   2.730  -0.917  0.00  0.00    +0.168 A 
ATOM      9  S   UNL     1      -4.661   3.987  -2.100  0.00  0.00    -0.048 S 
ATOM     10  N   UNL     1      -4.444   1.574  -0.566  0.00  0.00    -0.248 N 
ATOM     11  C   UNL     1      -4.902   0.803   0.441  0.00  0.00    +0.226 C 
ATOM     12  O   UNL     1      -4.356  -0.251   0.694  0.00  0.00    -0.275 OA
ENDROOT
BRANCH  11  13
ATOM     13  C   UNL     1      -6.090   1.250   1.252  0.00  0.00    +0.091 C 
ATOM     14  C   UNL     1      -7.378   0.926   0.493  0.00  0.00    +0.015 C 
ATOM     15  C   UNL     1      -8.585   1.409   1.301  0.00  0.00    +0.018 C 
ATOM     16  C   UNL     1      -8.620   0.677   2.646  0.00  0.00    +0.109 C 
ATOM     17  N   UNL     1      -7.327   0.864   3.320  0.00  0.00    -0.181 NA
ATOM     18  C   UNL     1      -6.096   0.516   2.597  0.00  0.00    +0.121 C 
BRANCH  17  19
ATOM     19  S   UNL     1      -7.260   1.456   4.865  0.00  0.00    +0.029 S 
ATOM     20  O   UNL     1      -5.981   2.069   4.963  0.00  0.00    -0.158 OA
ATOM     21  O   UNL     1      -8.445   2.226   5.011  0.00  0.00    -0.158 OA
ATOM     22  C   UNL     1      -7.332  -0.011   5.930  0.00  0.00    +0.215 C 
ENDBRANCH  17  19
ENDBRANCH  11  13
BRANCH   1  24
ATOM     23  C   UNL     1     -10.021   4.976   0.821  0.00  0.00    +0.277 C 
ATOM     24  O   UNL     1      -8.803   4.325   0.453  0.00  0.00    -0.493 OA
ENDBRANCH   1  24
BRANCH   4  25
ATOM     25  O   UNL     1      -5.758   6.848  -3.376  0.00  0.00    -0.494 OA
ATOM     26  C   UNL     1      -6.264   8.079  -3.895  0.00  0.00    +0.277 C 
ENDBRANCH   4  25
BRANCH  10  27
ATOM     27  C   UNL     1      -3.229   1.190  -1.288  0.00  0.00    +0.147 C 
BRANCH  27  28
ATOM     28  C   UNL     1      -2.020   1.886  -0.660  0.00  0.00    +0.136 C 
ATOM     29  C   UNL     1      -0.757   1.597  -1.494  0.00  0.00    +0.035 C 
ATOM     30  C   UNL     1       0.212   0.922  -0.494  0.00  0.00    +0.031 C 
ATOM     31  C   UNL     1      -0.358   1.381   0.872  0.00  0.00    +0.160 C 
ATOM     32  O   UNL     1      -1.787   1.370   0.661  0.00  0.00    -0.375 OA
ENDBRANCH  27  28
ENDBRANCH  10  27
TORSDOF 6
