REMARK  Name = ZINC09091309
REMARK  7 active torsions:
REMARK  status: ('A' for Active; 'I' for Inactive)
REMARK    1  A    between atoms: C_5  and  N_7
REMARK    2  A    between atoms: C_8  and  C_10
REMARK    3  A    between atoms: C_10  and  O_11
REMARK    4  A    between atoms: O_11  and  C_12
REMARK    5  A    between atoms: C_12  and  C_14
REMARK    6  A    between atoms: C_17  and  C_19
REMARK    7  A    between atoms: C_22  and  N_25
REMARK                            x       y       z     vdW  Elec       q    Type
REMARK                         _______ _______ _______ _____ _____    ______ ____
ROOT
ATOM      1  C   UNL     1      -1.211   2.219  -0.013  0.00  0.00    +0.375 C 
ATOM      2  O   UNL     1      -2.315   1.708  -0.015  0.00  0.00    -0.241 OA
ENDROOT
BRANCH   1   3
ATOM      3  C   UNL     1      -0.015   1.376  -0.029  0.00  0.00    +0.212 A 
ATOM      4  C   UNL     1       0.004  -0.003  -0.047  0.00  0.00    +0.057 A 
ATOM      5  C   UNL     1       1.348  -0.387  -0.063  0.00  0.00    +0.051 A 
ATOM      6  C   UNL     1       2.094   0.757  -0.055  0.00  0.00    +0.136 A 
ATOM      7  O   UNL     1       1.263   1.813  -0.034  0.00  0.00    -0.448 OA
BRANCH   6   8
ATOM      8  C   UNL     1       3.569   0.824  -0.067  0.00  0.00    +0.017 A 
ATOM      9  C   UNL     1       4.324  -0.351  -0.084  0.00  0.00    +0.014 A 
ATOM     10  C   UNL     1       5.702  -0.281  -0.101  0.00  0.00    +0.033 A 
ATOM     11  C   UNL     1       6.336   0.949  -0.090  0.00  0.00    +0.126 A 
ATOM     12  C   UNL     1       5.594   2.116  -0.068  0.00  0.00    +0.033 A 
ATOM     13  C   UNL     1       4.216   2.062  -0.056  0.00  0.00    +0.014 A 
BRANCH  11  14
ATOM     14  N   UNL     1       7.814   1.015  -0.103  0.00  0.00    +0.056 N 
ATOM     15  O   UNL     1       8.375   2.096  -0.093  0.00  0.00    -0.126 OA
ATOM     16  O   UNL     1       8.470  -0.011  -0.123  0.00  0.00    -0.126 OA
ENDBRANCH  11  14
ENDBRANCH   6   8
ENDBRANCH   1   3
BRANCH   1  17
ATOM     17  O   UNL     1      -1.089   3.562   0.004  0.00  0.00    -0.450 OA
BRANCH  17  18
ATOM     18  C   UNL     1      -2.299   4.323   0.019  0.00  0.00    +0.328 C 
BRANCH  18  20
ATOM     19  N   UNL     1      -2.958   6.707   0.053  0.00  0.00    -0.282 N 
ATOM     20  C   UNL     1      -1.968   5.793   0.037  0.00  0.00    +0.255 C 
ATOM     21  O   UNL     1      -0.810   6.154   0.037  0.00  0.00    -0.272 OA
ATOM     22  H   UNL     1      -3.883   6.421  -0.013  0.00  0.00    +0.155 HD
BRANCH  19  27
ATOM     23  C   UNL     1      -1.208   9.919  -0.321  0.00  0.00    +0.002 A 
ATOM     24  C   UNL     1      -2.048  10.760   0.386  0.00  0.00    +0.001 A 
ATOM     25  C   UNL     1      -3.190  10.258   0.983  0.00  0.00    +0.017 A 
ATOM     26  C   UNL     1      -3.495   8.915   0.875  0.00  0.00    +0.039 A 
ATOM     27  C   UNL     1      -2.653   8.068   0.165  0.00  0.00    +0.048 A 
ATOM     28  C   UNL     1      -1.504   8.575  -0.429  0.00  0.00    +0.024 A 
ATOM     29 BR   UNL     1      -5.056   8.229   1.693  0.00  0.00    -0.048 Br
ENDBRANCH  19  27
ENDBRANCH  18  20
ENDBRANCH  17  18
ENDBRANCH   1  17
TORSDOF 7
