REMARK  Name = ZINC28690652
REMARK  11 active torsions:
REMARK  status: ('A' for Active; 'I' for Inactive)
REMARK    1  A    between atoms: C_1  and  C_2
REMARK    2  A    between atoms: C_2  and  C_3
REMARK    3  A    between atoms: C_2  and  C_4
REMARK    4  A    between atoms: C_2  and  C_5
REMARK    5  A    between atoms: C_9  and  S_11
REMARK    6  A    between atoms: S_11  and  C_12
REMARK    7  A    between atoms: C_12  and  C_13
REMARK    8  A    between atoms: C_16  and  S_19
REMARK    9  A    between atoms: S_19  and  C_20
REMARK   10  A    between atoms: N_23  and  C_28
REMARK   11  A    between atoms: N_26  and  C_27
REMARK                            x       y       z     vdW  Elec       q    Type
REMARK                         _______ _______ _______ _____ _____    ______ ____
ROOT
ATOM      1  C   UNL     1      -2.798   4.027   4.886  0.00  0.00    +0.138 A 
ATOM      2  N   UNL     1      -2.639   2.742   4.628  0.00  0.00    -0.213 NA
ATOM      3  C   UNL     1      -2.013   2.350   3.527  0.00  0.00    +0.154 A 
ATOM      4  C   UNL     1      -1.522   3.327   2.640  0.00  0.00    +0.114 A 
ATOM      5  C   UNL     1      -1.714   4.681   2.955  0.00  0.00    +0.115 A 
ATOM      6  N   UNL     1      -2.356   4.976   4.087  0.00  0.00    -0.224 NA
ATOM      7  C   UNL     1      -0.827   2.887   1.427  0.00  0.00    +0.268 A 
ATOM      8  O   UNL     1      -0.381   3.695   0.633  0.00  0.00    -0.267 OA
ATOM      9  N   UNL     1      -0.698   1.558   1.213  0.00  0.00    -0.263 N 
ATOM     10  C   UNL     1      -1.184   0.664   2.089  0.00  0.00    +0.333 A 
ATOM     11  O   UNL     1      -1.038  -0.519   1.853  0.00  0.00    -0.246 OA
ATOM     12  N   UNL     1      -1.825   1.020   3.217  0.00  0.00    -0.281 N 
ATOM     13  C   UNL     1      -2.327  -0.015   4.124  0.00  0.00    +0.155 C 
ATOM     14  C   UNL     1      -0.013   1.086   0.008  0.00  0.00    +0.157 C 
ENDROOT
BRANCH   1  16
ATOM     15  C   UNL     1      -3.583   5.950   6.241  0.00  0.00    +0.019 C 
ATOM     16  C   UNL     1      -3.516   4.424   6.150  0.00  0.00    +0.022 C 
ATOM     17  C   UNL     1      -4.935   3.852   6.132  0.00  0.00    +0.019 C 
ATOM     18  C   UNL     1      -2.760   3.874   7.361  0.00  0.00    +0.019 C 
ENDBRANCH   1  16
BRANCH   5  19
ATOM     19  S   UNL     1      -1.125   5.953   1.888  0.00  0.00    -0.100 S 
BRANCH  19  20
ATOM     20  C   UNL     1      -1.661   7.413   2.813  0.00  0.00    +0.111 C 
BRANCH  20  21
ATOM     21  C   UNL     1      -1.254   8.658   2.068  0.00  0.00    -0.037 A 
ATOM     22  C   UNL     1      -0.025   9.242   2.321  0.00  0.00    +0.005 A 
ATOM     23  C   UNL     1       0.354  10.379   1.636  0.00  0.00    +0.015 A 
ATOM     24  C   UNL     1      -0.505  10.944   0.700  0.00  0.00    +0.008 A 
ATOM     25  C   UNL     1      -1.740  10.358   0.454  0.00  0.00    +0.015 A 
ATOM     26  C   UNL     1      -2.111   9.217   1.138  0.00  0.00    +0.005 A 
BRANCH  24  27
ATOM     27  S   UNL     1      -0.028  12.399  -0.171  0.00  0.00    -0.129 S 
ATOM     28  C   UNL     1       1.624  12.777   0.477  0.00  0.00    +0.090 C 
ENDBRANCH  24  27
ENDBRANCH  20  21
ENDBRANCH  19  20
ENDBRANCH   5  19
TORSDOF 5
