REMARK  Name = ZINC48170813
REMARK  6 active torsions:
REMARK  status: ('A' for Active; 'I' for Inactive)
REMARK    1  A    between atoms: C_5  and  C_7
REMARK    2  A    between atoms: C_13  and  C_15
REMARK    3  A    between atoms: C_18  and  C_21
REMARK    4  A    between atoms: C_21  and  N_22
REMARK    5  A    between atoms: C_26  and  C_28
REMARK    6  A    between atoms: C_28  and  O_29
REMARK                            x       y       z     vdW  Elec       q    Type
REMARK                         _______ _______ _______ _____ _____    ______ ____
ROOT
ATOM      1  C   UNL     1      -1.180  -4.894   0.193  0.00  0.00    +0.017 A 
ATOM      2  C   UNL     1      -1.202  -6.290   0.195  0.00  0.00    +0.012 A 
ATOM      3  C   UNL     1      -2.404  -6.958   0.304  0.00  0.00    +0.002 A 
ATOM      4  C   UNL     1      -3.587  -6.247   0.412  0.00  0.00    -0.064 A 
ATOM      5  C   UNL     1      -3.572  -4.863   0.410  0.00  0.00    +0.002 A 
ATOM      6  C   UNL     1      -2.376  -4.183   0.307  0.00  0.00    +0.012 A 
ENDROOT
BRANCH   1  13
ATOM      7  C   UNL     1       1.248  -2.163  -0.022  0.00  0.00    +0.080 A 
ATOM      8  C   UNL     1       2.454  -2.837  -0.137  0.00  0.00    +0.098 A 
ATOM      9  C   UNL     1       2.444  -4.242  -0.142  0.00  0.00    +0.252 A 
ATOM     10  O   UNL     1       3.485  -4.871  -0.240  0.00  0.00    -0.268 OA
ATOM     11  N   UNL     1       1.262  -4.884  -0.035  0.00  0.00    -0.307 N 
ATOM     12  H   UNL     1       1.235  -5.854  -0.036  0.00  0.00    +0.170 HD
ATOM     13  C   UNL     1       0.104  -4.172   0.076  0.00  0.00    +0.141 A 
ATOM     14  N   UNL     1       0.106  -2.858   0.087  0.00  0.00    -0.229 NA
BRANCH   7  19
ATOM     15  C   UNL     1       1.752   1.413  -1.057  0.00  0.00    +0.001 A 
ATOM     16  C   UNL     1       1.171   2.087   0.003  0.00  0.00    +0.001 A 
ATOM     17  C   UNL     1       0.616   1.383   1.056  0.00  0.00    +0.020 A 
ATOM     18  C   UNL     1       0.637   0.002   1.054  0.00  0.00    +0.050 A 
ATOM     19  C   UNL     1       1.221  -0.682  -0.013  0.00  0.00    +0.019 A 
ATOM     20  C   UNL     1       1.780   0.034  -1.071  0.00  0.00    +0.011 A 
ATOM     21 CL   UNL     1      -0.060  -0.881   2.376  0.00  0.00    -0.083 Cl
ENDBRANCH   7  19
ENDBRANCH   1  13
BRANCH   4  22
ATOM     22  C   UNL     1      -4.896  -6.983   0.530  0.00  0.00    -0.043 C 
BRANCH  22  23
ATOM     23  N   UNL     1      -5.197  -7.222   1.948  0.00  0.00    +0.386 N 
ATOM     24  C   UNL     1      -4.197  -8.150   2.519  0.00  0.00    -0.078 C 
ATOM     25  C   UNL     1      -4.993  -9.022   3.522  0.00  0.00    -0.020 C 
ATOM     26  C   UNL     1      -6.346  -9.194   2.782  0.00  0.00    -0.015 C 
ATOM     27  C   UNL     1      -6.532  -7.835   2.076  0.00  0.00    -0.042 C 
ATOM     28  H   UNL     1      -5.174  -6.349   2.453  0.00  0.00    -0.081 HD
BRANCH  27  29
ATOM     29  C   UNL     1      -7.439  -6.933   2.916  0.00  0.00    +0.140 C 
BRANCH  29  30
ATOM     30  O   UNL     1      -6.934  -6.857   4.250  0.00  0.00    -0.397 OA
ATOM     31  H   UNL     1      -7.461  -6.301   4.839  0.00  0.00    +0.209 HD
ENDBRANCH  29  30
ENDBRANCH  27  29
ENDBRANCH  22  23
ENDBRANCH   4  22
TORSDOF 6
