REMARK  Name = ZINC59994271
REMARK  7 active torsions:
REMARK  status: ('A' for Active; 'I' for Inactive)
REMARK    1  A    between atoms: C_4  and  C_28
REMARK    2  A    between atoms: C_5  and  C_7
REMARK    3  A    between atoms: C_7  and  O_8
REMARK    4  A    between atoms: O_8  and  C_9
REMARK    5  A    between atoms: C_13  and  C_15
REMARK    6  A    between atoms: N_17  and  N_18
REMARK    7  A    between atoms: C_19  and  C_21
REMARK                            x       y       z     vdW  Elec       q    Type
REMARK                         _______ _______ _______ _____ _____    ______ ____
ROOT
ATOM      1  C   UNL     1      -0.280  -4.030  -0.017  0.00  0.00    +0.122 A 
ATOM      2  C   UNL     1       0.832  -4.862  -0.027  0.00  0.00    +0.046 A 
ATOM      3  C   UNL     1       0.673  -6.235  -0.034  0.00  0.00    +0.004 A 
ATOM      4  C   UNL     1      -0.591  -6.788  -0.029  0.00  0.00    +0.013 A 
ATOM      5  C   UNL     1      -1.714  -5.960  -0.018  0.00  0.00    +0.042 A 
ATOM      6  C   UNL     1      -1.553  -4.574  -0.007  0.00  0.00    +0.058 A 
ENDROOT
BRANCH   5   7
ATOM      7  C   UNL     1      -3.070  -6.550  -0.014  0.00  0.00    +0.260 C 
ATOM      8  O   UNL     1      -4.047  -5.826  -0.004  0.00  0.00    -0.269 OA
ATOM      9  N   UNL     1      -3.223  -7.889  -0.020  0.00  0.00    -0.230 N 
ATOM     10  H   UNL     1      -2.444  -8.466  -0.027  0.00  0.00    +0.173 HD
BRANCH   9  11
ATOM     11  N   UNL     1      -4.508  -8.447  -0.015  0.00  0.00    -0.229 N 
ATOM     12  C   UNL     1      -4.661  -9.786  -0.021  0.00  0.00    +0.276 C 
ATOM     13  O   UNL     1      -3.683 -10.510  -0.031  0.00  0.00    -0.267 OA
ATOM     14  H   UNL     1      -5.288  -7.870  -0.008  0.00  0.00    +0.173 HD
BRANCH  12  15
ATOM     15  C   UNL     1      -6.006 -10.370  -0.017  0.00  0.00    +0.104 A 
ATOM     16  C   UNL     1      -6.310 -11.715  -0.016  0.00  0.00    +0.047 A 
ATOM     17  C   UNL     1      -7.705 -11.822  -0.010  0.00  0.00    +0.036 A 
ATOM     18  C   UNL     1      -8.217 -10.567  -0.007  0.00  0.00    +0.098 A 
ATOM     19  N   UNL     1      -7.195  -9.676  -0.006  0.00  0.00    -0.356 N 
ATOM     20  H   UNL     1      -7.286  -8.710  -0.001  0.00  0.00    +0.166 HD
ATOM     21 BR   UNL     1      -8.700 -13.430  -0.006  0.00  0.00    -0.049 Br
ENDBRANCH  12  15
ENDBRANCH   9  11
ENDBRANCH   5   7
BRANCH   1  22
ATOM     22  O   UNL     1      -0.118  -2.680  -0.011  0.00  0.00    -0.487 OA
BRANCH  22  23
ATOM     23  C   UNL     1       1.223  -2.188  -0.022  0.00  0.00    +0.265 C 
BRANCH  23  28
ATOM     24  C   UNL     1      -0.017   1.379   0.010  0.00  0.00    +0.000 A 
ATOM     25  C   UNL     1       1.168   2.094   0.002  0.00  0.00    +0.001 A 
ATOM     26  C   UNL     1       2.377   1.430  -0.013  0.00  0.00    +0.019 A 
ATOM     27  C   UNL     1       2.404   0.034  -0.021  0.00  0.00    +0.058 A 
ATOM     28  C   UNL     1       1.204  -0.681  -0.013  0.00  0.00    +0.007 A 
ATOM     29  C   UNL     1       0.002  -0.004   0.002  0.00  0.00    +0.008 A 
BRANCH  27  30
ATOM     30  C   UNL     1       3.655  -0.662  -0.038  0.00  0.00    +0.100 C 
ATOM     31  N   UNL     1       4.648  -1.214  -0.051  0.00  0.00    -0.191 NA
ENDBRANCH  27  30
ENDBRANCH  23  28
ENDBRANCH  22  23
ENDBRANCH   1  22
TORSDOF 7
