REMARK  Name = ZINC06511835
REMARK  18 active torsions:
REMARK  status: ('A' for Active; 'I' for Inactive)
REMARK    1  A    between atoms: C_1  and  C_2
REMARK    2  A    between atoms: C_2  and  N_74
REMARK    3  A    between atoms: C_3  and  C_4
REMARK    4  A    between atoms: C_3  and  N_74
REMARK    5  A    between atoms: C_5  and  C_6
REMARK    6  A    between atoms: C_5  and  N_74
REMARK    7  A    between atoms: C_6  and  N_7
REMARK    8  A    between atoms: N_7  and  C_8
REMARK    9  A    between atoms: C_8  and  C_10
REMARK   10  A    between atoms: C_8  and  C_17
REMARK   11  A    between atoms: C_13  and  O_16
REMARK   12  A    between atoms: N_19  and  C_20
REMARK   13  A    between atoms: C_20  and  C_21
REMARK   14  A    between atoms: C_20  and  C_22
REMARK   15  A    between atoms: C_20  and  C_23
REMARK   16  A    between atoms: C_24  and  C_26
REMARK   17  A    between atoms: C_26  and  N_27
REMARK   18  A    between atoms: C_29  and  C_32
REMARK                            x       y       z     vdW  Elec       q    Type
REMARK                         _______ _______ _______ _____ _____    ______ ____
ROOT
ATOM      1  N   UNL     1      -0.193   1.010   2.193  0.00  0.00    -0.286 N 
ATOM      2  C   UNL     1      -0.670   0.047   3.007  0.00  0.00    +0.240 C 
ATOM      3  O   UNL     1      -1.589   0.289   3.759  0.00  0.00    -0.273 OA
ENDROOT
BRANCH   1   4
ATOM      4  C   UNL     1       0.918   0.717   1.285  0.00  0.00    +0.090 C 
BRANCH   4   5
ATOM      5  C   UNL     1       0.371   0.129  -0.017  0.00  0.00    -0.060 C 
BRANCH   5   6
ATOM      6  N   UNL     1       1.501  -0.128  -0.935  0.00  0.00    +0.380 N 
ATOM      7  H   UNL     1       2.124   0.688  -0.932  0.00  0.00    -0.082 HD
BRANCH   6   9
ATOM      8  C   UNL     1       3.542  -1.424  -1.309  0.00  0.00    -0.017 C 
ATOM      9  C   UNL     1       2.260  -1.313  -0.482  0.00  0.00    -0.082 C 
ENDBRANCH   6   9
BRANCH   6  10
ATOM     10  C   UNL     1       0.998  -0.344  -2.308  0.00  0.00    -0.082 C 
ATOM     11  C   UNL     1       0.648   1.013  -2.921  0.00  0.00    -0.017 C 
ENDBRANCH   6  10
ENDBRANCH   5   6
ENDBRANCH   4   5
ENDBRANCH   1   4
BRANCH   1  12
ATOM     12  C   UNL     1      -0.785   2.349   2.218  0.00  0.00    +0.192 C 
BRANCH  12  13
ATOM     13  C   UNL     1      -2.240   2.262   1.832  0.00  0.00    -0.018 A 
ATOM     14  C   UNL     1      -2.639   1.390   0.837  0.00  0.00    +0.009 A 
ATOM     15  C   UNL     1      -3.972   1.304   0.486  0.00  0.00    +0.046 A 
ATOM     16  C   UNL     1      -4.909   2.103   1.125  0.00  0.00    +0.117 A 
ATOM     17  C   UNL     1      -4.505   2.982   2.119  0.00  0.00    +0.046 A 
ATOM     18  C   UNL     1      -3.172   3.059   2.471  0.00  0.00    +0.009 A 
BRANCH  16  19
ATOM     19  O   UNL     1      -6.221   2.025   0.776  0.00  0.00    -0.507 OA
ATOM     20  H   UNL     1      -6.476   2.632   0.069  0.00  0.00    +0.292 HD
ENDBRANCH  16  19
ENDBRANCH  12  13
BRANCH  12  21
ATOM     21  C   UNL     1      -0.059   3.238   1.241  0.00  0.00    +0.238 C 
ATOM     22  O   UNL     1       0.122   2.865   0.101  0.00  0.00    -0.273 OA
ATOM     23  N   UNL     1       0.389   4.447   1.634  0.00  0.00    -0.309 N 
ATOM     24  H   UNL     1       0.244   4.745   2.545  0.00  0.00    +0.149 HD
BRANCH  23  25
ATOM     25  C   UNL     1       1.095   5.310   0.684  0.00  0.00    +0.026 C 
ATOM     26  C   UNL     1       0.178   5.623  -0.500  0.00  0.00    +0.031 C 
ATOM     27  C   UNL     1       1.493   6.614   1.379  0.00  0.00    +0.031 C 
ATOM     28  C   UNL     1       2.351   4.596   0.182  0.00  0.00    +0.031 C 
ENDBRANCH  23  25
ENDBRANCH  12  21
ENDBRANCH   1  12
BRANCH   2  29
ATOM     29  C   UNL     1      -0.060  -1.331   2.982  0.00  0.00    +0.264 C 
BRANCH  29  30
ATOM     30  N   UNL     1      -0.750  -2.188   3.950  0.00  0.00    -0.154 N 
ATOM     31  N   UNL     1      -0.413  -2.338   5.185  0.00  0.00    -0.130 NA
ATOM     32  C   UNL     1      -1.265  -3.179   5.736  0.00  0.00    +0.205 A 
ATOM     33  N   UNL     1      -2.128  -3.536   4.774  0.00  0.00    -0.108 NA
ATOM     34  N   UNL     1      -1.784  -2.913   3.699  0.00  0.00    -0.045 NA
BRANCH  32  35
ATOM     35  C   UNL     1      -1.266  -3.645   7.146  0.00  0.00    +0.023 A 
ATOM     36  C   UNL     1      -0.294  -3.187   8.033  0.00  0.00    +0.014 A 
ATOM     37  C   UNL     1      -0.302  -3.618   9.344  0.00  0.00    +0.039 A 
ATOM     38  C   UNL     1      -1.267  -4.514   9.775  0.00  0.00    +0.123 A 
ATOM     39  C   UNL     1      -2.232  -4.976   8.894  0.00  0.00    +0.039 A 
ATOM     40  C   UNL     1      -2.235  -4.545   7.583  0.00  0.00    +0.014 A 
ATOM     41  F   UNL     1      -1.267  -4.938  11.057  0.00  0.00    -0.205 F 
ENDBRANCH  32  35
ENDBRANCH  29  30
ENDBRANCH   2  29
TORSDOF 13
