REMARK  Name = ZINC33637151
REMARK  8 active torsions:
REMARK  status: ('A' for Active; 'I' for Inactive)
REMARK    1  A    between atoms: C_1  and  C_2
REMARK    2  A    between atoms: C_3  and  C_29
REMARK    3  A    between atoms: C_4  and  N_9
REMARK    4  A    between atoms: C_6  and  C_8
REMARK    5  A    between atoms: N_18  and  C_19
REMARK    6  A    between atoms: C_29  and  C_30
REMARK    7  A    between atoms: C_33  and  O_36
REMARK    8  A    between atoms: O_36  and  C_37
REMARK                            x       y       z     vdW  Elec       q    Type
REMARK                         _______ _______ _______ _____ _____    ______ ____
ROOT
ATOM      1  N   UNL     1      -8.955   1.992  -0.437  0.00  0.00    -0.313 N 
ATOM      2  C   UNL     1      -9.304   2.925   0.633  0.00  0.00    +0.108 C 
ATOM      3  C   UNL     1      -9.406   2.166   1.938  0.00  0.00    +0.038 C 
ATOM      4  C   UNL     1      -8.047   2.194   2.665  0.00  0.00    +0.111 C 
ATOM      5  N   UNL     1      -6.931   2.034   1.712  0.00  0.00    -0.284 N 
ATOM      6  C   UNL     1      -6.969   1.082   0.621  0.00  0.00    +0.128 C 
ATOM      7  C   UNL     1      -7.575   1.752  -0.635  0.00  0.00    +0.125 C 
ATOM      8  C   UNL     1      -5.833   2.800   1.866  0.00  0.00    +0.303 C 
ATOM      9  O   UNL     1      -5.776   3.607   2.774  0.00  0.00    -0.253 OA
ATOM     10  N   UNL     1      -4.796   2.671   1.014  0.00  0.00    -0.294 N 
ATOM     11  H   UNL     1      -4.848   1.941   0.192  0.00  0.00    +0.151 HD
ENDROOT
BRANCH  10  12
ATOM     12  C   UNL     1      -3.602   3.503   1.181  0.00  0.00    +0.037 C 
ATOM     13  C   UNL     1      -2.585   3.160   0.091  0.00  0.00    +0.029 C 
ATOM     14  C   UNL     1      -1.338   4.029   0.266  0.00  0.00    -0.008 C 
ATOM     15  C   UNL     1      -0.721   3.765   1.641  0.00  0.00    +0.007 C 
ATOM     16  C   UNL     1      -1.738   4.107   2.731  0.00  0.00    -0.008 C 
ATOM     17  C   UNL     1      -2.985   3.239   2.556  0.00  0.00    +0.029 C 
ATOM     18  C   UNL     1      -2.126   5.584   2.621  0.00  0.00    +0.007 C 
ATOM     19  C   UNL     1      -2.743   5.848   1.246  0.00  0.00    -0.008 C 
ATOM     20  C   UNL     1      -1.726   5.505   0.156  0.00  0.00    +0.007 C 
ATOM     21  C   UNL     1      -3.990   4.979   1.072  0.00  0.00    +0.029 C 
ENDBRANCH  10  12
BRANCH   1  25
ATOM     22  C   UNL     1     -12.384   1.217  -3.883  0.00  0.00    +0.064 C 
ATOM     23  C   UNL     1     -11.226   1.991  -3.308  0.00  0.00    +0.021 A 
ATOM     24  C   UNL     1     -10.640   1.594  -2.122  0.00  0.00    +0.016 A 
ATOM     25  C   UNL     1      -9.573   2.346  -1.626  0.00  0.00    +0.128 A 
ATOM     26  N   UNL     1      -9.156   3.404  -2.315  0.00  0.00    -0.219 NA
ATOM     27  C   UNL     1      -9.741   3.743  -3.446  0.00  0.00    +0.106 A 
ATOM     28  N   UNL     1     -10.754   3.058  -3.937  0.00  0.00    -0.347 N 
ATOM     29  C   UNL     1      -9.239   4.949  -4.198  0.00  0.00    +0.086 C 
ATOM     30  H   UNL     1     -11.207   3.383  -4.885  0.00  0.00    +0.167 HD
BRANCH  24  31
ATOM     31  C   UNL     1     -11.144   0.384  -1.378  0.00  0.00    +0.075 C 
BRANCH  31  32
ATOM     32  C   UNL     1     -10.455  -0.850  -1.902  0.00  0.00    -0.043 A 
ATOM     33  C   UNL     1     -11.033  -1.582  -2.922  0.00  0.00    +0.007 A 
ATOM     34  C   UNL     1     -10.401  -2.711  -3.408  0.00  0.00    +0.046 A 
ATOM     35  C   UNL     1      -9.191  -3.115  -2.864  0.00  0.00    +0.120 A 
ATOM     36  C   UNL     1      -8.616  -2.381  -1.836  0.00  0.00    +0.046 A 
ATOM     37  C   UNL     1      -9.249  -1.251  -1.358  0.00  0.00    +0.007 A 
BRANCH  35  38
ATOM     38  O   UNL     1      -8.570  -4.227  -3.337  0.00  0.00    -0.495 OA
ATOM     39  C   UNL     1      -9.220  -4.933  -4.395  0.00  0.00    +0.277 C 
ENDBRANCH  35  38
ENDBRANCH  31  32
ENDBRANCH  24  31
ENDBRANCH   1  25
TORSDOF 5
