REMARK  Name = ZINC12642061
REMARK  8 active torsions:
REMARK  status: ('A' for Active; 'I' for Inactive)
REMARK    1  A    between atoms: C_1  and  C_2
REMARK    2  A    between atoms: C_2  and  C_3
REMARK    3  A    between atoms: C_2  and  C_4
REMARK    4  A    between atoms: C_2  and  N_5
REMARK    5  A    between atoms: C_6  and  C_8
REMARK    6  A    between atoms: C_16  and  C_26
REMARK    7  A    between atoms: N_22  and  C_23
REMARK    8  A    between atoms: N_28  and  C_29
REMARK                            x       y       z     vdW  Elec       q    Type
REMARK                         _______ _______ _______ _____ _____    ______ ____
ROOT
ATOM      1  C   UNL     1       1.742   4.189   0.090  0.00  0.00    +0.199 C 
ATOM      2  C   UNL     1       0.752   3.088  -0.129  0.00  0.00    +0.127 C 
ATOM      3  C   UNL     1      -0.164   2.994  -1.296  0.00  0.00    +0.009 C 
ATOM      4  C   UNL     1      -0.660   1.743  -1.216  0.00  0.00    +0.004 C 
ATOM      5  C   UNL     1      -0.013   1.086   0.008  0.00  0.00    +0.155 C 
ATOM      6  O   UNL     1       1.303   1.750  -0.001  0.00  0.00    -0.358 OA
ATOM      7  C   UNL     1      -0.637   1.743   1.281  0.00  0.00    +0.122 C 
ATOM      8  C   UNL     1      -0.143   3.196   1.160  0.00  0.00    +0.128 C 
ATOM      9  C   UNL     1       0.875   3.620   2.180  0.00  0.00    +0.224 C 
ATOM     10  O   UNL     1       0.795   3.425   3.375  0.00  0.00    -0.275 OA
ATOM     11  N   UNL     1       1.897   4.258   1.555  0.00  0.00    -0.283 N 
ENDROOT
BRANCH   1  13
ATOM     12  N   UNL     1       1.249   5.777  -1.741  0.00  0.00    -0.309 N 
ATOM     13  C   UNL     1       1.199   5.498  -0.423  0.00  0.00    +0.237 C 
ATOM     14  O   UNL     1       0.716   6.299   0.349  0.00  0.00    -0.274 OA
ATOM     15  H   UNL     1       1.634   5.137  -2.358  0.00  0.00    +0.149 HD
BRANCH  12  17
ATOM     16  C   UNL     1       1.478   8.208  -1.587  0.00  0.00    +0.031 C 
ATOM     17  C   UNL     1       0.720   7.050  -2.240  0.00  0.00    +0.026 C 
ATOM     18  C   UNL     1       0.898   7.115  -3.758  0.00  0.00    +0.031 C 
ATOM     19  C   UNL     1      -0.767   7.154  -1.896  0.00  0.00    +0.031 C 
ENDBRANCH  12  17
ENDBRANCH   1  13
BRANCH   7  20
ATOM     20  C   UNL     1      -2.142   1.679   1.238  0.00  0.00    +0.220 C 
ATOM     21  O   UNL     1      -2.792   2.703   1.233  0.00  0.00    -0.275 OA
ATOM     22  N   UNL     1      -2.765   0.485   1.206  0.00  0.00    -0.312 N 
ATOM     23  H   UNL     1      -2.245  -0.334   1.210  0.00  0.00    +0.149 HD
BRANCH  22  24
ATOM     24  C   UNL     1      -4.228   0.423   1.164  0.00  0.00    +0.073 C 
ATOM     25  C   UNL     1      -4.784   0.509   2.587  0.00  0.00    +0.022 C 
ATOM     26  C   UNL     1      -6.311   0.445   2.543  0.00  0.00    +0.002 C 
ATOM     27  C   UNL     1      -6.748  -0.875   1.904  0.00  0.00    +0.000 C 
ATOM     28  C   UNL     1      -6.193  -0.961   0.481  0.00  0.00    +0.002 C 
ATOM     29  C   UNL     1      -4.665  -0.897   0.525  0.00  0.00    +0.022 C 
ENDBRANCH  22  24
ENDBRANCH   7  20
BRANCH  11  30
ATOM     30  C   UNL     1       3.013   4.914   2.241  0.00  0.00    +0.077 C 
ATOM     31  C   UNL     1       3.132   4.706   3.753  0.00  0.00    +0.024 C 
ATOM     32  C   UNL     1       2.677   6.058   3.200  0.00  0.00    +0.024 C 
ENDBRANCH  11  30
TORSDOF 5
