REMARK  Name = ZINC23483276
REMARK  16 active torsions:
REMARK  status: ('A' for Active; 'I' for Inactive)
REMARK    1  A    between atoms: C_1  and  C_2
REMARK    2  A    between atoms: C_3  and  C_33
REMARK    3  A    between atoms: C_4  and  C_32
REMARK    4  A    between atoms: C_7  and  C_8
REMARK    5  A    between atoms: C_8  and  C_10
REMARK    6  A    between atoms: C_10  and  C_12
REMARK    7  A    between atoms: C_10  and  S_13
REMARK    8  A    between atoms: S_13  and  C_14
REMARK    9  A    between atoms: C_17  and  C_26
REMARK   10  A    between atoms: N_18  and  C_19
REMARK   11  A    between atoms: C_26  and  C_28
REMARK   12  A    between atoms: C_26  and  N_29
REMARK   13  A    between atoms: N_29  and  C_30
REMARK   14  A    between atoms: N_29  and  C_31
REMARK   15  A    between atoms: C_33  and  O_35
REMARK   16  A    between atoms: O_35  and  C_36
REMARK                            x       y       z     vdW  Elec       q    Type
REMARK                         _______ _______ _______ _____ _____    ______ ____
ROOT
ATOM      1  C   UNL     1      -3.289   4.431  -1.081  0.00  0.00    +0.197 A 
ATOM      2  N   UNL     1      -2.627   3.579  -1.829  0.00  0.00    -0.122 NA
ATOM      3  N   UNL     1      -1.713   3.004  -1.133  0.00  0.00    -0.135 NA
ATOM      4  C   UNL     1      -1.735   3.449   0.092  0.00  0.00    +0.125 A 
ATOM      5  N   UNL     1      -2.744   4.371   0.172  0.00  0.00    -0.275 N 
ENDROOT
BRANCH   5   6
ATOM      6  C   UNL     1      -3.136   5.103   1.303  0.00  0.00    +0.050 A 
ATOM      7  C   UNL     1      -3.672   4.449   2.403  0.00  0.00    +0.029 A 
ATOM      8  C   UNL     1      -4.053   5.171   3.518  0.00  0.00    +0.040 A 
ATOM      9  C   UNL     1      -3.909   6.548   3.533  0.00  0.00    +0.124 A 
ATOM     10  C   UNL     1      -3.379   7.203   2.434  0.00  0.00    +0.040 A 
ATOM     11  C   UNL     1      -2.993   6.484   1.320  0.00  0.00    +0.029 A 
ATOM     12  F   UNL     1      -4.287   7.254   4.622  0.00  0.00    -0.205 F 
ENDBRANCH   5   6
BRANCH   4  13
ATOM     13  C   UNL     1      -0.822   3.023   1.213  0.00  0.00    -0.003 C 
ATOM     14  C   UNL     1       0.559   3.650   1.013  0.00  0.00    -0.005 C 
BRANCH  13  15
ATOM     15  N   UNL     1      -0.700   1.560   1.217  0.00  0.00    +0.382 N 
ATOM     16  C   UNL     1      -0.013   1.086   0.008  0.00  0.00    -0.096 C 
ATOM     17  C   UNL     1      -0.016   1.091   2.429  0.00  0.00    -0.096 C 
ATOM     18  H   UNL     1      -1.715   1.136   1.216  0.00  0.00    -0.082 HD
ENDBRANCH  13  15
ENDBRANCH   4  13
BRANCH   1  19
ATOM     19  S   UNL     1      -4.631   5.452  -1.593  0.00  0.00    -0.074 S 
BRANCH  19  20
ATOM     20  C   UNL     1      -4.756   4.960  -3.330  0.00  0.00    +0.124 C 
ATOM     21  C   UNL     1      -3.484   5.377  -4.071  0.00  0.00    +0.028 C 
BRANCH  20  22
ATOM     22  C   UNL     1      -5.948   5.635  -3.959  0.00  0.00    +0.192 C 
ATOM     23  O   UNL     1      -6.368   6.677  -3.498  0.00  0.00    -0.289 OA
BRANCH  22  30
ATOM     24  C   UNL     1      -8.412   6.833  -5.428  0.00  0.00    +0.047 C 
ATOM     25  C   UNL     1      -7.669   5.564  -5.755  0.00  0.00    -0.008 A 
ATOM     26  C   UNL     1      -7.957   4.668  -6.807  0.00  0.00    +0.083 A 
ATOM     27  C   UNL     1      -7.028   3.644  -6.739  0.00  0.00    +0.028 A 
ATOM     28  N   UNL     1      -6.200   3.883  -5.711  0.00  0.00    -0.355 N 
ATOM     29  H   UNL     1      -5.380   3.184  -5.491  0.00  0.00    +0.166 HD
ATOM     30  C   UNL     1      -6.577   5.055  -5.086  0.00  0.00    +0.087 A 
ATOM     31  C   UNL     1      -6.955   2.461  -7.669  0.00  0.00    +0.064 C 
BRANCH  26  32
ATOM     32  C   UNL     1      -9.044   4.798  -7.793  0.00  0.00    +0.341 C 
ATOM     33  O   UNL     1      -8.851   5.391  -8.835  0.00  0.00    -0.245 OA
BRANCH  32  34
ATOM     34  O   UNL     1     -10.252   4.258  -7.538  0.00  0.00    -0.464 OA
ATOM     35  C   UNL     1     -11.276   4.425  -8.555  0.00  0.00    +0.280 C 
ENDBRANCH  32  34
ENDBRANCH  26  32
ENDBRANCH  22  30
ENDBRANCH  20  22
ENDBRANCH  19  20
ENDBRANCH   1  19
TORSDOF 9
