REMARK  Name = ZINC35402721
REMARK  6 active torsions:
REMARK  status: ('A' for Active; 'I' for Inactive)
REMARK    1  A    between atoms: C_1  and  C_2
REMARK    2  A    between atoms: C_9  and  C_11
REMARK    3  A    between atoms: C_11  and  N_12
REMARK    4  A    between atoms: C_15  and  C_23
REMARK    5  A    between atoms: N_25  and  C_26
REMARK    6  A    between atoms: N_25  and  C_27
REMARK                            x       y       z     vdW  Elec       q    Type
REMARK                         _______ _______ _______ _____ _____    ______ ____
ROOT
ATOM      1  N   UNL     1      -0.255  -6.931  -2.427  0.00  0.00    -0.261 N 
ATOM      2  C   UNL     1      -1.559  -7.120  -2.877  0.00  0.00    +0.051 A 
ATOM      3  C   UNL     1      -2.576  -6.330  -2.365  0.00  0.00    +0.037 A 
ATOM      4  C   UNL     1      -3.890  -6.509  -2.801  0.00  0.00    +0.039 A 
ATOM      5  C   UNL     1      -4.186  -7.487  -3.756  0.00  0.00    +0.014 A 
ATOM      6  C   UNL     1      -3.176  -8.272  -4.266  0.00  0.00    +0.017 A 
ATOM      7  C   UNL     1      -1.869  -8.092  -3.835  0.00  0.00    +0.030 A 
ATOM      8  S   UNL     1      -0.570  -9.088  -4.496  0.00  0.00    -0.114 S 
ATOM      9  C   UNL     1       0.866  -7.978  -4.401  0.00  0.00    +0.170 C 
ATOM     10  C   UNL     1       0.857  -7.283  -3.067  0.00  0.00    +0.230 C 
ATOM     11  O   UNL     1       1.923  -7.032  -2.544  0.00  0.00    -0.274 OA
ENDROOT
BRANCH   4  12
ATOM     12  C   UNL     1      -4.969  -5.665  -2.253  0.00  0.00    +0.246 C 
ATOM     13  O   UNL     1      -4.896  -5.250  -1.113  0.00  0.00    -0.270 OA
ATOM     14  N   UNL     1      -6.035  -5.354  -3.017  0.00  0.00    -0.304 N 
ATOM     15  C   UNL     1      -7.160  -4.615  -2.439  0.00  0.00    +0.132 C 
ATOM     16  C   UNL     1      -6.069  -5.755  -4.426  0.00  0.00    +0.132 C 
ENDBRANCH   4  12
BRANCH   1  17
ATOM     17  C   UNL     1      -0.091  -6.277  -1.126  0.00  0.00    +0.209 C 
BRANCH  17  26
ATOM     18  C   UNL     1       0.054   1.594  -1.034  0.00  0.00    +0.045 C 
ATOM     19  C   UNL     1       0.081   0.107  -0.788  0.00  0.00    -0.032 A 
ATOM     20  C   UNL     1       0.153  -0.388   0.507  0.00  0.00    +0.008 A 
ATOM     21  C   UNL     1       0.176  -1.760   0.688  0.00  0.00    +0.044 A 
ATOM     22  C   UNL     1       0.127  -2.590  -0.426  0.00  0.00    +0.125 A 
ATOM     23  N   UNL     1       0.059  -2.079  -1.645  0.00  0.00    -0.240 NA
ATOM     24  C   UNL     1       0.030  -0.776  -1.848  0.00  0.00    +0.116 A 
ATOM     25  N   UNL     1       0.150  -3.974  -0.257  0.00  0.00    -0.269 N 
ATOM     26  C   UNL     1      -0.004  -4.785  -1.322  0.00  0.00    +0.236 C 
ATOM     27  O   UNL     1      -0.071  -4.315  -2.438  0.00  0.00    -0.274 OA
ATOM     28  H   UNL     1       0.276  -4.353   0.627  0.00  0.00    +0.156 HD
ENDBRANCH  17  26
ENDBRANCH   1  17
TORSDOF 3
