REMARK  Name = ZINC00826976
REMARK  8 active torsions:
REMARK  status: ('A' for Active; 'I' for Inactive)
REMARK    1  A    between atoms: C_1  and  C_2
REMARK    2  A    between atoms: C_3  and  C_28
REMARK    3  A    between atoms: C_4  and  C_10
REMARK    4  A    between atoms: C_13  and  C_16
REMARK    5  A    between atoms: C_18  and  C_25
REMARK    6  A    between atoms: C_19  and  C_24
REMARK    7  A    between atoms: C_25  and  C_27
REMARK    8  A    between atoms: C_28  and  C_30
REMARK                            x       y       z     vdW  Elec       q    Type
REMARK                         _______ _______ _______ _____ _____    ______ ____
ROOT
ATOM      1  C   UNL     1       0.695   2.349  -1.396  0.00  0.00    -0.023 A 
ATOM      2  C   UNL     1       0.311   1.905  -2.648  0.00  0.00    +0.006 A 
ATOM      3  C   UNL     1       0.807   2.522  -3.782  0.00  0.00    +0.006 A 
ATOM      4  C   UNL     1       1.693   3.577  -3.664  0.00  0.00    -0.023 A 
ATOM      5  C   UNL     1       2.081   4.017  -2.412  0.00  0.00    +0.006 A 
ATOM      6  C   UNL     1       1.582   3.403  -1.278  0.00  0.00    +0.006 A 
ENDROOT
BRANCH   1  10
ATOM      7  C   UNL     1       1.087  -2.024   0.383  0.00  0.00    +0.061 C 
ATOM      8  C   UNL     1       0.313  -0.755   0.134  0.00  0.00    +0.017 C 
ATOM      9  C   UNL     1       0.970   0.430   0.093  0.00  0.00    +0.036 C 
ATOM     10  C   UNL     1       0.152   1.680  -0.160  0.00  0.00    +0.140 C 
ATOM     11  N   UNL     1      -1.299   1.502  -0.341  0.00  0.00    -0.288 N 
ATOM     12  C   UNL     1      -1.806   0.255  -0.272  0.00  0.00    +0.304 C 
ATOM     13  O   UNL     1      -3.002   0.098  -0.420  0.00  0.00    -0.252 OA
ATOM     14  N   UNL     1      -1.036  -0.817  -0.045  0.00  0.00    -0.273 N 
ATOM     15  H   UNL     1      -1.875   2.263  -0.510  0.00  0.00    +0.151 HD
ATOM     16  H   UNL     1      -1.463  -1.687  -0.007  0.00  0.00    +0.156 HD
BRANCH   9  17
ATOM     17  C   UNL     1       2.361   0.497   0.278  0.00  0.00    +0.160 C 
ATOM     18  O   UNL     1       3.108  -0.004  -0.540  0.00  0.00    -0.293 OA
ATOM     19  C   UNL     1       2.928   1.189   1.490  0.00  0.00    +0.091 C 
ENDBRANCH   9  17
ENDBRANCH   1  10
BRANCH   4  20
ATOM     20  C   UNL     1       2.235   4.247  -4.900  0.00  0.00    +0.140 C 
ATOM     21  C   UNL     1       1.206   5.250  -5.378  0.00  0.00    +0.036 C 
ATOM     22  C   UNL     1       0.725   5.109  -6.637  0.00  0.00    +0.017 C 
ATOM     23  N   UNL     1       1.155   4.098  -7.443  0.00  0.00    -0.273 N 
ATOM     24  C   UNL     1       2.062   3.185  -7.072  0.00  0.00    +0.304 C 
ATOM     25  O   UNL     1       2.382   2.320  -7.863  0.00  0.00    -0.252 OA
ATOM     26  N   UNL     1       2.631   3.194  -5.851  0.00  0.00    -0.288 N 
ATOM     27  C   UNL     1      -0.301   6.084  -7.154  0.00  0.00    +0.061 C 
ATOM     28  H   UNL     1       0.783   4.036  -8.337  0.00  0.00    +0.156 HD
ATOM     29  H   UNL     1       3.286   2.522  -5.603  0.00  0.00    +0.151 HD
BRANCH  21  30
ATOM     30  C   UNL     1       0.764   6.291  -4.544  0.00  0.00    +0.160 C 
ATOM     31  O   UNL     1      -0.395   6.329  -4.180  0.00  0.00    -0.293 OA
ATOM     32  C   UNL     1       1.727   7.362  -4.101  0.00  0.00    +0.091 C 
ENDBRANCH  21  30
ENDBRANCH   4  20
TORSDOF 4
