REMARK  Name = ZINC15934918
REMARK  16 active torsions:
REMARK  status: ('A' for Active; 'I' for Inactive)
REMARK    1  A    between atoms: C_1  and  C_2
REMARK    2  A    between atoms: C_2  and  C_3
REMARK    3  A    between atoms: C_3  and  C_4
REMARK    4  A    between atoms: C_4  and  N_5
REMARK    5  A    between atoms: N_5  and  C_6
REMARK    6  A    between atoms: C_7  and  N_19
REMARK    7  A    between atoms: N_8  and  C_15
REMARK    8  A    between atoms: C_15  and  C_16
REMARK    9  A    between atoms: C_16  and  C_17
REMARK   10  A    between atoms: C_16  and  C_18
REMARK   11  A    between atoms: C_20  and  C_22
REMARK   12  A    between atoms: N_27  and  C_29
REMARK   13  A    between atoms: C_32  and  O_37
REMARK   14  A    between atoms: C_34  and  O_35
REMARK   15  A    between atoms: O_35  and  C_36
REMARK   16  A    between atoms: O_37  and  C_38
REMARK                            x       y       z     vdW  Elec       q    Type
REMARK                         _______ _______ _______ _____ _____    ______ ____
ROOT
ATOM      1  N   UNL     1       1.470  -2.224  -2.686  0.00  0.00    -0.264 N 
ATOM      2  C   UNL     1       0.698  -2.886  -3.572  0.00  0.00    +0.225 C 
ATOM      3  O   UNL     1       1.202  -3.668  -4.351  0.00  0.00    -0.275 OA
ENDROOT
BRANCH   1   4
ATOM      4  C   UNL     1       2.874  -2.353  -2.739  0.00  0.00    +0.140 A 
ATOM      5  C   UNL     1       3.559  -2.988  -1.723  0.00  0.00    +0.127 A 
ATOM      6  N   UNL     1       4.928  -3.099  -1.803  0.00  0.00    -0.280 N 
ATOM      7  C   UNL     1       5.591  -2.594  -2.859  0.00  0.00    +0.331 A 
ATOM      8  O   UNL     1       6.801  -2.702  -2.911  0.00  0.00    -0.246 OA
ATOM      9  N   UNL     1       4.940  -1.972  -3.858  0.00  0.00    -0.273 N 
ATOM     10  H   UNL     1       5.442  -1.617  -4.609  0.00  0.00    +0.173 HD
ATOM     11  C   UNL     1       3.599  -1.842  -3.832  0.00  0.00    +0.277 A 
ATOM     12  O   UNL     1       3.019  -1.281  -4.745  0.00  0.00    -0.266 OA
BRANCH   5  13
ATOM     13  N   UNL     1       2.882  -3.503  -0.644  0.00  0.00    -0.343 N 
ATOM     14  H   UNL     1       1.927  -3.357  -0.556  0.00  0.00    +0.144 HD
ATOM     15  H   UNL     1       3.358  -4.013   0.030  0.00  0.00    +0.144 HD
ENDBRANCH   5  13
BRANCH   6  16
ATOM     16  C   UNL     1       5.668  -3.771  -0.732  0.00  0.00    +0.131 C 
BRANCH  16  17
ATOM     17  C   UNL     1       5.783  -5.263  -1.049  0.00  0.00    +0.003 C 
ATOM     18  C   UNL     1       6.632  -5.452  -2.308  0.00  0.00    +0.009 C 
ATOM     19  C   UNL     1       6.445  -5.985   0.126  0.00  0.00    +0.009 C 
ENDBRANCH  16  17
ENDBRANCH   6  16
ENDBRANCH   1   4
BRANCH   2  20
ATOM     20  C   UNL     1      -0.791  -2.654  -3.595  0.00  0.00    +0.102 C 
ATOM     21  C   UNL     1      -1.485  -3.396  -2.429  0.00  0.00    +0.110 C 
ATOM     22  C   UNL     1      -2.791  -3.878  -3.020  0.00  0.00    +0.221 C 
ATOM     23  O   UNL     1      -3.747  -4.257  -2.376  0.00  0.00    -0.275 OA
ATOM     24  N   UNL     1      -2.739  -3.825  -4.362  0.00  0.00    -0.267 N 
ATOM     25  C   UNL     1      -1.437  -3.328  -4.826  0.00  0.00    +0.127 C 
BRANCH  24  26
ATOM     26  C   UNL     1      -3.792  -4.196  -5.211  0.00  0.00    +0.078 A 
ATOM     27  C   UNL     1      -4.729  -3.253  -5.607  0.00  0.00    +0.031 A 
ATOM     28  C   UNL     1      -5.767  -3.618  -6.443  0.00  0.00    +0.047 A 
ATOM     29  C   UNL     1      -5.875  -4.928  -6.888  0.00  0.00    +0.124 A 
ATOM     30  C   UNL     1      -4.941  -5.874  -6.493  0.00  0.00    +0.093 A 
ATOM     31  C   UNL     1      -3.896  -5.510  -5.660  0.00  0.00    +0.145 A 
BRANCH  31  32
ATOM     32  O   UNL     1      -2.976  -6.435  -5.278  0.00  0.00    -0.493 OA
ATOM     33  C   UNL     1      -3.145  -7.763  -5.777  0.00  0.00    +0.277 C 
ENDBRANCH  31  32
BRANCH  29  34
ATOM     34  O   UNL     1      -6.897  -5.284  -7.710  0.00  0.00    -0.495 OA
ATOM     35  C   UNL     1      -7.823  -4.258  -8.076  0.00  0.00    +0.277 C 
ENDBRANCH  29  34
ENDBRANCH  24  26
ENDBRANCH   2  20
BRANCH   1  36
ATOM     36  C   UNL     1       0.851  -1.370  -1.669  0.00  0.00    +0.114 C 
BRANCH  36  37
ATOM     37  C   UNL     1       0.824   0.077  -2.166  0.00  0.00    +0.019 C 
BRANCH  37  39
ATOM     38  C   UNL     1       0.150   2.416  -1.601  0.00  0.00    +0.004 C 
ATOM     39  C   UNL     1       0.177   0.969  -1.104  0.00  0.00    -0.002 C 
ENDBRANCH  37  39
ENDBRANCH  36  37
ENDBRANCH   1  36
TORSDOF 11
