REMARK  Name = ZINC09546790
REMARK  8 active torsions:
REMARK  status: ('A' for Active; 'I' for Inactive)
REMARK    1  A    between atoms: C_1  and  C_2
REMARK    2  A    between atoms: C_3  and  C_13
REMARK    3  A    between atoms: C_4  and  C_7
REMARK    4  A    between atoms: C_16  and  C_18
REMARK    5  A    between atoms: C_18  and  S_19
REMARK    6  A    between atoms: S_19  and  C_20
REMARK    7  A    between atoms: N_25  and  C_26
REMARK    8  A    between atoms: C_26  and  C_27
REMARK                            x       y       z     vdW  Elec       q    Type
REMARK                         _______ _______ _______ _____ _____    ______ ____
ROOT
ATOM      1  C   UNL     1       6.941 -10.218   5.390  0.00  0.00    +0.254 A 
ATOM      2  N   UNL     1       7.099  -9.410   6.413  0.00  0.00    -0.107 NA
ATOM      3  N   UNL     1       6.470  -8.311   6.188  0.00  0.00    -0.111 NA
ATOM      4  C   UNL     1       5.891  -8.371   5.022  0.00  0.00    +0.228 A 
ATOM      5  O   UNL     1       6.167  -9.576   4.491  0.00  0.00    -0.419 OA
ENDROOT
BRANCH   1   8
ATOM      6  C   UNL     1       6.583 -12.230   2.940  0.00  0.00    +0.090 C 
ATOM      7  C   UNL     1       7.361 -12.456   4.211  0.00  0.00    +0.147 A 
ATOM      8  C   UNL     1       7.502 -11.577   5.251  0.00  0.00    +0.108 A 
ATOM      9  C   UNL     1       8.347 -12.325   6.203  0.00  0.00    +0.126 A 
ATOM     10  N   UNL     1       8.581 -13.476   5.624  0.00  0.00    -0.077 NA
ATOM     11  O   UNL     1       8.052 -13.553   4.542  0.00  0.00    -0.359 OA
BRANCH   9  12
ATOM     12  C   UNL     1       8.828 -11.871   7.531  0.00  0.00    +0.004 A 
ATOM     13  C   UNL     1       9.160 -10.533   7.735  0.00  0.00    +0.010 A 
ATOM     14  C   UNL     1       9.600 -10.115   8.974  0.00  0.00    +0.001 A 
ATOM     15  C   UNL     1       9.725 -11.023  10.009  0.00  0.00    +0.000 A 
ATOM     16  C   UNL     1       9.402 -12.354   9.811  0.00  0.00    +0.001 A 
ATOM     17  C   UNL     1       8.955 -12.782   8.578  0.00  0.00    +0.010 A 
ENDBRANCH   9  12
ENDBRANCH   1   8
BRANCH   4  18
ATOM     18  C   UNL     1       5.056  -7.290   4.386  0.00  0.00    +0.174 C 
BRANCH  18  19
ATOM     19  S   UNL     1       6.122  -6.204   3.400  0.00  0.00    -0.087 S 
BRANCH  19  20
ATOM     20  C   UNL     1       5.013  -5.009   2.732  0.00  0.00    +0.160 A 
ATOM     21  N   UNL     1       3.708  -4.899   2.890  0.00  0.00    -0.133 NA
ATOM     22  N   UNL     1       3.027  -3.877   2.270  0.00  0.00    -0.125 NA
ATOM     23  C   UNL     1       3.682  -3.012   1.521  0.00  0.00    +0.182 A 
ATOM     24  S   UNL     1       5.354  -3.626   1.653  0.00  0.00    -0.025 S 
ATOM     25  N   UNL     1       3.199  -1.918   0.812  0.00  0.00    -0.320 N 
ATOM     26  H   UNL     1       3.808  -1.366   0.298  0.00  0.00    +0.148 HD
BRANCH  25  27
ATOM     27  C   UNL     1       1.769  -1.600   0.841  0.00  0.00    +0.135 C 
BRANCH  27  28
ATOM     28  C   UNL     1       1.506  -0.359  -0.014  0.00  0.00    +0.135 C 
ATOM     29  C   UNL     1       0.002  -0.004   0.002  0.00  0.00    +0.035 C 
ATOM     30  C   UNL     1      -0.019   1.541   0.011  0.00  0.00    +0.031 C 
ATOM     31  C   UNL     1       1.474   1.937  -0.002  0.00  0.00    +0.160 C 
ATOM     32  O   UNL     1       2.163   0.795   0.553  0.00  0.00    -0.375 OA
ENDBRANCH  27  28
ENDBRANCH  25  27
ENDBRANCH  19  20
ENDBRANCH  18  19
ENDBRANCH   4  18
TORSDOF 7
