REMARK  Name = ZINC20994942
REMARK  7 active torsions:
REMARK  status: ('A' for Active; 'I' for Inactive)
REMARK    1  A    between atoms: C_1  and  O_2
REMARK    2  A    between atoms: O_2  and  C_3
REMARK    3  A    between atoms: C_3  and  C_5
REMARK    4  A    between atoms: C_5  and  C_6
REMARK    5  A    between atoms: C_6  and  C_7
REMARK    6  A    between atoms: N_10  and  C_20
REMARK    7  A    between atoms: C_13  and  N_15
REMARK                            x       y       z     vdW  Elec       q    Type
REMARK                         _______ _______ _______ _____ _____    ______ ____
ROOT
ATOM      1  C   UNL     1      -0.013   0.011  -0.146  0.00  0.00    -0.010 C 
ATOM      2  C   UNL     1      -0.017   1.541  -0.141  0.00  0.00    -0.073 C 
ATOM      3  N   UNL     1       1.359   2.036   0.000  0.00  0.00    +0.382 N 
ATOM      4  C   UNL     1       2.195   1.608  -1.128  0.00  0.00    -0.077 C 
ATOM      5  C   UNL     1       2.266   0.080  -1.162  0.00  0.00    +0.000 C 
ATOM      6  C   UNL     1       0.851  -0.489  -1.307  0.00  0.00    +0.056 C 
ATOM      7  H   UNL     1       1.780   1.596   0.916  0.00  0.00    -0.081 HD
ENDROOT
BRANCH   3   8
ATOM      8  C   UNL     1       1.380   3.497   0.147  0.00  0.00    -0.062 C 
ATOM      9  C   UNL     1       2.829   3.977   0.257  0.00  0.00    -0.024 C 
ATOM     10  C   UNL     1       3.489   3.332   1.477  0.00  0.00    +0.005 C 
ATOM     11  C   UNL     1       2.723   3.729   2.741  0.00  0.00    -0.010 C 
ATOM     12  C   UNL     1       2.745   5.251   2.894  0.00  0.00    +0.007 C 
ATOM     13  C   UNL     1       2.086   5.896   1.674  0.00  0.00    -0.010 C 
ATOM     14  C   UNL     1       2.852   5.499   0.410  0.00  0.00    +0.005 C 
ATOM     15  C   UNL     1       0.637   5.416   1.564  0.00  0.00    +0.005 C 
ATOM     16  C   UNL     1       0.614   3.894   1.411  0.00  0.00    -0.024 C 
ATOM     17  C   UNL     1       1.274   3.249   2.631  0.00  0.00    +0.005 C 
ENDBRANCH   3   8
BRANCH   6  18
ATOM     18  N   UNL     1       0.905  -1.956  -1.283  0.00  0.00    -0.299 NA
ATOM     19  C   UNL     1      -0.458  -2.541  -1.357  0.00  0.00    +0.085 C 
ATOM     20  C   UNL     1      -0.198  -3.988  -1.844  0.00  0.00    +0.017 C 
ATOM     21  C   UNL     1       0.964  -3.811  -2.848  0.00  0.00    +0.017 C 
ATOM     22  C   UNL     1       1.633  -2.480  -2.459  0.00  0.00    +0.085 C 
ENDBRANCH   6  18
BRANCH   1  23
ATOM     23  C   UNL     1       0.562  -0.502   1.176  0.00  0.00    +0.014 C 
BRANCH  23  24
ATOM     24  C   UNL     1      -0.366  -0.104   2.325  0.00  0.00    +0.121 C 
BRANCH  24  25
ATOM     25  C   UNL     1       0.200  -0.609   3.627  0.00  0.00    +0.307 C 
ATOM     26  O   UNL     1       1.240  -1.225   3.635  0.00  0.00    -0.251 OA
BRANCH  25  28
ATOM     27  C   UNL     1       0.153  -0.891   5.993  0.00  0.00    +0.280 C 
ATOM     28  O   UNL     1      -0.451  -0.375   4.777  0.00  0.00    -0.468 OA
ENDBRANCH  25  28
ENDBRANCH  24  25
ENDBRANCH  23  24
ENDBRANCH   1  23
TORSDOF 6
