REMARK  Name = ZINC07571505
REMARK  10 active torsions:
REMARK  status: ('A' for Active; 'I' for Inactive)
REMARK    1  A    between atoms: C_1  and  C_2
REMARK    2  A    between atoms: C_2  and  O_3
REMARK    3  A    between atoms: O_3  and  C_4
REMARK    4  A    between atoms: N_10  and  C_28
REMARK    5  A    between atoms: N_12  and  C_13
REMARK    6  A    between atoms: C_13  and  C_15
REMARK    7  A    between atoms: C_18  and  S_21
REMARK    8  A    between atoms: S_21  and  C_24
REMARK    9  A    between atoms: C_24  and  C_25
REMARK   10  A    between atoms: C_24  and  C_26
REMARK                            x       y       z     vdW  Elec       q    Type
REMARK                         _______ _______ _______ _____ _____    ______ ____
ROOT
ATOM      1  C   UNL     1      -6.861   4.564   9.016  0.00  0.00    +0.145 A 
ATOM      2  C   UNL     1      -6.986   4.899  10.348  0.00  0.00    +0.048 A 
ATOM      3  C   UNL     1      -5.876   5.003  11.169  0.00  0.00    +0.005 A 
ATOM      4  C   UNL     1      -4.619   4.767  10.640  0.00  0.00    +0.017 A 
ATOM      5  C   UNL     1      -4.491   4.434   9.311  0.00  0.00    +0.042 A 
ATOM      6  C   UNL     1      -5.593   4.321   8.454  0.00  0.00    +0.099 A 
ATOM      7  N   UNL     1      -5.284   3.983   7.147  0.00  0.00    -0.321 N 
ATOM      8  C   UNL     1      -3.989   3.780   6.785  0.00  0.00    +0.167 A 
ATOM      9  N   UNL     1      -3.509   3.451   5.590  0.00  0.00    -0.152 NA
ATOM     10  S   UNL     1      -3.113   4.062   8.255  0.00  0.00    -0.052 S 
ATOM     11  C   UNL     1      -6.352   3.841   6.155  0.00  0.00    +0.151 C 
ENDROOT
BRANCH   9  12
ATOM     12  C   UNL     1      -2.193   3.298   5.418  0.00  0.00    +0.269 C 
ATOM     13  O   UNL     1      -1.432   3.460   6.356  0.00  0.00    -0.268 OA
BRANCH  12  14
ATOM     14  C   UNL     1      -1.658   2.930   4.086  0.00  0.00    +0.039 A 
ATOM     15  C   UNL     1      -0.285   2.770   3.903  0.00  0.00    +0.015 A 
ATOM     16  C   UNL     1       0.207   2.428   2.660  0.00  0.00    +0.028 A 
ATOM     17  C   UNL     1      -0.659   2.245   1.596  0.00  0.00    +0.088 A 
ATOM     18  C   UNL     1      -2.021   2.409   1.771  0.00  0.00    +0.028 A 
ATOM     19  C   UNL     1      -2.526   2.745   3.010  0.00  0.00    +0.015 A 
BRANCH  17  20
ATOM     20  S   UNL     1      -0.022   1.810   0.012  0.00  0.00    -0.001 S 
ATOM     21  O   UNL     1       1.305   2.317   0.002  0.00  0.00    -0.169 OA
ATOM     22  O   UNL     1      -0.989   2.291  -0.912  0.00  0.00    -0.169 OA
BRANCH  20  23
ATOM     23  C   UNL     1       0.002  -0.004   0.002  0.00  0.00    +0.130 C 
ATOM     24  C   UNL     1      -1.418  -0.534   0.207  0.00  0.00    +0.032 C 
ATOM     25  C   UNL     1       0.543  -0.499  -1.341  0.00  0.00    +0.032 C 
ENDBRANCH  20  23
ENDBRANCH  17  20
ENDBRANCH  12  14
ENDBRANCH   9  12
BRANCH   1  26
ATOM     26  O   UNL     1      -7.971   4.471   8.238  0.00  0.00    -0.490 OA
BRANCH  26  28
ATOM     27  C   UNL     1     -10.353   4.578   7.841  0.00  0.00    +0.048 C 
ATOM     28  C   UNL     1      -9.228   4.731   8.867  0.00  0.00    +0.226 C 
ENDBRANCH  26  28
ENDBRANCH   1  26
TORSDOF 6
