REMARK  Name = ZINC12055168
REMARK  5 active torsions:
REMARK  status: ('A' for Active; 'I' for Inactive)
REMARK    1  A    between atoms: C_8  and  C_10
REMARK    2  A    between atoms: C_10  and  N_11
REMARK    3  A    between atoms: C_22  and  N_51
REMARK    4  A    between atoms: C_26  and  C_27
REMARK    5  A    between atoms: C_26  and  N_51
REMARK                            x       y       z     vdW  Elec       q    Type
REMARK                         _______ _______ _______ _____ _____    ______ ____
ROOT
ATOM      1  N   UNL     1      -4.307  -0.429   1.424  0.00  0.00    -0.294 N 
ATOM      2  C   UNL     1      -4.182  -1.632   2.041  0.00  0.00    +0.203 A 
ATOM      3  N   UNL     1      -4.570  -1.801   3.277  0.00  0.00    -0.230 NA
ATOM      4  C   UNL     1      -5.111  -0.800   3.966  0.00  0.00    +0.116 A 
ATOM      5  C   UNL     1      -5.286   0.477   3.411  0.00  0.00    +0.076 A 
ATOM      6  C   UNL     1      -4.845   0.631   2.056  0.00  0.00    +0.263 A 
ATOM      7  O   UNL     1      -4.954   1.702   1.486  0.00  0.00    -0.267 OA
ATOM      8  C   UNL     1      -5.894   1.478   4.287  0.00  0.00    -0.023 A 
ATOM      9  C   UNL     1      -6.226   1.080   5.534  0.00  0.00    -0.006 A 
ATOM     10  S   UNL     1      -5.753  -0.627   5.612  0.00  0.00    -0.073 S 
ATOM     11  C   UNL     1      -6.856   1.907   6.612  0.00  0.00    +0.027 C 
ATOM     12  C   UNL     1      -7.417   3.187   5.976  0.00  0.00    -0.067 C 
ATOM     13  C   UNL     1      -6.345   3.794   5.066  0.00  0.00    -0.011 C 
ATOM     14  C   UNL     1      -6.151   2.912   3.832  0.00  0.00    +0.035 C 
ENDROOT
BRANCH  12  15
ATOM     15  N   UNL     1      -7.766   4.154   7.034  0.00  0.00    +0.381 N 
ATOM     16  H   UNL     1      -7.731   5.105   6.649  0.00  0.00    -0.086 HD
ATOM     17  H   UNL     1      -7.093   4.071   7.804  0.00  0.00    -0.086 HD
BRANCH  15  18
ATOM     18  C   UNL     1      -9.124   3.886   7.544  0.00  0.00    -0.079 C 
BRANCH  18  19
ATOM     19  C   UNL     1      -9.459   4.902   8.638  0.00  0.00    -0.028 C 
ATOM     20  C   UNL     1      -9.692   4.367  10.052  0.00  0.00    +0.002 C 
ATOM     21  C   UNL     1     -10.873   4.873   9.221  0.00  0.00    +0.002 C 
ENDBRANCH  18  19
ENDBRANCH  15  18
ENDBRANCH  12  15
BRANCH   1  22
ATOM     22  C   UNL     1      -3.852  -0.283   0.039  0.00  0.00    +0.168 C 
BRANCH  22  30
ATOM     23  C   UNL     1       2.410   0.128  -0.020  0.00  0.00    +0.001 A 
ATOM     24  C   UNL     1       2.364   1.516  -0.012  0.00  0.00    +0.001 A 
ATOM     25  C   UNL     1       1.141   2.156   0.003  0.00  0.00    +0.015 A 
ATOM     26  C   UNL     1      -0.017   1.407   0.010  0.00  0.00    +0.020 A 
ATOM     27  C   UNL     1       0.002  -0.004   0.002  0.00  0.00    -0.010 A 
ATOM     28  C   UNL     1       1.276  -0.621  -0.013  0.00  0.00    +0.009 A 
ATOM     29  C   UNL     1      -1.313  -0.629   0.012  0.00  0.00    +0.021 A 
ATOM     30  C   UNL     1      -2.407   0.145   0.027  0.00  0.00    +0.011 A 
ATOM     31  S   UNL     1      -1.747   1.801   0.036  0.00  0.00    -0.091 S 
ENDBRANCH  22  30
ENDBRANCH   1  22
TORSDOF 5
