REMARK  Name = ZINC36579420
REMARK  13 active torsions:
REMARK  status: ('A' for Active; 'I' for Inactive)
REMARK    1  A    between atoms: C_1  and  C_2
REMARK    2  A    between atoms: C_2  and  C_3
REMARK    3  A    between atoms: C_2  and  C_4
REMARK    4  A    between atoms: C_2  and  N_5
REMARK    5  A    between atoms: N_5  and  C_6
REMARK    6  A    between atoms: C_6  and  C_8
REMARK    7  A    between atoms: C_6  and  C_15
REMARK    8  A    between atoms: C_11  and  O_14
REMARK    9  A    between atoms: N_17  and  C_18
REMARK   10  A    between atoms: C_24  and  C_26
REMARK   11  A    between atoms: C_32  and  O_34
REMARK   12  A    between atoms: O_34  and  C_35
REMARK   13  A    between atoms: C_35  and  C_36
REMARK                            x       y       z     vdW  Elec       q    Type
REMARK                         _______ _______ _______ _____ _____    ______ ____
ROOT
ATOM      1  N   UNL     1       0.996  -0.363  -1.713  0.00  0.00    -0.279 N 
ATOM      2  C   UNL     1       1.495  -1.558  -2.085  0.00  0.00    +0.238 C 
ATOM      3  O   UNL     1       2.695  -1.721  -2.152  0.00  0.00    -0.274 OA
ENDROOT
BRANCH   2   4
ATOM      4  C   UNL     1       0.561  -2.694  -2.417  0.00  0.00    +0.165 C 
ATOM      5  C   UNL     1       0.751  -3.843  -1.405  0.00  0.00    +0.033 C 
ATOM      6  C   UNL     1       0.618  -5.111  -2.289  0.00  0.00    +0.021 C 
ATOM      7  C   UNL     1       1.279  -4.641  -3.609  0.00  0.00    +0.112 C 
ATOM      8  N   UNL     1       0.876  -3.226  -3.751  0.00  0.00    -0.256 N 
ATOM      9  C   UNL     1       0.808  -2.538  -4.907  0.00  0.00    +0.404 C 
ATOM     10  O   UNL     1       0.461  -1.373  -4.902  0.00  0.00    -0.226 OA
BRANCH   9  11
ATOM     11  O   UNL     1       1.124  -3.141  -6.069  0.00  0.00    -0.445 OA
BRANCH  11  12
ATOM     12  C   UNL     1       1.029  -2.351  -7.256  0.00  0.00    +0.269 C 
BRANCH  12  13
ATOM     13  C   UNL     1       1.417  -3.188  -8.448  0.00  0.00    -0.010 A 
ATOM     14  C   UNL     1       2.737  -3.237  -8.857  0.00  0.00    +0.007 A 
ATOM     15  C   UNL     1       3.094  -4.005  -9.950  0.00  0.00    +0.000 A 
ATOM     16  C   UNL     1       2.131  -4.723 -10.634  0.00  0.00    +0.000 A 
ATOM     17  C   UNL     1       0.811  -4.674 -10.225  0.00  0.00    +0.000 A 
ATOM     18  C   UNL     1       0.455  -3.910  -9.129  0.00  0.00    +0.007 A 
ENDBRANCH  12  13
ENDBRANCH  11  12
ENDBRANCH   9  11
ENDBRANCH   2   4
BRANCH   1  20
ATOM     19  C   UNL     1      -1.161  -0.261  -2.861  0.00  0.00    +0.031 C 
ATOM     20  C   UNL     1      -0.446  -0.202  -1.510  0.00  0.00    +0.030 C 
ATOM     21  C   UNL     1      -0.720   1.150  -0.847  0.00  0.00    +0.031 C 
ATOM     22  C   UNL     1      -0.963  -1.325  -0.610  0.00  0.00    +0.031 C 
ENDBRANCH   1  20
BRANCH   1  23
ATOM     23  C   UNL     1       1.896   0.776  -1.512  0.00  0.00    +0.193 C 
BRANCH  23  24
ATOM     24  C   UNL     1       2.688   0.573  -0.246  0.00  0.00    -0.018 A 
ATOM     25  C   UNL     1       2.750  -0.680   0.335  0.00  0.00    +0.009 A 
ATOM     26  C   UNL     1       3.475  -0.869   1.496  0.00  0.00    +0.046 A 
ATOM     27  C   UNL     1       4.141   0.200   2.078  0.00  0.00    +0.117 A 
ATOM     28  C   UNL     1       4.077   1.456   1.492  0.00  0.00    +0.046 A 
ATOM     29  C   UNL     1       3.355   1.638   0.329  0.00  0.00    +0.009 A 
BRANCH  27  30
ATOM     30  O   UNL     1       4.855   0.017   3.220  0.00  0.00    -0.507 OA
ATOM     31  H   UNL     1       5.780  -0.223   3.072  0.00  0.00    +0.292 HD
ENDBRANCH  27  30
ENDBRANCH  23  24
BRANCH  23  32
ATOM     32  C   UNL     1       2.839   0.884  -2.683  0.00  0.00    +0.238 C 
ATOM     33  O   UNL     1       2.728   0.125  -3.623  0.00  0.00    -0.273 OA
ATOM     34  N   UNL     1       3.805   1.823  -2.686  0.00  0.00    -0.311 N 
ATOM     35  H   UNL     1       3.893   2.430  -1.934  0.00  0.00    +0.149 HD
BRANCH  34  36
ATOM     36  C   UNL     1       4.721   1.928  -3.824  0.00  0.00    +0.073 C 
ATOM     37  C   UNL     1       5.880   0.947  -3.637  0.00  0.00    +0.022 C 
ATOM     38  C   UNL     1       6.838   1.056  -4.826  0.00  0.00    +0.002 C 
ATOM     39  C   UNL     1       7.385   2.482  -4.910  0.00  0.00    +0.000 C 
ATOM     40  C   UNL     1       6.226   3.464  -5.096  0.00  0.00    +0.002 C 
ATOM     41  C   UNL     1       5.269   3.354  -3.908  0.00  0.00    +0.022 C 
ENDBRANCH  34  36
ENDBRANCH  23  32
ENDBRANCH   1  23
TORSDOF 10
