REMARK  Name = ZINC63679568
REMARK  11 active torsions:
REMARK  status: ('A' for Active; 'I' for Inactive)
REMARK    1  A    between atoms: C_1  and  C_2
REMARK    2  A    between atoms: C_2  and  N_3
REMARK    3  A    between atoms: N_3  and  C_4
REMARK    4  A    between atoms: C_4  and  C_5
REMARK    5  A    between atoms: C_6  and  C_8
REMARK    6  A    between atoms: C_8  and  N_9
REMARK    7  A    between atoms: C_11  and  C_19
REMARK    8  A    between atoms: C_19  and  C_21
REMARK    9  A    between atoms: N_23  and  C_24
REMARK   10  A    between atoms: C_24  and  C_25
REMARK   11  A    between atoms: C_25  and  C_26
REMARK                            x       y       z     vdW  Elec       q    Type
REMARK                         _______ _______ _______ _____ _____    ______ ____
ROOT
ATOM      1  C   UNL     1       7.555   0.066  -0.332  0.00  0.00    +0.226 C 
ATOM      2  O   UNL     1       7.187   0.715  -1.282  0.00  0.00    -0.286 OA
ENDROOT
BRANCH   1   5
ATOM      3  N   UNL     1       4.220  -0.727   0.073  0.00  0.00    -0.320 N 
ATOM      4  C   UNL     1       5.221   0.234   0.548  0.00  0.00    +0.122 C 
ATOM      5  C   UNL     1       6.542  -0.552   0.596  0.00  0.00    +0.114 C 
ATOM      6  C   UNL     1       6.174  -1.942   0.130  0.00  0.00    -0.014 A 
ATOM      7  C   UNL     1       4.816  -1.969  -0.148  0.00  0.00    +0.034 A 
ATOM      8  C   UNL     1       4.239  -3.160  -0.594  0.00  0.00    +0.023 A 
ATOM      9  C   UNL     1       5.011  -4.291  -0.749  0.00  0.00    +0.002 A 
ATOM     10  C   UNL     1       6.364  -4.255  -0.465  0.00  0.00    +0.000 A 
ATOM     11  C   UNL     1       6.945  -3.077  -0.032  0.00  0.00    +0.006 A 
BRANCH   3  12
ATOM     12  C   UNL     1       2.801  -0.427  -0.132  0.00  0.00    +0.201 C 
BRANCH  12  14
ATOM     13  N   UNL     1       0.711  -0.489   1.189  0.00  0.00    -0.301 N 
ATOM     14  C   UNL     1       2.042  -0.696   1.142  0.00  0.00    +0.233 C 
ATOM     15  O   UNL     1       2.628  -1.097   2.124  0.00  0.00    -0.274 OA
BRANCH  13  17
ATOM     16  C   UNL     1      -0.019   1.526   0.010  0.00  0.00    +0.024 C 
ATOM     17  C   UNL     1       0.002  -0.004   0.002  0.00  0.00    +0.104 C 
ENDBRANCH  13  17
BRANCH  13  18
ATOM     18  C   UNL     1      -0.028  -0.750   2.427  0.00  0.00    +0.104 C 
ATOM     19  C   UNL     1      -0.511  -2.202   2.437  0.00  0.00    +0.024 C 
ENDBRANCH  13  18
ENDBRANCH  12  14
ENDBRANCH   3  12
ENDBRANCH   1   5
BRANCH   1  20
ATOM     20  C   UNL     1       9.012  -0.124  -0.079  0.00  0.00    +0.280 C 
ATOM     21  O   UNL     1       9.382  -0.776   0.876  0.00  0.00    -0.267 OA
ATOM     22  N   UNL     1       9.918   0.428  -0.909  0.00  0.00    -0.309 N 
ATOM     23  H   UNL     1       9.623   0.950  -1.672  0.00  0.00    +0.149 HD
BRANCH  22  24
ATOM     24  C   UNL     1      11.350   0.241  -0.660  0.00  0.00    +0.109 C 
BRANCH  24  25
ATOM     25  C   UNL     1      12.155   0.966  -1.741  0.00  0.00    +0.052 C 
BRANCH  25  26
ATOM     26  C   UNL     1      13.627   0.773  -1.485  0.00  0.00    -0.040 C 
ATOM     27  C   UNL     1      14.432  -0.166  -2.031  0.00  0.00    -0.001 A 
ATOM     28  C   UNL     1      14.186  -1.250  -2.991  0.00  0.00    +0.010 A 
ATOM     29  C   UNL     1      15.215  -2.047  -3.357  0.00  0.00    +0.001 A 
ATOM     30  C   UNL     1      16.507  -1.866  -2.844  0.00  0.00    +0.002 A 
ATOM     31  C   UNL     1      16.810  -0.893  -1.959  0.00  0.00    +0.026 A 
ATOM     32  C   UNL     1      15.805   0.004  -1.505  0.00  0.00    +0.043 A 
ATOM     33  N   UNL     1      15.847   1.010  -0.665  0.00  0.00    -0.380 N 
ATOM     34  C   UNL     1      14.506   1.596  -0.569  0.00  0.00    +0.144 C 
ATOM     35  H   UNL     1      16.635   1.318  -0.190  0.00  0.00    +0.160 HD
ENDBRANCH  25  26
ENDBRANCH  24  25
ENDBRANCH  22  24
ENDBRANCH   1  20
TORSDOF 9
