REMARK  Name = ZINC42866693
REMARK  12 active torsions:
REMARK  status: ('A' for Active; 'I' for Inactive)
REMARK    1  A    between atoms: C_1  and  C_2
REMARK    2  A    between atoms: C_2  and  C_3
REMARK    3  A    between atoms: C_3  and  C_5
REMARK    4  A    between atoms: C_3  and  N_6
REMARK    5  A    between atoms: C_7  and  C_9
REMARK    6  A    between atoms: C_9  and  C_11
REMARK    7  A    between atoms: C_9  and  S_14
REMARK    8  A    between atoms: C_11  and  C_12
REMARK    9  A    between atoms: C_11  and  C_13
REMARK   10  A    between atoms: S_14  and  C_15
REMARK   11  A    between atoms: C_18  and  C_21
REMARK   12  A    between atoms: N_19  and  N_20
REMARK                            x       y       z     vdW  Elec       q    Type
REMARK                         _______ _______ _______ _____ _____    ______ ____
ROOT
ATOM      1  S   UNL     1       0.883   1.097  -6.108  0.00  0.00    -0.071 S 
ENDROOT
BRANCH   1   2
ATOM      2  C   UNL     1      -0.197   1.641  -7.389  0.00  0.00    +0.209 A 
ATOM      3  N   UNL     1      -1.508   1.563  -7.388  0.00  0.00    -0.121 NA
ATOM      4  N   UNL     1      -1.982   2.052  -8.477  0.00  0.00    -0.126 NA
ATOM      5  C   UNL     1      -1.001   2.474  -9.244  0.00  0.00    +0.188 A 
ATOM      6  N   UNL     1       0.173   2.229  -8.567  0.00  0.00    -0.223 N 
BRANCH   5   7
ATOM      7  C   UNL     1      -1.133   3.097 -10.571  0.00  0.00    +0.058 A 
ATOM      8  C   UNL     1      -2.247   3.628 -11.171  0.00  0.00    +0.019 A 
ATOM      9  C   UNL     1      -2.126   4.162 -12.434  0.00  0.00    +0.008 A 
ATOM     10  C   UNL     1      -0.913   4.149 -13.046  0.00  0.00    +0.046 A 
ATOM     11  S   UNL     1       0.118   3.365 -11.817  0.00  0.00    -0.093 S 
ENDBRANCH   5   7
BRANCH   6  12
ATOM     12  N   UNL     1       1.442   2.512  -8.986  0.00  0.00    -0.295 N 
ATOM     13  H   UNL     1       1.833   1.739  -9.503  0.00  0.00    +0.163 HD
ATOM     14  H   UNL     1       1.462   3.360  -9.532  0.00  0.00    +0.163 HD
ENDBRANCH   6  12
ENDBRANCH   1   2
BRANCH   1  15
ATOM     15  C   UNL     1      -0.234   0.422  -4.849  0.00  0.00    +0.143 C 
BRANCH  15  17
ATOM     16  N   UNL     1      -0.055  -0.114  -2.441  0.00  0.00    -0.312 N 
ATOM     17  C   UNL     1       0.561   0.028  -3.631  0.00  0.00    +0.227 C 
ATOM     18  O   UNL     1       1.755  -0.162  -3.722  0.00  0.00    -0.275 OA
ATOM     19  H   UNL     1      -1.010   0.038  -2.368  0.00  0.00    +0.149 HD
BRANCH  16  20
ATOM     20  C   UNL     1       0.718  -0.497  -1.257  0.00  0.00    +0.070 C 
ATOM     21  C   UNL     1       0.849  -2.021  -1.205  0.00  0.00    +0.028 C 
BRANCH  20  23
ATOM     22  C   UNL     1      -0.019   1.526   0.010  0.00  0.00    +0.005 C 
ATOM     23  C   UNL     1       0.002  -0.004   0.002  0.00  0.00    +0.018 C 
ENDBRANCH  20  23
ENDBRANCH  16  20
ENDBRANCH  15  17
BRANCH  15  24
ATOM     24  C   UNL     1      -0.952  -0.807  -5.410  0.00  0.00    +0.005 C 
ATOM     25  C   UNL     1       0.069  -1.914  -5.680  0.00  0.00    +0.009 C 
ATOM     26  C   UNL     1      -1.984  -1.302  -4.395  0.00  0.00    +0.009 C 
ENDBRANCH  15  24
ENDBRANCH   1  15
TORSDOF 8
