REMARK  Name = ZINC07454328
REMARK  6 active torsions:
REMARK  status: ('A' for Active; 'I' for Inactive)
REMARK    1  A    between atoms: C_1  and  N_46
REMARK    2  A    between atoms: C_2  and  C_3
REMARK    3  A    between atoms: C_2  and  N_46
REMARK    4  A    between atoms: C_3  and  S_4
REMARK    5  A    between atoms: S_4  and  C_7
REMARK    6  A    between atoms: C_14  and  N_46
REMARK                            x       y       z     vdW  Elec       q    Type
REMARK                         _______ _______ _______ _____ _____    ______ ____
ROOT
ATOM      1  C   UNL     1       4.167   1.046   0.392  0.00  0.00    -0.095 C 
ATOM      2  N   UNL     1       3.505   2.020   1.285  0.00  0.00    +0.383 N 
ATOM      3  H   UNL     1       3.641   2.965   0.907  0.00  0.00    -0.081 HD
ENDROOT
BRANCH   2   4
ATOM      4  C   UNL     1       2.056   1.735   1.356  0.00  0.00    -0.038 C 
ATOM      5  C   UNL     1       1.811   0.405   2.066  0.00  0.00    -0.010 C 
ATOM      6  C   UNL     1       0.304   0.258   2.310  0.00  0.00    +0.003 C 
ATOM      7  C   UNL     1      -0.114   1.271   3.373  0.00  0.00    +0.035 C 
ATOM      8  C   UNL     1       0.379   2.649   3.015  0.00  0.00    -0.046 A 
ATOM      9  C   UNL     1       1.381   2.861   2.094  0.00  0.00    -0.058 A 
ATOM     10  C   UNL     1       1.794   4.157   1.814  0.00  0.00    +0.002 A 
ATOM     11  C   UNL     1       1.207   5.233   2.448  0.00  0.00    +0.000 A 
ATOM     12  C   UNL     1       0.198   5.020   3.369  0.00  0.00    +0.000 A 
ATOM     13  C   UNL     1      -0.212   3.733   3.650  0.00  0.00    +0.004 A 
ENDBRANCH   2   4
BRANCH   2  14
ATOM     14  C   UNL     1       4.099   1.952   2.636  0.00  0.00    -0.055 C 
BRANCH  14  15
ATOM     15  C   UNL     1       5.481   2.608   2.598  0.00  0.00    +0.153 C 
BRANCH  15  16
ATOM     16  S   UNL     1       6.220   2.558   4.254  0.00  0.00    -0.005 S 
ATOM     17  O   UNL     1       5.497   3.403   5.138  0.00  0.00    -0.169 OA
ATOM     18  O   UNL     1       6.520   1.217   4.615  0.00  0.00    -0.169 OA
BRANCH  16  19
ATOM     19  C   UNL     1       7.791   3.336   4.072  0.00  0.00    +0.088 A 
ATOM     20  C   UNL     1       8.904   2.580   3.753  0.00  0.00    +0.028 A 
ATOM     21  C   UNL     1      10.135   3.191   3.606  0.00  0.00    +0.017 A 
ATOM     22  C   UNL     1      10.255   4.557   3.788  0.00  0.00    +0.018 A 
ATOM     23  C   UNL     1       9.143   5.312   4.113  0.00  0.00    +0.017 A 
ATOM     24  C   UNL     1       7.911   4.701   4.255  0.00  0.00    +0.028 A 
ATOM     25 BR   UNL     1      11.941   5.392   3.594  0.00  0.00    -0.050 Br
ENDBRANCH  16  19
ENDBRANCH  15  16
ENDBRANCH  14  15
ENDBRANCH   2  14
TORSDOF 5
