REMARK  Name = ZINC02731441
REMARK  3 active torsions:
REMARK  status: ('A' for Active; 'I' for Inactive)
REMARK    1  A    between atoms: C_9  and  C_14
REMARK    2  A    between atoms: C_19  and  C_32
REMARK    3  A    between atoms: C_22  and  C_25
REMARK                            x       y       z     vdW  Elec       q    Type
REMARK                         _______ _______ _______ _____ _____    ______ ____
ROOT
ATOM      1  C   UNL     1       1.230   1.820   0.000  0.00  0.00    +0.133 A 
ATOM      2  C   UNL     1       2.084   0.697  -0.013  0.00  0.00    +0.076 A 
ATOM      3  C   UNL     1       1.307  -0.405  -0.010  0.00  0.00    +0.119 A 
ATOM      4  N   UNL     1       0.002  -0.004   0.002  0.00  0.00    -0.238 N 
ATOM      5  N   UNL     1      -0.017   1.390   0.010  0.00  0.00    -0.166 NA
ATOM      6  C   UNL     1      -1.133  -0.930   0.004  0.00  0.00    +0.215 C 
ATOM      7  C   UNL     1      -0.656  -2.302  -0.487  0.00  0.00    +0.063 C 
ATOM      8  C   UNL     1       0.603  -2.721   0.280  0.00  0.00    +0.104 C 
ATOM      9  N   UNL     1       1.677  -1.753  -0.016  0.00  0.00    -0.322 N 
ATOM     10  H   UNL     1       2.586  -2.035  -0.203  0.00  0.00    +0.148 HD
ENDROOT
BRANCH   1  19
ATOM     11  C   UNL     1      -0.339   8.640   0.048  0.00  0.00    +0.001 A 
ATOM     12  C   UNL     1       0.710   9.551   0.043  0.00  0.00    +0.002 A 
ATOM     13  C   UNL     1       2.009   9.126   0.028  0.00  0.00    +0.028 A 
ATOM     14  C   UNL     1       2.290   7.758   0.018  0.00  0.00    +0.076 A 
ATOM     15  C   UNL     1       1.220   6.835   0.024  0.00  0.00    +0.045 A 
ATOM     16  C   UNL     1      -0.095   7.295   0.039  0.00  0.00    +0.014 A 
ATOM     17  C   UNL     1       1.549   5.405   0.013  0.00  0.00    +0.167 A 
ATOM     18  N   UNL     1       0.841   4.297   0.009  0.00  0.00    -0.205 NA
ATOM     19  C   UNL     1       1.660   3.241   0.002  0.00  0.00    +0.202 A 
ATOM     20  N   UNL     1       2.910   3.659  -0.008  0.00  0.00    -0.142 NA
ATOM     21  N   UNL     1       2.875   5.060  -0.002  0.00  0.00    -0.201 N 
ATOM     22  C   UNL     1       3.836   6.025  -0.006  0.00  0.00    +0.225 A 
ATOM     23  N   UNL     1       3.564   7.295   0.003  0.00  0.00    -0.235 NA
ENDBRANCH   1  19
BRANCH   8  24
ATOM     24  C   UNL     1       1.028  -4.098  -0.161  0.00  0.00    -0.027 A 
ATOM     25  C   UNL     1       1.713  -4.263  -1.350  0.00  0.00    +0.007 A 
ATOM     26  C   UNL     1       2.108  -5.525  -1.752  0.00  0.00    +0.020 A 
ATOM     27  C   UNL     1       1.809  -6.625  -0.968  0.00  0.00    +0.041 A 
ATOM     28  C   UNL     1       1.119  -6.461   0.219  0.00  0.00    +0.020 A 
ATOM     29  C   UNL     1       0.729  -5.197   0.623  0.00  0.00    +0.007 A 
ATOM     30 CL   UNL     1       2.298  -8.212  -1.476  0.00  0.00    -0.084 Cl
ENDBRANCH   8  24
BRANCH   6  31
ATOM     31  C   UNL     1      -2.226  -0.404  -0.928  0.00  0.00    +0.412 C 
ATOM     32  F   UNL     1      -1.718  -0.294  -2.227  0.00  0.00    -0.168 F 
ATOM     33  F   UNL     1      -3.309  -1.290  -0.924  0.00  0.00    -0.168 F 
ATOM     34  F   UNL     1      -2.651   0.854  -0.486  0.00  0.00    -0.168 F 
ENDBRANCH   6  31
TORSDOF 3
