REMARK  Name = ZINC22473167
REMARK  10 active torsions:
REMARK  status: ('A' for Active; 'I' for Inactive)
REMARK    1  A    between atoms: C_4  and  C_7
REMARK    2  A    between atoms: C_7  and  N_8
REMARK    3  A    between atoms: N_8  and  C_9
REMARK    4  A    between atoms: C_9  and  C_10
REMARK    5  A    between atoms: C_10  and  C_11
REMARK    6  A    between atoms: C_11  and  N_12
REMARK    7  A    between atoms: C_15  and  O_16
REMARK    8  A    between atoms: C_24  and  C_26
REMARK    9  A    between atoms: C_26  and  O_27
REMARK   10  A    between atoms: O_27  and  C_28
REMARK                            x       y       z     vdW  Elec       q    Type
REMARK                         _______ _______ _______ _____ _____    ______ ____
ROOT
ATOM      1  N   UNL     1      -6.198   2.465   0.066  0.00  0.00    -0.294 N 
ATOM      2  C   UNL     1      -6.558   2.808   1.318  0.00  0.00    +0.253 C 
ATOM      3  O   UNL     1      -6.040   2.262   2.269  0.00  0.00    -0.272 OA
ENDROOT
BRANCH   1   4
ATOM      4  C   UNL     1      -6.740   3.199  -1.080  0.00  0.00    +0.143 C 
BRANCH   4   8
ATOM      5  C   UNL     1     -10.127   1.111  -2.636  0.00  0.00    +0.000 A 
ATOM      6  C   UNL     1     -10.306   2.154  -1.746  0.00  0.00    +0.000 A 
ATOM      7  C   UNL     1      -9.211   2.829  -1.242  0.00  0.00    +0.005 A 
ATOM      8  C   UNL     1      -7.935   2.463  -1.629  0.00  0.00    -0.030 A 
ATOM      9  C   UNL     1      -7.756   1.424  -2.523  0.00  0.00    +0.005 A 
ATOM     10  C   UNL     1      -8.851   0.745  -3.023  0.00  0.00    +0.000 A 
ENDBRANCH   4   8
ENDBRANCH   1   4
BRANCH   1  11
ATOM     11  C   UNL     1      -5.263   1.357  -0.150  0.00  0.00    +0.110 C 
BRANCH  11  12
ATOM     12  C   UNL     1      -3.830   1.893  -0.159  0.00  0.00    +0.040 C 
BRANCH  12  13
ATOM     13  C   UNL     1      -2.854   0.737  -0.385  0.00  0.00    +0.114 C 
BRANCH  13  14
ATOM     14  N   UNL     1      -1.482   1.250  -0.394  0.00  0.00    -0.384 N 
ATOM     15  C   UNL     1      -0.425   0.388  -0.582  0.00  0.00    +0.053 A 
ATOM     16  C   UNL     1      -0.633  -0.956  -0.763  0.00  0.00    +0.113 A 
ATOM     17  C   UNL     1       0.462  -1.807  -0.958  0.00  0.00    +0.286 A 
ATOM     18  O   UNL     1       1.724  -1.348  -0.973  0.00  0.00    -0.425 OA
ATOM     19  C   UNL     1       2.005  -0.038  -0.801  0.00  0.00    +0.141 A 
ATOM     20  C   UNL     1       0.962   0.880  -0.600  0.00  0.00    +0.041 A 
ATOM     21  C   UNL     1       1.248   2.234  -0.423  0.00  0.00    +0.013 A 
ATOM     22  C   UNL     1       2.558   2.663  -0.446  0.00  0.00    +0.001 A 
ATOM     23  C   UNL     1       3.587   1.755  -0.645  0.00  0.00    +0.004 A 
ATOM     24  C   UNL     1       3.318   0.414  -0.821  0.00  0.00    +0.047 A 
ATOM     25  H   UNL     1      -1.296   2.325  -0.250  0.00  0.00    +0.160 HD
BRANCH  17  26
ATOM     26  O   UNL     1       0.264  -2.999  -1.118  0.00  0.00    -0.480 OA
ATOM     27  H   UNL     1       1.112  -3.682  -1.272  0.00  0.00    +0.295 HD
ENDBRANCH  17  26
ENDBRANCH  13  14
ENDBRANCH  12  13
ENDBRANCH  11  12
ENDBRANCH   1  11
BRANCH   2  28
ATOM     28  C   UNL     1      -7.605   3.869   1.537  0.00  0.00    +0.324 C 
BRANCH  28  29
ATOM     29  O   UNL     1      -7.882   3.984   2.934  0.00  0.00    -0.483 OA
BRANCH  29  30
ATOM     30  C   UNL     1      -8.811   4.904   3.305  0.00  0.00    +0.121 A 
ATOM     31  C   UNL     1      -9.438   5.684   2.345  0.00  0.00    +0.045 A 
ATOM     32  C   UNL     1     -10.386   6.615   2.725  0.00  0.00    +0.004 A 
ATOM     33  C   UNL     1     -10.701   6.777   4.061  0.00  0.00    +0.000 A 
ATOM     34  C   UNL     1     -10.073   6.005   5.021  0.00  0.00    +0.004 A 
ATOM     35  C   UNL     1      -9.129   5.069   4.646  0.00  0.00    +0.045 A 
ENDBRANCH  29  30
ENDBRANCH  28  29
ENDBRANCH   2  28
TORSDOF 10
