REMARK  Name = ZINC65132891
REMARK  8 active torsions:
REMARK  status: ('A' for Active; 'I' for Inactive)
REMARK    1  A    between atoms: C_1  and  C_2
REMARK    2  A    between atoms: C_3  and  N_9
REMARK    3  A    between atoms: C_10  and  C_12
REMARK    4  A    between atoms: C_12  and  N_13
REMARK    5  A    between atoms: N_24  and  C_25
REMARK    6  A    between atoms: C_25  and  C_26
REMARK    7  A    between atoms: C_26  and  C_27
REMARK    8  A    between atoms: C_26  and  C_28
REMARK                            x       y       z     vdW  Elec       q    Type
REMARK                         _______ _______ _______ _____ _____    ______ ____
ROOT
ATOM      1  N   UNL     1       0.544  -0.798  -6.455  0.00  0.00    -0.219 N 
ATOM      2  C   UNL     1      -0.649  -1.237  -6.898  0.00  0.00    +0.290 A 
ATOM      3  O   UNL     1      -1.683  -0.769  -6.447  0.00  0.00    -0.264 OA
ATOM      4  C   UNL     1      -0.698  -2.241  -7.888  0.00  0.00    +0.118 A 
ATOM      5  C   UNL     1       0.501  -2.746  -8.369  0.00  0.00    +0.055 A 
ATOM      6  C   UNL     1       1.723  -2.254  -7.879  0.00  0.00    +0.149 A 
ATOM      7  N   UNL     1       1.736  -1.319  -6.968  0.00  0.00    -0.175 NA
ATOM      8  S   UNL     1       0.471  -4.012  -9.598  0.00  0.00    -0.112 S 
ATOM      9  C   UNL     1      -1.085  -4.880  -9.231  0.00  0.00    +0.170 C 
ATOM     10  C   UNL     1      -2.156  -3.860  -8.958  0.00  0.00    +0.230 C 
ATOM     11  O   UNL     1      -3.291  -4.112  -9.306  0.00  0.00    -0.274 OA
ATOM     12  N   UNL     1      -1.926  -2.695  -8.356  0.00  0.00    -0.265 N 
ENDROOT
BRANCH   1  13
ATOM     13  C   UNL     1       0.594   0.245  -5.427  0.00  0.00    +0.243 C 
BRANCH  13  15
ATOM     14  N   UNL     1       0.655   0.373  -2.958  0.00  0.00    -0.284 N 
ATOM     15  C   UNL     1       0.610  -0.396  -4.063  0.00  0.00    +0.239 C 
ATOM     16  O   UNL     1       0.583  -1.604  -3.960  0.00  0.00    -0.273 OA
ATOM     17  H   UNL     1       0.596   1.339  -3.036  0.00  0.00    +0.155 HD
BRANCH  14  20
ATOM     18  C   UNL     1      -0.284   1.813  -0.690  0.00  0.00    +0.047 C 
ATOM     19  C   UNL     1       0.342   0.448  -0.564  0.00  0.00    -0.011 A 
ATOM     20  C   UNL     1       0.788  -0.220  -1.697  0.00  0.00    +0.038 A 
ATOM     21  C   UNL     1       1.364  -1.477  -1.577  0.00  0.00    +0.023 A 
ATOM     22  C   UNL     1       1.493  -2.061  -0.332  0.00  0.00    +0.003 A 
ATOM     23  C   UNL     1       1.049  -1.395   0.795  0.00  0.00    +0.020 A 
ATOM     24  C   UNL     1       0.479  -0.138   0.680  0.00  0.00    +0.046 A 
ATOM     25 CL   UNL     1      -0.070   0.698   2.099  0.00  0.00    -0.083 Cl
ENDBRANCH  14  20
ENDBRANCH  13  15
ENDBRANCH   1  13
BRANCH  12  26
ATOM     26  C   UNL     1      -3.076  -1.807  -8.169  0.00  0.00    +0.117 C 
BRANCH  26  27
ATOM     27  C   UNL     1      -3.795  -2.172  -6.868  0.00  0.00    +0.001 C 
ATOM     28  C   UNL     1      -4.903  -1.152  -6.595  0.00  0.00    +0.009 C 
ATOM     29  C   UNL     1      -4.408  -3.568  -6.999  0.00  0.00    +0.009 C 
ENDBRANCH  26  27
ENDBRANCH  12  26
TORSDOF 5
