REMARK  Name = ZINC26781160
REMARK  14 active torsions:
REMARK  status: ('A' for Active; 'I' for Inactive)
REMARK    1  A    between atoms: C_1  and  C_2
REMARK    2  A    between atoms: C_2  and  C_3
REMARK    3  A    between atoms: C_2  and  C_4
REMARK    4  A    between atoms: C_2  and  C_5
REMARK    5  A    between atoms: C_7  and  O_33
REMARK    6  A    between atoms: C_10  and  O_11
REMARK    7  A    between atoms: O_11  and  C_12
REMARK    8  A    between atoms: C_12  and  C_13
REMARK    9  A    between atoms: C_13  and  C_15
REMARK   10  A    between atoms: C_13  and  O_32
REMARK   11  A    between atoms: C_15  and  N_16
REMARK   12  A    between atoms: N_19  and  C_22
REMARK   13  A    between atoms: C_22  and  C_23
REMARK   14  A    between atoms: O_33  and  C_34
REMARK                            x       y       z     vdW  Elec       q    Type
REMARK                         _______ _______ _______ _____ _____    ______ ____
ROOT
ATOM      1  C   UNL     1       9.054  -3.114  -0.940  0.00  0.00    +0.119 C 
ENDROOT
BRANCH   1   2
ATOM      2  N   UNL     1       8.056  -2.655   0.035  0.00  0.00    -0.303 NA
ATOM      3  C   UNL     1       6.838  -2.183  -0.641  0.00  0.00    +0.066 C 
ATOM      4  C   UNL     1       5.858  -1.641   0.401  0.00  0.00    -0.063 C 
ATOM      5  N   UNL     1       5.542  -2.699   1.371  0.00  0.00    +0.384 N 
ATOM      6  C   UNL     1       6.760  -3.170   2.046  0.00  0.00    -0.063 C 
ATOM      7  C   UNL     1       7.740  -3.713   1.004  0.00  0.00    +0.066 C 
ATOM      8  H   UNL     1       5.110  -3.546   0.820  0.00  0.00    -0.081 HD
BRANCH   5   9
ATOM      9  C   UNL     1       4.544  -2.239   2.346  0.00  0.00    -0.043 C 
BRANCH   9  10
ATOM     10  C   UNL     1       4.065  -3.410   3.165  0.00  0.00    -0.060 A 
ATOM     11  C   UNL     1       4.717  -3.744   4.337  0.00  0.00    +0.005 A 
ATOM     12  C   UNL     1       4.282  -4.818   5.092  0.00  0.00    +0.050 A 
ATOM     13  C   UNL     1       3.190  -5.561   4.674  0.00  0.00    +0.166 A 
ATOM     14  C   UNL     1       2.533  -5.224   3.494  0.00  0.00    +0.166 A 
ATOM     15  C   UNL     1       2.975  -4.147   2.743  0.00  0.00    +0.051 A 
ATOM     16  O   UNL     1       1.502  -6.098   3.303  0.00  0.00    -0.453 OA
ATOM     17  C   UNL     1       1.283  -6.719   4.584  0.00  0.00    +0.466 C 
ATOM     18  O   UNL     1       2.571  -6.646   5.224  0.00  0.00    -0.453 OA
ENDBRANCH   9  10
ENDBRANCH   5   9
ENDBRANCH   1   2
BRANCH   1  19
ATOM     19  C   UNL     1       8.648  -4.488  -1.477  0.00  0.00    +0.166 C 
BRANCH  19  20
ATOM     20  O   UNL     1       7.441  -4.366  -2.234  0.00  0.00    -0.387 OA
ATOM     21  H   UNL     1       6.527  -3.987  -1.754  0.00  0.00    +0.210 HD
ENDBRANCH  19  20
BRANCH  19  22
ATOM     22  C   UNL     1       9.759  -5.034  -2.375  0.00  0.00    +0.261 C 
BRANCH  22  23
ATOM     23  O   UNL     1       9.433  -6.364  -2.782  0.00  0.00    -0.489 OA
BRANCH  23  29
ATOM     24  C   UNL     1      10.071  -8.294  -4.019  0.00  0.00    +0.003 A 
ATOM     25  C   UNL     1      10.974  -8.937  -4.844  0.00  0.00    +0.053 A 
ATOM     26  C   UNL     1      12.137  -8.291  -5.235  0.00  0.00    +0.121 A 
ATOM     27  C   UNL     1      12.392  -6.998  -4.802  0.00  0.00    +0.049 A 
ATOM     28  C   UNL     1      11.487  -6.354  -3.982  0.00  0.00    +0.049 A 
ATOM     29  C   UNL     1      10.323  -6.999  -3.590  0.00  0.00    +0.125 A 
BRANCH  24  31
ATOM     30  C   UNL     1       8.777 -10.401  -4.195  0.00  0.00    +0.015 C 
ATOM     31  C   UNL     1       8.810  -8.997  -3.589  0.00  0.00    -0.009 C 
ATOM     32  C   UNL     1       8.778  -9.100  -2.062  0.00  0.00    +0.015 C 
ATOM     33  C   UNL     1       7.594  -8.204  -4.072  0.00  0.00    +0.015 C 
ENDBRANCH  24  31
BRANCH  26  34
ATOM     34  O   UNL     1      13.028  -8.926  -6.043  0.00  0.00    -0.495 OA
ATOM     35  C   UNL     1      14.205  -8.201  -6.407  0.00  0.00    +0.277 C 
ENDBRANCH  26  34
ENDBRANCH  23  29
ENDBRANCH  22  23
ENDBRANCH  19  22
ENDBRANCH   1  19
TORSDOF 10
