REMARK  Name = ZINC45941121
REMARK  12 active torsions:
REMARK  status: ('A' for Active; 'I' for Inactive)
REMARK    1  A    between atoms: C_1  and  C_2
REMARK    2  A    between atoms: C_5  and  S_8
REMARK    3  A    between atoms: S_8  and  C_9
REMARK    4  A    between atoms: C_14  and  N_15
REMARK    5  A    between atoms: N_15  and  S_16
REMARK    6  A    between atoms: S_16  and  C_19
REMARK    7  A    between atoms: C_22  and  C_25
REMARK    8  A    between atoms: C_25  and  C_26
REMARK    9  A    between atoms: C_26  and  C_27
REMARK   10  A    between atoms: C_26  and  C_28
REMARK   11  A    between atoms: N_29  and  C_34
REMARK   12  A    between atoms: N_32  and  C_33
REMARK                            x       y       z     vdW  Elec       q    Type
REMARK                         _______ _______ _______ _____ _____    ______ ____
ROOT
ATOM      1  C   UNL     1       0.327  -4.962   1.684  0.00  0.00    +0.037 A 
ATOM      2  C   UNL     1       0.302  -3.978   2.660  0.00  0.00    +0.045 A 
ATOM      3  C   UNL     1       0.348  -4.333   4.000  0.00  0.00    +0.071 A 
ATOM      4  C   UNL     1       0.419  -5.679   4.364  0.00  0.00    +0.071 A 
ATOM      5  C   UNL     1       0.444  -6.662   3.387  0.00  0.00    +0.053 A 
ATOM      6  C   UNL     1       0.392  -6.308   2.049  0.00  0.00    +0.064 A 
ATOM      7  N   UNL     1       0.451  -5.717   5.758  0.00  0.00    -0.295 N 
ATOM      8  C   UNL     1       0.402  -4.453   6.219  0.00  0.00    +0.330 A 
ATOM      9  O   UNL     1       0.412  -4.135   7.394  0.00  0.00    -0.246 OA
ATOM     10  N   UNL     1       0.339  -3.595   5.184  0.00  0.00    -0.295 N 
ATOM     11  C   UNL     1       0.275  -2.135   5.284  0.00  0.00    +0.154 C 
ATOM     12  C   UNL     1       0.524  -6.927   6.581  0.00  0.00    +0.154 C 
ENDROOT
BRANCH   6  13
ATOM     13  N   UNL     1       0.412  -7.301   1.060  0.00  0.00    -0.215 N 
ATOM     14  H   UNL     1       0.871  -7.141   0.221  0.00  0.00    +0.174 HD
BRANCH  13  15
ATOM     15  S   UNL     1      -0.350  -8.747   1.324  0.00  0.00    +0.072 S 
ATOM     16  O   UNL     1      -0.267  -9.477   0.108  0.00  0.00    -0.150 OA
ATOM     17  O   UNL     1       0.154  -9.253   2.552  0.00  0.00    -0.150 OA
BRANCH  15  18
ATOM     18  C   UNL     1      -2.057  -8.397   1.586  0.00  0.00    +0.109 A 
ATOM     19  C   UNL     1      -2.523  -8.146   2.863  0.00  0.00    +0.029 A 
ATOM     20  C   UNL     1      -3.862  -7.871   3.068  0.00  0.00    +0.005 A 
ATOM     21  C   UNL     1      -4.735  -7.847   1.997  0.00  0.00    -0.047 A 
ATOM     22  C   UNL     1      -4.269  -8.097   0.720  0.00  0.00    +0.005 A 
ATOM     23  C   UNL     1      -2.929  -8.367   0.514  0.00  0.00    +0.029 A 
BRANCH  21  24
ATOM     24  C   UNL     1      -6.195  -7.548   2.221  0.00  0.00    +0.038 C 
BRANCH  24  25
ATOM     25  C   UNL     1      -6.429  -6.040   2.117  0.00  0.00    -0.013 C 
ATOM     26  C   UNL     1      -7.927  -5.747   2.221  0.00  0.00    +0.007 C 
ATOM     27  C   UNL     1      -5.691  -5.330   3.254  0.00  0.00    +0.007 C 
ENDBRANCH  24  25
ENDBRANCH  21  24
ENDBRANCH  15  18
ENDBRANCH  13  15
ENDBRANCH   6  13
BRANCH   1  28
ATOM     28  S   UNL     1       0.269  -4.513  -0.019  0.00  0.00    -0.087 S 
BRANCH  28  33
ATOM     29  C   UNL     1       0.510   1.518   0.048  0.00  0.00    +0.044 C 
ATOM     30  C   UNL     1       0.450   0.012   0.032  0.00  0.00    -0.050 A 
ATOM     31  C   UNL     1       1.619  -0.726   0.075  0.00  0.00    +0.004 A 
ATOM     32  C   UNL     1       1.568  -2.105   0.060  0.00  0.00    +0.015 A 
ATOM     33  C   UNL     1       0.339  -2.752   0.001  0.00  0.00    +0.013 A 
ATOM     34  C   UNL     1      -0.834  -2.008  -0.042  0.00  0.00    +0.015 A 
ATOM     35  C   UNL     1      -0.775  -0.628  -0.021  0.00  0.00    +0.004 A 
ENDBRANCH  28  33
ENDBRANCH   1  28
TORSDOF 7
