REMARK  Name = ZINC46841156
REMARK  13 active torsions:
REMARK  status: ('A' for Active; 'I' for Inactive)
REMARK    1  A    between atoms: C_1  and  C_2
REMARK    2  A    between atoms: C_5  and  S_8
REMARK    3  A    between atoms: S_8  and  N_11
REMARK    4  A    between atoms: N_11  and  C_12
REMARK    5  A    between atoms: C_12  and  C_14
REMARK    6  A    between atoms: C_12  and  C_18
REMARK    7  A    between atoms: C_14  and  C_15
REMARK    8  A    between atoms: C_15  and  C_16
REMARK    9  A    between atoms: C_15  and  C_17
REMARK   10  A    between atoms: N_20  and  C_21
REMARK   11  A    between atoms: C_21  and  C_22
REMARK   12  A    between atoms: C_30  and  C_37
REMARK   13  A    between atoms: C_33  and  C_36
REMARK                            x       y       z     vdW  Elec       q    Type
REMARK                         _______ _______ _______ _____ _____    ______ ____
ROOT
ATOM      1  C   UNL     1       3.747  -5.670   1.070  0.00  0.00    +0.232 C 
ATOM      2  O   UNL     1       3.742  -6.672   0.386  0.00  0.00    -0.274 OA
ATOM      3  N   UNL     1       4.765  -5.443   1.923  0.00  0.00    -0.310 N 
ATOM      4  H   UNL     1       4.769  -4.642   2.470  0.00  0.00    +0.149 HD
ENDROOT
BRANCH   1   5
ATOM      5  C   UNL     1       2.616  -4.680   0.965  0.00  0.00    +0.162 C 
BRANCH   5   6
ATOM      6  N   UNL     1       1.644  -5.152  -0.025  0.00  0.00    -0.178 NA
ATOM      7  H   UNL     1       1.772  -4.952  -0.965  0.00  0.00    +0.149 HD
BRANCH   6   8
ATOM      8  S   UNL     1       0.326  -6.029   0.463  0.00  0.00    +0.059 S 
ATOM      9  O   UNL     1       0.814  -7.059   1.311  0.00  0.00    -0.153 OA
ATOM     10  O   UNL     1      -0.436  -6.300  -0.705  0.00  0.00    -0.153 OA
BRANCH   8  15
ATOM     11  C   UNL     1      -3.047  -2.410   3.918  0.00  0.00    +0.044 C 
ATOM     12  C   UNL     1      -2.205  -3.314   3.055  0.00  0.00    -0.050 A 
ATOM     13  C   UNL     1      -2.337  -3.277   1.679  0.00  0.00    +0.005 A 
ATOM     14  C   UNL     1      -1.564  -4.106   0.888  0.00  0.00    +0.029 A 
ATOM     15  C   UNL     1      -0.658  -4.971   1.472  0.00  0.00    +0.105 A 
ATOM     16  C   UNL     1      -0.525  -5.008   2.847  0.00  0.00    +0.029 A 
ATOM     17  C   UNL     1      -1.295  -4.176   3.639  0.00  0.00    +0.005 A 
ENDBRANCH   8  15
ENDBRANCH   6   8
ENDBRANCH   5   6
BRANCH   5  18
ATOM     18  C   UNL     1       3.167  -3.321   0.529  0.00  0.00    +0.032 C 
BRANCH  18  19
ATOM     19  C   UNL     1       2.038  -2.288   0.534  0.00  0.00    -0.015 C 
ATOM     20  C   UNL     1       1.560  -2.061   1.969  0.00  0.00    +0.007 C 
ATOM     21  C   UNL     1       2.552  -0.969  -0.047  0.00  0.00    +0.007 C 
ENDBRANCH  18  19
ENDBRANCH   5  18
ENDBRANCH   1   5
BRANCH   3  22
ATOM     22  C   UNL     1       5.864  -6.405   2.026  0.00  0.00    +0.141 C 
BRANCH  22  23
ATOM     23  C   UNL     1       6.864  -5.920   3.043  0.00  0.00    -0.014 A 
ATOM     24  C   UNL     1       7.919  -5.104   2.655  0.00  0.00    +0.010 A 
ATOM     25  C   UNL     1       8.815  -4.680   3.620  0.00  0.00    +0.042 A 
ATOM     26  C   UNL     1       8.630  -5.083   4.939  0.00  0.00    +0.099 A 
ATOM     27  N   UNL     1       7.611  -5.862   5.269  0.00  0.00    -0.349 N 
ATOM     28  C   UNL     1       6.738  -6.277   4.370  0.00  0.00    +0.089 A 
ATOM     29  N   UNL     1       9.523  -4.665   5.919  0.00  0.00    -0.312 N 
ATOM     30  C   UNL     1       9.435  -5.181   7.294  0.00  0.00    +0.137 C 
ATOM     31  C   UNL     1      10.824  -5.674   7.715  0.00  0.00    +0.133 C 
ATOM     32  O   UNL     1      11.780  -4.636   7.487  0.00  0.00    -0.371 OA
ATOM     33  C   UNL     1      11.917  -4.258   6.115  0.00  0.00    +0.133 C 
ATOM     34  C   UNL     1      10.588  -3.697   5.610  0.00  0.00    +0.137 C 
ATOM     35  C   UNL     1      13.007  -3.192   5.985  0.00  0.00    +0.039 C 
ATOM     36  C   UNL     1      11.200  -6.907   6.892  0.00  0.00    +0.039 C 
ATOM     37  H   UNL     1       7.502  -6.131   6.194  0.00  0.00    +0.167 HD
ENDBRANCH  22  23
ENDBRANCH   3  22
TORSDOF 8
