REMARK  Name = ZINC02209582
REMARK  7 active torsions:
REMARK  status: ('A' for Active; 'I' for Inactive)
REMARK    1  A    between atoms: C_1  and  C_2
REMARK    2  A    between atoms: C_7  and  C_8
REMARK    3  A    between atoms: C_19  and  C_21
REMARK    4  A    between atoms: C_25  and  O_29
REMARK    5  A    between atoms: C_26  and  O_27
REMARK    6  A    between atoms: O_27  and  C_28
REMARK    7  A    between atoms: O_29  and  C_30
REMARK                            x       y       z     vdW  Elec       q    Type
REMARK                         _______ _______ _______ _____ _____    ______ ____
ROOT
ATOM      1  C   UNL     1       0.875   0.112   2.129  0.00  0.00    +0.159 C 
ATOM      2  C   UNL     1       2.074   1.035   2.129  0.00  0.00    +0.027 C 
ATOM      3  C   UNL     1       2.985   0.890   3.112  0.00  0.00    +0.083 C 
ATOM      4  C   UNL     1       4.162   1.796   3.094  0.00  0.00    +0.042 A 
ATOM      5  C   UNL     1       4.976   1.950   4.208  0.00  0.00    +0.013 A 
ATOM      6  C   UNL     1       6.059   2.805   4.148  0.00  0.00    +0.001 A 
ATOM      7  C   UNL     1       6.331   3.506   2.986  0.00  0.00    +0.004 A 
ATOM      8  C   UNL     1       5.525   3.358   1.872  0.00  0.00    +0.046 A 
ATOM      9  C   UNL     1       4.438   2.503   1.917  0.00  0.00    +0.131 A 
ATOM     10  O   UNL     1       3.634   2.333   0.836  0.00  0.00    -0.479 OA
ATOM     11  C   UNL     1       2.246   2.089   1.075  0.00  0.00    +0.238 C 
ATOM     12  N   UNL     1       2.840  -0.046   4.082  0.00  0.00    -0.213 NA
ATOM     13  C   UNL     1       1.832  -0.884   4.157  0.00  0.00    +0.237 C 
ATOM     14  N   UNL     1       0.822  -0.867   3.221  0.00  0.00    -0.208 N 
ATOM     15  N   UNL     1      -0.074  -1.874   3.586  0.00  0.00    -0.251 N 
ATOM     16  C   UNL     1       0.428  -2.448   4.713  0.00  0.00    +0.203 C 
ATOM     17  N   UNL     1       1.537  -1.863   5.040  0.00  0.00    -0.205 NA
ATOM     18  H   UNL     1      -0.894  -2.116   3.126  0.00  0.00    +0.171 HD
ENDROOT
BRANCH   1  25
ATOM     19  C   UNL     1      -1.623  -0.858   1.049  0.00  0.00    +0.044 C 
ATOM     20  C   UNL     1      -0.335  -1.103   0.306  0.00  0.00    -0.045 A 
ATOM     21  C   UNL     1      -0.349  -1.788  -0.895  0.00  0.00    +0.004 A 
ATOM     22  C   UNL     1       0.832  -2.012  -1.577  0.00  0.00    +0.000 A 
ATOM     23  C   UNL     1       2.028  -1.552  -1.058  0.00  0.00    +0.000 A 
ATOM     24  C   UNL     1       2.042  -0.868   0.143  0.00  0.00    +0.006 A 
ATOM     25  C   UNL     1       0.860  -0.639   0.822  0.00  0.00    -0.018 A 
ENDBRANCH   1  25
BRANCH  11  26
ATOM     26  C   UNL     1       1.588   3.365   1.534  0.00  0.00    +0.042 A 
ATOM     27  C   UNL     1       2.069   4.030   2.646  0.00  0.00    +0.011 A 
ATOM     28  C   UNL     1       1.467   5.200   3.070  0.00  0.00    +0.004 A 
ATOM     29  C   UNL     1       0.381   5.710   2.383  0.00  0.00    +0.049 A 
ATOM     30  C   UNL     1      -0.106   5.049   1.267  0.00  0.00    +0.162 A 
ATOM     31  C   UNL     1       0.504   3.874   0.838  0.00  0.00    +0.168 A 
BRANCH  31  32
ATOM     32  O   UNL     1       0.033   3.224  -0.260  0.00  0.00    -0.491 OA
ATOM     33  C   UNL     1      -1.095   2.366  -0.072  0.00  0.00    +0.277 C 
ENDBRANCH  31  32
BRANCH  30  34
ATOM     34  O   UNL     1      -1.175   5.549   0.591  0.00  0.00    -0.491 OA
ATOM     35  C   UNL     1      -1.746   6.762   1.086  0.00  0.00    +0.277 C 
ENDBRANCH  30  34
ENDBRANCH  11  26
TORSDOF 4
