REMARK  Name = ZINC08451240
REMARK  12 active torsions:
REMARK  status: ('A' for Active; 'I' for Inactive)
REMARK    1  A    between atoms: C_1  and  C_2
REMARK    2  A    between atoms: C_2  and  O_3
REMARK    3  A    between atoms: O_3  and  C_4
REMARK    4  A    between atoms: C_4  and  C_6
REMARK    5  A    between atoms: C_7  and  C_24
REMARK    6  A    between atoms: C_9  and  N_23
REMARK    7  A    between atoms: C_10  and  C_21
REMARK    8  A    between atoms: C_11  and  C_13
REMARK    9  A    between atoms: C_16  and  N_18
REMARK   10  A    between atoms: C_24  and  S_25
REMARK   11  A    between atoms: S_25  and  C_26
REMARK   12  A    between atoms: C_27  and  C_35
REMARK                            x       y       z     vdW  Elec       q    Type
REMARK                         _______ _______ _______ _____ _____    ______ ____
ROOT
ATOM      1  C   UNL     1      -1.540   3.861   2.435  0.00  0.00    +0.088 C 
ATOM      2  C   UNL     1      -1.454   5.172   2.690  0.00  0.00    +0.128 C 
ATOM      3  O   UNL     1      -1.955   5.719   3.808  0.00  0.00    -0.444 OA
ATOM      4  C   UNL     1      -2.879   5.045   4.514  0.00  0.00    +0.198 C 
ATOM      5  C   UNL     1      -3.054   3.709   4.370  0.00  0.00    +0.099 C 
ATOM      6  C   UNL     1      -2.219   2.925   3.398  0.00  0.00    +0.111 C 
ENDROOT
BRANCH   6   7
ATOM      7  C   UNL     1      -1.177   2.144   4.156  0.00  0.00    +0.005 A 
ATOM      8  C   UNL     1      -0.984   0.803   4.208  0.00  0.00    +0.014 A 
ATOM      9  C   UNL     1       0.048   0.304   4.980  0.00  0.00    +0.041 A 
ATOM     10  C   UNL     1       0.837   1.169   5.662  0.00  0.00    +0.164 A 
ATOM     11  S   UNL     1       0.130   2.746   5.214  0.00  0.00    -0.068 S 
BRANCH  10  12
ATOM     12  N   UNL     1       1.991   0.882   6.544  0.00  0.00    +0.063 N 
ATOM     13  O   UNL     1       2.342  -0.269   6.732  0.00  0.00    -0.126 OA
ATOM     14  O   UNL     1       2.590   1.797   7.081  0.00  0.00    -0.126 OA
ENDBRANCH  10  12
ENDBRANCH   6   7
BRANCH   4  15
ATOM     15  N   UNL     1      -3.666   5.729   5.407  0.00  0.00    -0.328 N 
ATOM     16  H   UNL     1      -3.552   6.686   5.521  0.00  0.00    +0.145 HD
ATOM     17  H   UNL     1      -4.337   5.256   5.924  0.00  0.00    +0.145 HD
ENDBRANCH   4  15
BRANCH   1  18
ATOM     18  C   UNL     1      -0.989   3.347   1.236  0.00  0.00    +0.339 C 
ATOM     19  O   UNL     1      -1.712   3.110   0.286  0.00  0.00    -0.245 OA
BRANCH  18  20
ATOM     20  O   UNL     1       0.338   3.121   1.146  0.00  0.00    -0.462 OA
BRANCH  20  22
ATOM     21  C   UNL     1       2.341   2.412  -0.006  0.00  0.00    +0.048 C 
ATOM     22  C   UNL     1       0.826   2.602  -0.093  0.00  0.00    +0.229 C 
ENDBRANCH  20  22
ENDBRANCH  18  20
ENDBRANCH   1  18
BRANCH   5  23
ATOM     23  C   UNL     1      -4.051   3.038   5.148  0.00  0.00    +0.101 C 
ATOM     24  N   UNL     1      -4.843   2.505   5.766  0.00  0.00    -0.191 NA
ENDBRANCH   5  23
BRANCH   2  25
ATOM     25  C   UNL     1      -0.770   6.065   1.687  0.00  0.00    +0.150 C 
BRANCH  25  26
ATOM     26  S   UNL     1      -2.014   7.006   0.770  0.00  0.00    -0.097 S 
BRANCH  26  27
ATOM     27  C   UNL     1      -0.968   7.936  -0.299  0.00  0.00    +0.115 A 
ATOM     28  C   UNL     1      -1.532   8.832  -1.226  0.00  0.00    +0.084 A 
ATOM     29  C   UNL     1      -0.677   9.560  -2.058  0.00  0.00    +0.027 A 
ATOM     30  C   UNL     1       0.689   9.361  -1.942  0.00  0.00    -0.025 A 
ATOM     31  C   UNL     1       1.173   8.460  -1.011  0.00  0.00    +0.046 A 
ATOM     32  N   UNL     1       0.344   7.785  -0.231  0.00  0.00    -0.244 NA
ATOM     33  C   UNL     1       2.687   8.424  -1.080  0.00  0.00    +0.056 C 
ATOM     34  C   UNL     1       3.046   9.063  -2.438  0.00  0.00    +0.011 C 
ATOM     35  C   UNL     1       1.839   9.989  -2.698  0.00  0.00    +0.037 C 
BRANCH  28  36
ATOM     36  C   UNL     1      -2.952   8.998  -1.310  0.00  0.00    +0.102 C 
ATOM     37  N   UNL     1      -4.078   9.130  -1.377  0.00  0.00    -0.191 NA
ENDBRANCH  28  36
ENDBRANCH  26  27
ENDBRANCH  25  26
ENDBRANCH   2  25
TORSDOF 11
