REMARK  Name = ZINC18194754
REMARK  8 active torsions:
REMARK  status: ('A' for Active; 'I' for Inactive)
REMARK    1  A    between atoms: C_1  and  C_2
REMARK    2  A    between atoms: C_2  and  C_3
REMARK    3  A    between atoms: C_4  and  C_34
REMARK    4  A    between atoms: C_6  and  N_11
REMARK    5  A    between atoms: C_7  and  C_8
REMARK    6  A    between atoms: C_12  and  C_14
REMARK    7  A    between atoms: C_19  and  C_30
REMARK    8  A    between atoms: C_22  and  C_25
REMARK                            x       y       z     vdW  Elec       q    Type
REMARK                         _______ _______ _______ _____ _____    ______ ____
ROOT
ATOM      1  C   UNL     1      -6.527  -2.400  -2.803  0.00  0.00    +0.149 A 
ATOM      2  C   UNL     1      -7.843  -2.879  -2.608  0.00  0.00    +0.078 A 
ATOM      3  C   UNL     1      -8.389  -3.076  -3.824  0.00  0.00    +0.119 A 
ATOM      4  N   UNL     1      -7.460  -2.740  -4.768  0.00  0.00    -0.238 N 
ATOM      5  N   UNL     1      -6.309  -2.315  -4.104  0.00  0.00    -0.164 NA
ATOM      6  C   UNL     1      -7.697  -2.830  -6.211  0.00  0.00    +0.215 C 
ATOM      7  C   UNL     1      -8.880  -3.773  -6.461  0.00  0.00    +0.063 C 
ATOM      8  C   UNL     1     -10.062  -3.374  -5.572  0.00  0.00    +0.111 C 
ATOM      9  N   UNL     1      -9.665  -3.538  -4.160  0.00  0.00    -0.322 N 
ATOM     10  H   UNL     1     -10.254  -3.941  -3.504  0.00  0.00    +0.148 HD
ENDROOT
BRANCH   8  11
ATOM     11  C   UNL     1     -10.431  -1.936  -5.835  0.00  0.00    +0.010 A 
ATOM     12  C   UNL     1     -11.436  -1.438  -6.596  0.00  0.00    +0.013 A 
ATOM     13  C   UNL     1     -11.587  -0.068  -6.693  0.00  0.00    +0.008 A 
ATOM     14  C   UNL     1     -10.726   0.738  -6.024  0.00  0.00    +0.045 A 
ATOM     15  S   UNL     1      -9.662  -0.448  -5.219  0.00  0.00    -0.100 S 
ENDBRANCH   8  11
BRANCH   1  17
ATOM     16  N   UNL     1      -4.338  -1.597  -2.062  0.00  0.00    -0.274 N 
ATOM     17  C   UNL     1      -5.566  -2.050  -1.739  0.00  0.00    +0.269 C 
ATOM     18  O   UNL     1      -5.882  -2.170  -0.571  0.00  0.00    -0.268 OA
ATOM     19  H   UNL     1      -4.087  -1.501  -2.994  0.00  0.00    +0.156 HD
BRANCH  16  23
ATOM     20  C   UNL     1      -1.412  -0.526   0.013  0.00  0.00    -0.024 A 
ATOM     21  C   UNL     1      -2.073  -0.774   1.158  0.00  0.00    -0.008 A 
ATOM     22  S   UNL     1      -3.659  -1.356   0.598  0.00  0.00    -0.078 S 
ATOM     23  C   UNL     1      -3.436  -1.268  -1.063  0.00  0.00    +0.085 A 
ATOM     24  C   UNL     1      -2.143  -0.785  -1.206  0.00  0.00    +0.068 A 
ATOM     25  C   UNL     1      -1.588  -0.601   2.574  0.00  0.00    +0.052 C 
BRANCH  24  26
ATOM     26  C   UNL     1      -1.549  -0.554  -2.526  0.00  0.00    +0.244 C 
ATOM     27  O   UNL     1      -0.937  -1.448  -3.083  0.00  0.00    -0.270 OA
ATOM     28  N   UNL     1      -1.679   0.647  -3.123  0.00  0.00    -0.325 N 
ATOM     29  H   UNL     1      -2.166   1.359  -2.680  0.00  0.00    +0.145 HD
ATOM     30  H   UNL     1      -1.285   0.800  -3.997  0.00  0.00    +0.145 HD
ENDBRANCH  24  26
BRANCH  20  32
ATOM     31  C   UNL     1      -0.019   1.526   0.010  0.00  0.00    +0.009 C 
ATOM     32  C   UNL     1       0.002  -0.004   0.002  0.00  0.00    +0.033 C 
ENDBRANCH  20  32
ENDBRANCH  16  23
ENDBRANCH   1  17
BRANCH   6  33
ATOM     33  C   UNL     1      -6.447  -3.377  -6.903  0.00  0.00    +0.412 C 
ATOM     34  F   UNL     1      -6.154  -4.649  -6.399  0.00  0.00    -0.168 F 
ATOM     35  F   UNL     1      -6.676  -3.463  -8.280  0.00  0.00    -0.168 F 
ATOM     36  F   UNL     1      -5.368  -2.521  -6.661  0.00  0.00    -0.168 F 
ENDBRANCH   6  33
TORSDOF 6
