REMARK  Name = ZINC12275730
REMARK  7 active torsions:
REMARK  status: ('A' for Active; 'I' for Inactive)
REMARK    1  A    between atoms: C_1  and  O_2
REMARK    2  A    between atoms: O_2  and  C_3
REMARK    3  A    between atoms: C_5  and  C_10
REMARK    4  A    between atoms: C_8  and  O_9
REMARK    5  A    between atoms: C_17  and  C_18
REMARK    6  A    between atoms: C_22  and  C_23
REMARK    7  A    between atoms: C_22  and  O_30
REMARK                            x       y       z     vdW  Elec       q    Type
REMARK                         _______ _______ _______ _____ _____    ______ ____
ROOT
ATOM      1  C   UNL     1       1.222  -2.189  -0.021  0.00  0.00    +0.071 C 
ATOM      2  C   UNL     1       0.519  -2.708   1.229  0.00  0.00    +0.110 C 
ATOM      3  C   UNL     1       0.239  -4.184   1.129  0.00  0.00    +0.224 C 
ATOM      4  O   UNL     1       0.374  -4.904   2.096  0.00  0.00    -0.275 OA
ATOM      5  N   UNL     1      -0.170  -4.699  -0.071  0.00  0.00    -0.231 N 
ATOM      6  C   UNL     1      -0.087  -3.905  -1.205  0.00  0.00    +0.087 C 
ATOM      7  C   UNL     1       0.516  -2.690  -1.261  0.00  0.00    +0.065 C 
ATOM      8  S   UNL     1      -0.875  -4.797  -2.514  0.00  0.00    -0.104 S 
ATOM      9  C   UNL     1      -1.284  -6.341  -1.616  0.00  0.00    +0.136 C 
ATOM     10  C   UNL     1      -0.722  -6.035  -0.217  0.00  0.00    +0.175 C 
ENDROOT
BRANCH  10  11
ATOM     11  C   UNL     1       0.361  -7.037   0.093  0.00  0.00    +0.004 A 
ATOM     12  C   UNL     1       1.689  -6.690  -0.068  0.00  0.00    +0.009 A 
ATOM     13  C   UNL     1       2.683  -7.606   0.222  0.00  0.00    +0.020 A 
ATOM     14  C   UNL     1       2.347  -8.874   0.662  0.00  0.00    +0.041 A 
ATOM     15  C   UNL     1       1.017  -9.222   0.818  0.00  0.00    +0.020 A 
ATOM     16  C   UNL     1       0.025  -8.303   0.534  0.00  0.00    +0.009 A 
ATOM     17 CL   UNL     1       3.594 -10.028   1.019  0.00  0.00    -0.084 Cl
ENDBRANCH  10  11
BRANCH   1  20
ATOM     18  C   UNL     1       2.386   1.405  -0.014  0.00  0.00    +0.162 A 
ATOM     19  C   UNL     1       2.398   0.019  -0.021  0.00  0.00    +0.053 A 
ATOM     20  C   UNL     1       1.207  -0.682  -0.013  0.00  0.00    -0.035 A 
ATOM     21  C   UNL     1       0.002  -0.004   0.002  0.00  0.00    +0.008 A 
ATOM     22  C   UNL     1      -0.017   1.378   0.010  0.00  0.00    +0.049 A 
ATOM     23  C   UNL     1       1.174   2.087   0.002  0.00  0.00    +0.158 A 
BRANCH  18  25
ATOM     24  C   UNL     1       4.763   1.330  -0.039  0.00  0.00    +0.277 C 
ATOM     25  O   UNL     1       3.557   2.096  -0.022  0.00  0.00    -0.491 OA
ENDBRANCH  18  25
BRANCH  23  26
ATOM     26  O   UNL     1       1.157   3.447   0.009  0.00  0.00    -0.503 OA
ATOM     27  H   UNL     1       1.161   3.836   0.894  0.00  0.00    +0.292 HD
ENDBRANCH  23  26
ENDBRANCH   1  20
BRANCH   7  28
ATOM     28  C   UNL     1       0.484  -1.907  -2.460  0.00  0.00    +0.098 C 
ATOM     29  N   UNL     1       0.460  -1.286  -3.410  0.00  0.00    -0.191 NA
ENDBRANCH   7  28
BRANCH  10  30
ATOM     30  O   UNL     1      -1.771  -6.199   0.740  0.00  0.00    -0.366 OA
ATOM     31  H   UNL     1      -2.197  -7.067   0.712  0.00  0.00    +0.212 HD
ENDBRANCH  10  30
TORSDOF 6
