REMARK  Name = ZINC65199145
REMARK  6 active torsions:
REMARK  status: ('A' for Active; 'I' for Inactive)
REMARK    1  A    between atoms: C_1  and  C_2
REMARK    2  A    between atoms: C_5  and  C_8
REMARK    3  A    between atoms: C_8  and  N_9
REMARK    4  A    between atoms: N_9  and  C_10
REMARK    5  A    between atoms: N_9  and  S_17
REMARK    6  A    between atoms: S_17  and  C_20
REMARK                            x       y       z     vdW  Elec       q    Type
REMARK                         _______ _______ _______ _____ _____    ______ ____
ROOT
ATOM      1  N   UNL     1       1.407  -4.750  -0.166  0.00  0.00    -0.199 N 
ENDROOT
BRANCH   1   2
ATOM      2  C   UNL     1       2.178  -4.897   0.991  0.00  0.00    +0.052 A 
ATOM      3  C   UNL     1       3.556  -4.733   0.933  0.00  0.00    +0.027 A 
ATOM      4  C   UNL     1       4.316  -4.878   2.077  0.00  0.00    +0.040 A 
ATOM      5  C   UNL     1       3.705  -5.187   3.281  0.00  0.00    +0.124 A 
ATOM      6  C   UNL     1       2.332  -5.351   3.341  0.00  0.00    +0.040 A 
ATOM      7  C   UNL     1       1.567  -5.202   2.200  0.00  0.00    +0.027 A 
ATOM      8  F   UNL     1       4.451  -5.329   4.399  0.00  0.00    -0.205 F 
ENDBRANCH   1   2
BRANCH   1   9
ATOM      9  S   UNL     1       2.089  -5.005  -1.654  0.00  0.00    +0.076 S 
ATOM     10  O   UNL     1       1.087  -4.707  -2.616  0.00  0.00    -0.150 OA
ATOM     11  O   UNL     1       3.350  -4.350  -1.640  0.00  0.00    -0.150 OA
BRANCH   9  12
ATOM     12  C   UNL     1       2.419  -6.730  -1.788  0.00  0.00    +0.125 A 
ATOM     13  C   UNL     1       3.516  -7.287  -1.108  0.00  0.00    +0.034 A 
ATOM     14  C   UNL     1       3.769  -8.619  -1.212  0.00  0.00    +0.050 A 
ATOM     15  C   UNL     1       2.923  -9.420  -2.003  0.00  0.00    +0.161 A 
ATOM     16  N   UNL     1       2.904 -10.710  -2.297  0.00  0.00    -0.130 NA
ATOM     17  N   UNL     1       1.910 -10.958  -3.076  0.00  0.00    -0.137 NA
ATOM     18  C   UNL     1       1.244  -9.860  -3.325  0.00  0.00    +0.229 A 
ATOM     19  N   UNL     1       1.859  -8.848  -2.656  0.00  0.00    -0.287 N 
ATOM     20  C   UNL     1       1.614  -7.511  -2.538  0.00  0.00    +0.123 A 
ENDBRANCH   9  12
ENDBRANCH   1   9
BRANCH   1  21
ATOM     21  C   UNL     1      -0.004  -4.372  -0.062  0.00  0.00    +0.166 C 
BRANCH  21  26
ATOM     22  C   UNL     1      -0.428   1.365   0.490  0.00  0.00    +0.044 C 
ATOM     23  C   UNL     1      -0.317  -0.131   0.346  0.00  0.00    -0.050 A 
ATOM     24  C   UNL     1      -0.223  -0.700  -0.911  0.00  0.00    +0.003 A 
ATOM     25  C   UNL     1      -0.122  -2.072  -1.043  0.00  0.00    +0.005 A 
ATOM     26  C   UNL     1      -0.114  -2.876   0.082  0.00  0.00    -0.028 A 
ATOM     27  C   UNL     1      -0.207  -2.308   1.338  0.00  0.00    +0.005 A 
ATOM     28  C   UNL     1      -0.304  -0.935   1.471  0.00  0.00    +0.003 A 
ENDBRANCH  21  26
ENDBRANCH   1  21
TORSDOF 5
