REMARK  Name = ZINC65133060
REMARK  8 active torsions:
REMARK  status: ('A' for Active; 'I' for Inactive)
REMARK    1  A    between atoms: C_1  and  C_2
REMARK    2  A    between atoms: C_2  and  C_3
REMARK    3  A    between atoms: C_2  and  C_4
REMARK    4  A    between atoms: C_4  and  C_5
REMARK    5  A    between atoms: C_5  and  N_6
REMARK    6  A    between atoms: N_9  and  N_10
REMARK    7  A    between atoms: C_11  and  C_13
REMARK    8  A    between atoms: C_13  and  N_14
REMARK                            x       y       z     vdW  Elec       q    Type
REMARK                         _______ _______ _______ _____ _____    ______ ____
ROOT
ATOM      1  N   UNL     1       4.108  -1.442  -4.667  0.00  0.00    -0.232 N 
ATOM      2  C   UNL     1       4.739  -1.877  -5.776  0.00  0.00    +0.249 C 
ATOM      3  O   UNL     1       5.918  -1.644  -5.933  0.00  0.00    -0.272 OA
ATOM      4  H   UNL     1       3.164  -1.629  -4.541  0.00  0.00    +0.173 HD
ENDROOT
BRANCH   1   8
ATOM      5  N   UNL     1       2.873  -0.545  -2.413  0.00  0.00    -0.298 N 
ATOM      6  C   UNL     1       4.184  -0.286  -2.587  0.00  0.00    +0.316 C 
ATOM      7  O   UNL     1       4.798   0.340  -1.745  0.00  0.00    -0.251 OA
ATOM      8  N   UNL     1       4.815  -0.721  -3.696  0.00  0.00    -0.218 N 
ATOM      9  H   UNL     1       2.384  -1.045  -3.085  0.00  0.00    +0.150 HD
ATOM     10  H   UNL     1       5.758  -0.534  -3.822  0.00  0.00    +0.174 HD
BRANCH   5  11
ATOM     11  C   UNL     1       2.187  -0.073  -1.207  0.00  0.00    +0.106 C 
BRANCH  11  12
ATOM     12  C   UNL     1       0.718  -0.497  -1.257  0.00  0.00    +0.022 C 
BRANCH  12  14
ATOM     13  C   UNL     1      -0.019   1.526   0.010  0.00  0.00    +0.007 C 
ATOM     14  C   UNL     1       0.002  -0.004   0.002  0.00  0.00    -0.016 C 
ATOM     15  C   UNL     1      -1.433  -0.534   0.013  0.00  0.00    +0.007 C 
ENDBRANCH  12  14
ENDBRANCH  11  12
ENDBRANCH   5  11
ENDBRANCH   1   8
BRANCH   2  16
ATOM     16  C   UNL     1       3.978  -2.653  -6.821  0.00  0.00    +0.219 C 
BRANCH  16  17
ATOM     17  N   UNL     1       4.881  -3.008  -7.918  0.00  0.00    -0.338 N 
ATOM     18  C   UNL     1       5.038  -2.287  -9.071  0.00  0.00    +0.087 A 
ATOM     19  C   UNL     1       5.939  -2.886  -9.866  0.00  0.00    +0.027 A 
ATOM     20  C   UNL     1       6.396  -4.089  -9.165  0.00  0.00    -0.000 A 
ATOM     21  C   UNL     1       5.701  -4.113  -7.942  0.00  0.00    +0.051 A 
ATOM     22  C   UNL     1       5.934  -5.152  -7.046  0.00  0.00    +0.046 A 
ATOM     23  C   UNL     1       6.842  -6.140  -7.365  0.00  0.00    +0.043 A 
ATOM     24  C   UNL     1       7.527  -6.109  -8.572  0.00  0.00    +0.021 A 
ATOM     25  C   UNL     1       7.306  -5.102  -9.470  0.00  0.00    +0.011 A 
ATOM     26 CL   UNL     1       7.131  -7.435  -6.245  0.00  0.00    -0.083 Cl
ENDBRANCH  16  17
ENDBRANCH   2  16
TORSDOF 6
