REMARK  Name = ZINC08666689
REMARK  7 active torsions:
REMARK  status: ('A' for Active; 'I' for Inactive)
REMARK    1  A    between atoms: C_4  and  C_7
REMARK    2  A    between atoms: C_8  and  C_27
REMARK    3  A    between atoms: N_9  and  C_20
REMARK    4  A    between atoms: C_10  and  S_12
REMARK    5  A    between atoms: S_12  and  C_13
REMARK    6  A    between atoms: C_13  and  C_14
REMARK    7  A    between atoms: C_20  and  C_21
REMARK                            x       y       z     vdW  Elec       q    Type
REMARK                         _______ _______ _______ _____ _____    ______ ____
ROOT
ATOM      1  C   UNL     1       3.368  -1.072  -0.032  0.00  0.00    +0.098 A 
ATOM      2  C   UNL     1       3.861  -2.241   0.514  0.00  0.00    +0.077 A 
ATOM      3  N   UNL     1       5.237  -2.173   0.403  0.00  0.00    -0.316 N 
ATOM      4  C   UNL     1       5.534  -0.986  -0.195  0.00  0.00    +0.170 A 
ATOM      5  N   UNL     1       4.420  -0.343  -0.454  0.00  0.00    -0.221 NA
ENDROOT
BRANCH   1   9
ATOM      6  C   UNL     1      -0.727   0.023  -0.338  0.00  0.00    +0.000 A 
ATOM      7  C   UNL     1       0.231   0.995  -0.106  0.00  0.00    +0.001 A 
ATOM      8  C   UNL     1       1.562   0.645  -0.005  0.00  0.00    +0.010 A 
ATOM      9  C   UNL     1       1.941  -0.690  -0.138  0.00  0.00    +0.002 A 
ATOM     10  C   UNL     1       0.971  -1.665  -0.372  0.00  0.00    +0.010 A 
ATOM     11  C   UNL     1      -0.356  -1.303  -0.471  0.00  0.00    +0.001 A 
ENDBRANCH   1   9
BRANCH   2  12
ATOM     12  C   UNL     1       3.074  -3.344   1.099  0.00  0.00    +0.001 A 
ATOM     13  C   UNL     1       3.244  -4.651   0.634  0.00  0.00    +0.010 A 
ATOM     14  C   UNL     1       2.505  -5.676   1.186  0.00  0.00    +0.001 A 
ATOM     15  C   UNL     1       1.598  -5.414   2.197  0.00  0.00    +0.000 A 
ATOM     16  C   UNL     1       1.424  -4.122   2.662  0.00  0.00    +0.001 A 
ATOM     17  C   UNL     1       2.160  -3.087   2.124  0.00  0.00    +0.010 A 
ENDBRANCH   2  12
BRANCH   4  18
ATOM     18  S   UNL     1       7.156  -0.409  -0.569  0.00  0.00    -0.078 S 
BRANCH  18  19
ATOM     19  C   UNL     1       6.879   1.207  -1.345  0.00  0.00    +0.173 C 
BRANCH  19  20
ATOM     20  C   UNL     1       8.205   1.819  -1.719  0.00  0.00    +0.231 C 
ATOM     21  O   UNL     1       9.235   1.224  -1.485  0.00  0.00    -0.274 OA
ATOM     22  N   UNL     1       8.245   3.028  -2.314  0.00  0.00    -0.240 N 
ATOM     23  C   UNL     1       9.431   3.575  -2.648  0.00  0.00    +0.303 C 
ATOM     24  O   UNL     1      10.463   2.978  -2.413  0.00  0.00    -0.253 OA
ATOM     25  N   UNL     1       9.472   4.784  -3.243  0.00  0.00    -0.313 N 
ATOM     26  H   UNL     1       7.421   3.504  -2.501  0.00  0.00    +0.159 HD
ATOM     27  H   UNL     1       8.648   5.260  -3.430  0.00  0.00    +0.146 HD
ATOM     28  H   UNL     1      10.325   5.177  -3.483  0.00  0.00    +0.146 HD
ENDBRANCH  19  20
ENDBRANCH  18  19
ENDBRANCH   4  18
BRANCH   3  29
ATOM     29  C   UNL     1       6.197  -3.188   0.846  0.00  0.00    +0.156 C 
BRANCH  29  30
ATOM     30  C   UNL     1       6.703  -2.834   2.245  0.00  0.00    +0.138 C 
ATOM     31  C   UNL     1       7.779  -3.850   2.686  0.00  0.00    +0.035 C 
ATOM     32  C   UNL     1       7.447  -4.051   4.189  0.00  0.00    +0.031 C 
ATOM     33  C   UNL     1       5.903  -3.918   4.170  0.00  0.00    +0.160 C 
ATOM     34  O   UNL     1       5.625  -2.907   3.185  0.00  0.00    -0.375 OA
ENDBRANCH  29  30
ENDBRANCH   3  29
TORSDOF 7
