REMARK  Name = ZINC17885403
REMARK  12 active torsions:
REMARK  status: ('A' for Active; 'I' for Inactive)
REMARK    1  A    between atoms: C_1  and  C_2
REMARK    2  A    between atoms: C_5  and  N_9
REMARK    3  A    between atoms: C_7  and  C_8
REMARK    4  A    between atoms: C_11  and  C_15
REMARK    5  A    between atoms: C_12  and  C_14
REMARK    6  A    between atoms: C_15  and  C_17
REMARK    7  A    between atoms: C_15  and  C_24
REMARK    8  A    between atoms: C_21  and  O_23
REMARK    9  A    between atoms: C_26  and  C_39
REMARK   10  A    between atoms: N_28  and  C_31
REMARK   11  A    between atoms: C_34  and  C_38
REMARK   12  A    between atoms: C_35  and  C_37
REMARK                            x       y       z     vdW  Elec       q    Type
REMARK                         _______ _______ _______ _____ _____    ______ ____
ROOT
ATOM      1  C   UNL     1       0.093  -7.524  -1.554  0.00  0.00    +0.074 C 
ENDROOT
BRANCH   1   4
ATOM      2  N   UNL     1      -0.050  -4.288   0.211  0.00  0.00    -0.219 N 
ATOM      3  C   UNL     1      -0.004  -4.998  -0.935  0.00  0.00    +0.276 A 
ATOM      4  C   UNL     1       0.036  -6.369  -0.588  0.00  0.00    +0.047 A 
ATOM      5  C   UNL     1       0.013  -6.461   0.757  0.00  0.00    +0.039 A 
ATOM      6  N   UNL     1      -0.035  -5.199   1.276  0.00  0.00    -0.294 N 
ATOM      7  C   UNL     1       0.040  -7.741   1.553  0.00  0.00    +0.065 C 
ATOM      8  O   UNL     1       0.003  -4.541  -2.064  0.00  0.00    -0.266 OA
ATOM      9  H   UNL     1      -0.057  -4.971   2.219  0.00  0.00    +0.187 HD
BRANCH   2  14
ATOM     10  C   UNL     1      -0.249   1.364   0.642  0.00  0.00    +0.044 C 
ATOM     11  C   UNL     1      -0.196  -0.137   0.527  0.00  0.00    -0.047 A 
ATOM     12  C   UNL     1      -0.150  -0.733  -0.720  0.00  0.00    +0.006 A 
ATOM     13  C   UNL     1      -0.102  -2.109  -0.828  0.00  0.00    +0.028 A 
ATOM     14  C   UNL     1      -0.099  -2.894   0.317  0.00  0.00    +0.067 A 
ATOM     15  C   UNL     1      -0.144  -2.293   1.568  0.00  0.00    +0.031 A 
ATOM     16  C   UNL     1      -0.187  -0.916   1.670  0.00  0.00    -0.046 A 
ATOM     17  C   UNL     1      -0.231  -0.263   3.027  0.00  0.00    +0.044 C 
ENDBRANCH   2  14
ENDBRANCH   1   4
BRANCH   1  18
ATOM     18  C   UNL     1       1.259  -7.320  -2.524  0.00  0.00    +0.135 C 
ATOM     19  C   UNL     1       1.373  -8.494  -3.474  0.00  0.00    +0.047 C 
ATOM     20  N   UNL     1       2.516  -9.026  -3.280  0.00  0.00    -0.181 NA
ATOM     21  N   UNL     1       3.260  -8.380  -2.297  0.00  0.00    -0.160 N 
ATOM     22  C   UNL     1       2.581  -7.331  -1.780  0.00  0.00    +0.249 C 
ATOM     23  O   UNL     1       2.946  -6.565  -0.913  0.00  0.00    -0.273 OA
ATOM     24  C   UNL     1       0.331  -8.950  -4.462  0.00  0.00    +0.063 C 
BRANCH  21  25
ATOM     25  C   UNL     1       4.545  -8.765  -1.896  0.00  0.00    +0.060 A 
ATOM     26  C   UNL     1       5.204  -8.058  -0.898  0.00  0.00    +0.026 A 
ATOM     27  C   UNL     1       6.471  -8.440  -0.505  0.00  0.00    +0.005 A 
ATOM     28  C   UNL     1       7.085  -9.526  -1.103  0.00  0.00    -0.047 A 
ATOM     29  C   UNL     1       6.431 -10.232  -2.096  0.00  0.00    -0.046 A 
ATOM     30  C   UNL     1       5.161  -9.859  -2.490  0.00  0.00    +0.029 A 
ATOM     31  C   UNL     1       7.104 -11.415  -2.745  0.00  0.00    +0.044 C 
ATOM     32  C   UNL     1       8.468  -9.940  -0.672  0.00  0.00    +0.044 C 
ENDBRANCH  21  25
ENDBRANCH   1  18
BRANCH   1  33
ATOM     33  C   UNL     1      -1.198  -7.597  -2.328  0.00  0.00    -0.035 A 
ATOM     34  C   UNL     1      -1.497  -6.625  -3.264  0.00  0.00    +0.004 A 
ATOM     35  C   UNL     1      -2.681  -6.689  -3.976  0.00  0.00    +0.004 A 
ATOM     36  C   UNL     1      -3.568  -7.724  -3.752  0.00  0.00    +0.045 A 
ATOM     37  C   UNL     1      -3.269  -8.701  -2.813  0.00  0.00    +0.117 A 
ATOM     38  C   UNL     1      -2.078  -8.638  -2.104  0.00  0.00    +0.049 A 
BRANCH  37  39
ATOM     39  O   UNL     1      -4.140  -9.720  -2.591  0.00  0.00    -0.507 OA
ATOM     40  H   UNL     1      -3.991 -10.494  -3.152  0.00  0.00    +0.292 HD
ENDBRANCH  37  39
ENDBRANCH   1  33
TORSDOF 6
