REMARK  Name = ZINC12032723
REMARK  14 active torsions:
REMARK  status: ('A' for Active; 'I' for Inactive)
REMARK    1  A    between atoms: C_1  and  C_2
REMARK    2  A    between atoms: C_2  and  O_3
REMARK    3  A    between atoms: O_3  and  C_4
REMARK    4  A    between atoms: C_4  and  C_6
REMARK    5  A    between atoms: C_7  and  C_32
REMARK    6  A    between atoms: C_8  and  C_27
REMARK    7  A    between atoms: C_10  and  N_11
REMARK    8  A    between atoms: C_12  and  C_14
REMARK    9  A    between atoms: C_14  and  S_15
REMARK   10  A    between atoms: S_15  and  C_16
REMARK   11  A    between atoms: C_22  and  C_24
REMARK   12  A    between atoms: C_27  and  O_29
REMARK   13  A    between atoms: O_29  and  C_30
REMARK   14  A    between atoms: C_30  and  C_31
REMARK                            x       y       z     vdW  Elec       q    Type
REMARK                         _______ _______ _______ _____ _____    ______ ____
ROOT
ATOM      1  N   UNL     1      -1.462   6.597   0.050  0.00  0.00    -0.279 N 
ATOM      2  C   UNL     1      -0.317   5.886   0.035  0.00  0.00    +0.228 C 
ATOM      3  O   UNL     1       0.752   6.458   0.028  0.00  0.00    -0.275 OA
ATOM      4  H   UNL     1      -2.317   6.139   0.056  0.00  0.00    +0.155 HD
ENDROOT
BRANCH   1   9
ATOM      5  C   UNL     1      -2.483   8.884   0.071  0.00  0.00    +0.091 A 
ATOM      6  C   UNL     1      -2.179  10.236   0.075  0.00  0.00    -0.014 A 
ATOM      7  C   UNL     1      -0.857  10.591   0.064  0.00  0.00    +0.102 A 
ATOM      8  S   UNL     1      -0.027   9.013   0.055  0.00  0.00    -0.066 S 
ATOM      9  C   UNL     1      -1.417   7.977   0.056  0.00  0.00    +0.087 A 
ATOM     10  C   UNL     1      -3.266  11.280   0.090  0.00  0.00    +0.046 C 
BRANCH   5  11
ATOM     11  C   UNL     1      -3.875   8.419   0.081  0.00  0.00    +0.342 C 
ATOM     12  O   UNL     1      -4.442   8.221   1.138  0.00  0.00    -0.245 OA
BRANCH  11  13
ATOM     13  O   UNL     1      -4.524   8.211  -1.082  0.00  0.00    -0.461 OA
BRANCH  13  15
ATOM     14  C   UNL     1      -6.466   7.573  -2.406  0.00  0.00    +0.048 C 
ATOM     15  C   UNL     1      -5.899   7.751  -0.996  0.00  0.00    +0.229 C 
ENDBRANCH  13  15
ENDBRANCH  11  13
ENDBRANCH   5  11
BRANCH   7  16
ATOM     16  C   UNL     1      -0.270  11.931   0.066  0.00  0.00    +0.346 C 
ATOM     17  O   UNL     1      -0.992  12.911   0.079  0.00  0.00    -0.244 OA
BRANCH  16  18
ATOM     18  O   UNL     1       1.071  12.081   0.054  0.00  0.00    -0.461 OA
BRANCH  18  19
ATOM     19  C   UNL     1       1.574  13.418   0.057  0.00  0.00    +0.229 C 
ATOM     20  C   UNL     1       3.104  13.387   0.042  0.00  0.00    +0.048 C 
ENDBRANCH  18  19
ENDBRANCH  16  18
ENDBRANCH   7  16
ENDBRANCH   1   9
BRANCH   2  21
ATOM     21  C   UNL     1      -0.365   4.380   0.028  0.00  0.00    +0.172 C 
BRANCH  21  22
ATOM     22  S   UNL     1       1.324   3.720   0.009  0.00  0.00    -0.088 S 
BRANCH  22  23
ATOM     23  C   UNL     1       1.100   1.973   0.002  0.00  0.00    +0.160 A 
ATOM     24  N   UNL     1      -0.015   1.257   0.009  0.00  0.00    -0.133 NA
ATOM     25  N   UNL     1       0.002  -0.004   0.002  0.00  0.00    -0.125 NA
ATOM     26  C   UNL     1       1.133  -0.690  -0.013  0.00  0.00    +0.189 A 
ATOM     27  S   UNL     1       2.314   0.656  -0.017  0.00  0.00    -0.024 S 
ATOM     28  N   UNL     1       1.345  -2.066  -0.022  0.00  0.00    -0.263 N 
ATOM     29  C   UNL     1       0.294  -2.910  -0.016  0.00  0.00    +0.222 C 
ATOM     30  O   UNL     1      -0.836  -2.471  -0.002  0.00  0.00    -0.275 OA
ATOM     31  H   UNL     1       2.249  -2.418  -0.033  0.00  0.00    +0.157 HD
BRANCH  29  32
ATOM     32  C   UNL     1       0.524  -4.400  -0.026  0.00  0.00    +0.075 C 
ATOM     33  C   UNL     1       0.130  -5.167  -1.290  0.00  0.00    +0.013 C 
ATOM     34  C   UNL     1      -0.710  -5.305  -0.019  0.00  0.00    +0.013 C 
ENDBRANCH  29  32
ENDBRANCH  22  23
ENDBRANCH  21  22
ENDBRANCH   2  21
TORSDOF 11
