REMARK  Name = ZINC20243681
REMARK  11 active torsions:
REMARK  status: ('A' for Active; 'I' for Inactive)
REMARK    1  A    between atoms: C_1  and  C_2
REMARK    2  A    between atoms: C_6  and  N_8
REMARK    3  A    between atoms: C_9  and  C_32
REMARK    4  A    between atoms: C_10  and  C_15
REMARK    5  A    between atoms: C_12  and  C_13
REMARK    6  A    between atoms: N_16  and  N_17
REMARK    7  A    between atoms: C_18  and  C_20
REMARK    8  A    between atoms: C_20  and  S_21
REMARK    9  A    between atoms: S_21  and  C_22
REMARK   10  A    between atoms: C_22  and  C_23
REMARK   11  A    between atoms: C_26  and  N_29
REMARK                            x       y       z     vdW  Elec       q    Type
REMARK                         _______ _______ _______ _____ _____    ______ ____
ROOT
ATOM      1  C   UNL     1      -1.352  -5.062   4.880  0.00  0.00    +0.141 C 
ATOM      2  N   UNL     1      -0.872  -5.467   6.016  0.00  0.00    -0.188 NA
ENDROOT
BRANCH   1   5
ATOM      3  N   UNL     1       0.050  -2.798   2.395  0.00  0.00    -0.316 N 
ATOM      4  C   UNL     1      -0.945  -3.617   2.831  0.00  0.00    +0.031 A 
ATOM      5  C   UNL     1      -0.577  -4.129   4.042  0.00  0.00    +0.030 A 
ATOM      6  C   UNL     1       0.743  -3.566   4.344  0.00  0.00    +0.048 A 
ATOM      7  C   UNL     1       1.069  -2.774   3.305  0.00  0.00    +0.036 A 
ATOM      8  C   UNL     1       2.347  -1.986   3.171  0.00  0.00    +0.065 C 
ATOM      9 BR   UNL     1       1.787  -3.895   5.886  0.00  0.00    -0.048 Br
ATOM     10  C   UNL     1      -2.232  -3.908   2.103  0.00  0.00    +0.064 C 
BRANCH   3  16
ATOM     11  C   UNL     1      -0.018   1.503   0.010  0.00  0.00    +0.044 C 
ATOM     12  C   UNL     1       0.002  -0.004   0.002  0.00  0.00    -0.048 A 
ATOM     13  C   UNL     1       0.006  -0.688  -1.200  0.00  0.00    +0.003 A 
ATOM     14  C   UNL     1       0.024  -2.071  -1.212  0.00  0.00    +0.002 A 
ATOM     15  C   UNL     1       0.039  -2.773  -0.022  0.00  0.00    +0.026 A 
ATOM     16  C   UNL     1       0.035  -2.089   1.186  0.00  0.00    +0.047 A 
ATOM     17  C   UNL     1       0.023  -0.700   1.194  0.00  0.00    +0.029 A 
ENDBRANCH   3  16
ENDBRANCH   1   5
BRANCH   2  18
ATOM     18  N   UNL     1      -1.609  -6.353   6.812  0.00  0.00    -0.206 N 
ATOM     19  C   UNL     1      -1.110  -6.773   7.992  0.00  0.00    +0.242 C 
ATOM     20  O   UNL     1      -0.023  -6.384   8.364  0.00  0.00    -0.273 OA
ATOM     21  H   UNL     1      -2.478  -6.664   6.515  0.00  0.00    +0.177 HD
BRANCH  19  22
ATOM     22  C   UNL     1      -1.903  -7.727   8.848  0.00  0.00    +0.166 C 
BRANCH  22  23
ATOM     23  S   UNL     1      -0.971  -8.100  10.359  0.00  0.00    -0.147 S 
BRANCH  23  24
ATOM     24  C   UNL     1      -2.047  -9.244  11.267  0.00  0.00    +0.104 C 
BRANCH  24  25
ATOM     25  C   UNL     1      -1.383  -9.639  12.561  0.00  0.00    -0.037 A 
ATOM     26  C   UNL     1      -0.553 -10.743  12.603  0.00  0.00    +0.006 A 
ATOM     27  C   UNL     1       0.056 -11.106  13.789  0.00  0.00    +0.033 A 
ATOM     28  C   UNL     1      -0.163 -10.363  14.934  0.00  0.00    +0.126 A 
ATOM     29  C   UNL     1      -0.992  -9.257  14.892  0.00  0.00    +0.033 A 
ATOM     30  C   UNL     1      -1.599  -8.893  13.705  0.00  0.00    +0.006 A 
BRANCH  28  31
ATOM     31  N   UNL     1       0.488 -10.751  16.205  0.00  0.00    +0.056 N 
ATOM     32  O   UNL     1       1.213 -11.718  16.242  0.00  0.00    -0.126 OA
ATOM     33  O   UNL     1       0.296 -10.101  17.206  0.00  0.00    -0.126 OA
ENDBRANCH  28  31
ENDBRANCH  24  25
ENDBRANCH  23  24
ENDBRANCH  22  23
ENDBRANCH  19  22
ENDBRANCH   2  18
TORSDOF 8
