REMARK  Name = ZINC04364264
REMARK  7 active torsions:
REMARK  status: ('A' for Active; 'I' for Inactive)
REMARK    1  A    between atoms: C_4  and  S_7
REMARK    2  A    between atoms: S_7  and  C_8
REMARK    3  A    between atoms: C_11  and  N_21
REMARK    4  A    between atoms: C_12  and  S_14
REMARK    5  A    between atoms: S_14  and  C_15
REMARK    6  A    between atoms: C_22  and  C_23
REMARK    7  A    between atoms: C_28  and  O_29
REMARK                            x       y       z     vdW  Elec       q    Type
REMARK                         _______ _______ _______ _____ _____    ______ ____
ROOT
ATOM      1  C   UNL     1       3.392  -2.453   0.146  0.00  0.00    +0.103 A 
ATOM      2  C   UNL     1       4.254  -3.546   0.176  0.00  0.00    +0.037 A 
ATOM      3  C   UNL     1       3.731  -4.824   0.163  0.00  0.00    +0.033 A 
ATOM      4  C   UNL     1       2.339  -4.976   0.121  0.00  0.00    +0.096 A 
ATOM      5  C   UNL     1       1.531  -3.827   0.094  0.00  0.00    +0.128 A 
ATOM      6  N   UNL     1       2.077  -2.621   0.112  0.00  0.00    -0.231 NA
ENDROOT
BRANCH   4   7
ATOM      7  N   UNL     1       1.776  -6.221   0.107  0.00  0.00    -0.252 NA
ATOM      8  C   UNL     1       2.197  -7.136   0.935  0.00  0.00    +0.123 C 
BRANCH   8   9
ATOM      9  C   UNL     1       1.672  -8.506   0.845  0.00  0.00    +0.034 A 
ATOM     10  C   UNL     1       2.116  -9.490   1.734  0.00  0.00    +0.013 A 
ATOM     11  C   UNL     1       1.619 -10.772   1.645  0.00  0.00    +0.001 A 
ATOM     12  C   UNL     1       0.680 -11.092   0.677  0.00  0.00    +0.004 A 
ATOM     13  C   UNL     1       0.233 -10.130  -0.208  0.00  0.00    +0.046 A 
ATOM     14  C   UNL     1       0.717  -8.834  -0.129  0.00  0.00    +0.125 A 
BRANCH  14  15
ATOM     15  O   UNL     1       0.273  -7.886  -0.995  0.00  0.00    -0.506 OA
ATOM     16  H   UNL     1       0.792  -7.824  -1.808  0.00  0.00    +0.292 HD
ENDBRANCH  14  15
ENDBRANCH   8   9
ENDBRANCH   4   7
BRANCH   1  17
ATOM     17  S   UNL     1       4.058  -0.822   0.162  0.00  0.00    -0.070 S 
BRANCH  17  21
ATOM     18  C   UNL     1       2.287   1.120  -3.526  0.00  0.00    +0.000 A 
ATOM     19  C   UNL     1       3.030   1.876  -2.638  0.00  0.00    +0.001 A 
ATOM     20  C   UNL     1       3.571   1.287  -1.512  0.00  0.00    +0.015 A 
ATOM     21  C   UNL     1       3.368  -0.067  -1.273  0.00  0.00    +0.014 A 
ATOM     22  C   UNL     1       2.621  -0.823  -2.167  0.00  0.00    +0.015 A 
ATOM     23  C   UNL     1       2.083  -0.227  -3.291  0.00  0.00    +0.001 A 
ENDBRANCH  17  21
ENDBRANCH   1  17
BRANCH   5  24
ATOM     24  S   UNL     1      -0.223  -3.992   0.040  0.00  0.00    -0.068 S 
BRANCH  24  25
ATOM     25  C   UNL     1      -0.755  -3.400   1.612  0.00  0.00    +0.014 A 
ATOM     26  C   UNL     1       0.166  -2.856   2.499  0.00  0.00    +0.015 A 
ATOM     27  C   UNL     1      -0.255  -2.393   3.731  0.00  0.00    +0.001 A 
ATOM     28  C   UNL     1      -1.590  -2.471   4.081  0.00  0.00    +0.000 A 
ATOM     29  C   UNL     1      -2.509  -3.012   3.201  0.00  0.00    +0.001 A 
ATOM     30  C   UNL     1      -2.097  -3.471   1.965  0.00  0.00    +0.015 A 
ENDBRANCH  24  25
ENDBRANCH   5  24
TORSDOF 7
