REMARK  Name = ZINC08845162
REMARK  8 active torsions:
REMARK  status: ('A' for Active; 'I' for Inactive)
REMARK    1  A    between atoms: C_1  and  C_2
REMARK    2  A    between atoms: C_4  and  C_35
REMARK    3  A    between atoms: C_5  and  O_34
REMARK    4  A    between atoms: C_6  and  C_8
REMARK    5  A    between atoms: N_16  and  C_26
REMARK    6  A    between atoms: C_17  and  C_19
REMARK    7  A    between atoms: C_23  and  O_25
REMARK    8  A    between atoms: C_26  and  C_27
REMARK                            x       y       z     vdW  Elec       q    Type
REMARK                         _______ _______ _______ _____ _____    ______ ____
ROOT
ATOM      1  C   UNL     1      -0.124  -3.069   2.652  0.00  0.00    +0.075 A 
ATOM      2  C   UNL     1       1.000  -3.678   3.110  0.00  0.00    +0.035 A 
ATOM      3  C   UNL     1       0.665  -4.212   4.375  0.00  0.00    +0.153 A 
ATOM      4  N   UNL     1      -0.597  -3.904   4.599  0.00  0.00    -0.168 NA
ATOM      5  N   UNL     1      -1.079  -3.233   3.614  0.00  0.00    -0.276 N 
ATOM      6  H   UNL     1      -1.987  -2.896   3.562  0.00  0.00    +0.189 HD
ATOM      7  C   UNL     1       1.861  -4.886   4.912  0.00  0.00    +0.268 C 
ATOM      8  O   UNL     1       1.913  -5.452   5.987  0.00  0.00    -0.268 OA
ATOM      9  N   UNL     1       2.884  -4.787   4.047  0.00  0.00    -0.281 N 
ATOM     10  C   UNL     1       2.440  -4.037   2.867  0.00  0.00    +0.142 C 
ENDROOT
BRANCH   1  16
ATOM     11  C   UNL     1      -2.221  -2.734  -1.863  0.00  0.00    +0.044 C 
ATOM     12  C   UNL     1      -1.288  -2.193  -0.811  0.00  0.00    -0.049 A 
ATOM     13  C   UNL     1      -0.578  -1.030  -1.052  0.00  0.00    +0.010 A 
ATOM     14  C   UNL     1       0.281  -0.525  -0.093  0.00  0.00    -0.008 A 
ATOM     15  C   UNL     1       0.435  -1.183   1.116  0.00  0.00    +0.129 A 
ATOM     16  C   UNL     1      -0.282  -2.359   1.363  0.00  0.00    +0.042 A 
ATOM     17  C   UNL     1      -1.150  -2.856   0.391  0.00  0.00    +0.017 A 
ATOM     18  C   UNL     1       1.050   0.742  -0.365  0.00  0.00    +0.047 C 
BRANCH  15  19
ATOM     19  O   UNL     1       1.278  -0.688   2.059  0.00  0.00    -0.506 OA
ATOM     20  H   UNL     1       0.875  -0.028   2.640  0.00  0.00    +0.292 HD
ENDBRANCH  15  19
ENDBRANCH   1  16
BRANCH  10  21
ATOM     21  C   UNL     1       2.559  -4.894   1.633  0.00  0.00    -0.019 A 
ATOM     22  C   UNL     1       2.039  -6.176   1.630  0.00  0.00    +0.006 A 
ATOM     23  C   UNL     1       2.147  -6.965   0.500  0.00  0.00    +0.004 A 
ATOM     24  C   UNL     1       2.775  -6.475  -0.629  0.00  0.00    +0.045 A 
ATOM     25  C   UNL     1       3.297  -5.190  -0.628  0.00  0.00    +0.117 A 
ATOM     26  C   UNL     1       3.183  -4.398   0.505  0.00  0.00    +0.051 A 
BRANCH  25  27
ATOM     27  O   UNL     1       3.915  -4.706  -1.738  0.00  0.00    -0.507 OA
ATOM     28  H   UNL     1       3.322  -4.252  -2.352  0.00  0.00    +0.292 HD
ENDBRANCH  25  27
ENDBRANCH  10  21
BRANCH   9  29
ATOM     29  C   UNL     1       4.226  -5.338   4.250  0.00  0.00    +0.144 C 
BRANCH  29  30
ATOM     30  C   UNL     1       4.282  -6.740   3.701  0.00  0.00    -0.030 A 
ATOM     31  C   UNL     1       3.964  -7.813   4.513  0.00  0.00    +0.008 A 
ATOM     32  C   UNL     1       4.014  -9.099   4.011  0.00  0.00    +0.038 A 
ATOM     33  C   UNL     1       4.383  -9.313   2.694  0.00  0.00    +0.123 A 
ATOM     34  C   UNL     1       4.701  -8.238   1.881  0.00  0.00    +0.038 A 
ATOM     35  C   UNL     1       4.645  -6.952   2.384  0.00  0.00    +0.008 A 
ATOM     36  F   UNL     1       4.432 -10.571   2.201  0.00  0.00    -0.205 F 
ENDBRANCH  29  30
ENDBRANCH   9  29
TORSDOF 6
