REMARK  Name = ZINC04558101
REMARK  4 active torsions:
REMARK  status: ('A' for Active; 'I' for Inactive)
REMARK    1  A    between atoms: C_1  and  C_2
REMARK    2  A    between atoms: C_3  and  C_22
REMARK    3  A    between atoms: C_10  and  C_20
REMARK    4  A    between atoms: N_24  and  C_25
REMARK                            x       y       z     vdW  Elec       q    Type
REMARK                         _______ _______ _______ _____ _____    ______ ____
ROOT
ATOM      1  C   UNL     1       0.498   5.169  -1.128  0.00  0.00    +0.062 C 
ATOM      2  C   UNL     1       0.444   3.789  -0.525  0.00  0.00    +0.022 C 
ATOM      3  C   UNL     1       1.396   3.448   0.353  0.00  0.00    +0.043 C 
ATOM      4  C   UNL     1       1.361   2.068   0.969  0.00  0.00    +0.039 C 
ATOM      5  C   UNL     1       2.669   1.365   0.632  0.00  0.00    +0.017 C 
ATOM      6  C   UNL     1       2.689  -0.025   1.273  0.00  0.00    +0.001 C 
ATOM      7  C   UNL     1       2.581   0.116   2.793  0.00  0.00    +0.000 C 
ATOM      8  C   UNL     1       1.284   0.847   3.146  0.00  0.00    +0.001 C 
ATOM      9  C   UNL     1       1.281   2.225   2.482  0.00  0.00    +0.017 C 
ATOM     10  C   UNL     1       0.222   1.171   0.532  0.00  0.00    +0.068 C 
ATOM     11  C   UNL     1      -0.663   1.680  -0.383  0.00  0.00    +0.091 C 
ATOM     12  N   UNL     1      -0.590   2.947  -0.913  0.00  0.00    -0.269 N 
ATOM     13  C   UNL     1      -1.582   3.306  -1.833  0.00  0.00    +0.026 C 
ATOM     14  C   UNL     1      -2.531   2.417  -2.134  0.00  0.00    +0.009 C 
ATOM     15  S   UNL     1      -2.116   0.999  -1.152  0.00  0.00    -0.075 S 
ATOM     16  C   UNL     1      -3.679   2.579  -3.079  0.00  0.00    +0.044 C 
ATOM     17  C   UNL     1      -3.831   4.072  -3.404  0.00  0.00    +0.006 C 
ATOM     18  C   UNL     1      -2.449   4.641  -3.743  0.00  0.00    +0.006 C 
ATOM     19  C   UNL     1      -1.583   4.688  -2.484  0.00  0.00    +0.052 C 
ENDROOT
BRANCH   3  20
ATOM     20  C   UNL     1       2.420   4.364   0.699  0.00  0.00    +0.247 C 
ATOM     21  O   UNL     1       3.508   4.294   0.157  0.00  0.00    -0.270 OA
ATOM     22  N   UNL     1       2.189   5.314   1.627  0.00  0.00    -0.282 N 
ATOM     23  H   UNL     1       1.354   5.317   2.120  0.00  0.00    +0.155 HD
BRANCH  22  24
ATOM     24  C   UNL     1       3.153   6.295   1.878  0.00  0.00    +0.034 A 
ATOM     25  C   UNL     1       3.969   6.748   0.850  0.00  0.00    +0.023 A 
ATOM     26  C   UNL     1       4.917   7.721   1.101  0.00  0.00    +0.002 A 
ATOM     27  C   UNL     1       5.062   8.235   2.376  0.00  0.00    +0.000 A 
ATOM     28  C   UNL     1       4.254   7.782   3.403  0.00  0.00    +0.002 A 
ATOM     29  C   UNL     1       3.300   6.814   3.158  0.00  0.00    +0.023 A 
ENDBRANCH  22  24
ENDBRANCH   3  20
BRANCH  10  30
ATOM     30  C   UNL     1       0.080  -0.158   1.049  0.00  0.00    +0.098 C 
ATOM     31  N   UNL     1      -0.034  -1.211   1.459  0.00  0.00    -0.191 NA
ENDBRANCH  10  30
TORSDOF 3
