REMARK  Name = ZINC63281783
REMARK  8 active torsions:
REMARK  status: ('A' for Active; 'I' for Inactive)
REMARK    1  A    between atoms: C_7  and  C_13
REMARK    2  A    between atoms: C_13  and  C_14
REMARK    3  A    between atoms: N_16  and  C_17
REMARK    4  A    between atoms: C_17  and  C_18
REMARK    5  A    between atoms: C_18  and  C_19
REMARK    6  A    between atoms: N_21  and  C_22
REMARK    7  A    between atoms: C_22  and  C_23
REMARK    8  A    between atoms: C_23  and  C_24
REMARK                            x       y       z     vdW  Elec       q    Type
REMARK                         _______ _______ _______ _____ _____    ______ ____
ROOT
ATOM      1  C   UNL     1      -0.107  -6.332  -2.206  0.00  0.00    +0.113 C 
ENDROOT
BRANCH   1   4
ATOM      2  C   UNL     1       0.529  -4.191  -1.233  0.00  0.00    +0.215 C 
ATOM      3  O   UNL     1       1.058  -4.794  -0.324  0.00  0.00    -0.276 OA
ATOM      4  N   UNL     1      -0.081  -4.868  -2.226  0.00  0.00    -0.315 N 
ATOM      5  H   UNL     1      -0.504  -4.385  -2.953  0.00  0.00    +0.149 HD
BRANCH   2   6
ATOM      6  C   UNL     1       0.556  -2.684  -1.254  0.00  0.00    +0.126 C 
BRANCH   6  13
ATOM      7  C   UNL     1      -0.017   1.383   0.010  0.00  0.00    +0.000 A 
ATOM      8  C   UNL     1       1.167   2.100   0.002  0.00  0.00    +0.001 A 
ATOM      9  C   UNL     1       2.383   1.445  -0.013  0.00  0.00    +0.013 A 
ATOM     10  C   UNL     1       2.409   0.053  -0.021  0.00  0.00    +0.045 A 
ATOM     11  C   UNL     1       1.203  -0.664  -0.013  0.00  0.00    -0.011 A 
ATOM     12  C   UNL     1       0.002  -0.004   0.002  0.00  0.00    +0.006 A 
ATOM     13  C   UNL     1       1.305  -2.171  -0.022  0.00  0.00    +0.136 C 
ATOM     14  N   UNL     1       2.654  -2.755  -0.039  0.00  0.00    -0.306 N 
ATOM     15  N   UNL     1       3.664  -2.052  -0.046  0.00  0.00    -0.105 NA
ATOM     16  C   UNL     1       3.670  -0.711  -0.038  0.00  0.00    +0.283 C 
ATOM     17  O   UNL     1       4.729  -0.116  -0.045  0.00  0.00    -0.267 OA
ATOM     18  H   UNL     1       2.750  -3.720  -0.046  0.00  0.00    +0.181 HD
ENDBRANCH   6  13
ENDBRANCH   2   6
ENDBRANCH   1   4
BRANCH   1  19
ATOM     19  C   UNL     1      -0.856  -6.846  -3.437  0.00  0.00    +0.114 C 
BRANCH  19  20
ATOM     20  C   UNL     1      -0.883  -8.352  -3.417  0.00  0.00    +0.215 C 
ATOM     21  O   UNL     1      -0.354  -8.956  -2.507  0.00  0.00    -0.276 OA
ATOM     22  N   UNL     1      -1.494  -9.029  -4.409  0.00  0.00    -0.315 N 
ATOM     23  H   UNL     1      -1.916  -8.547  -5.137  0.00  0.00    +0.149 HD
BRANCH  22  24
ATOM     24  C   UNL     1      -1.519 -10.494  -4.389  0.00  0.00    +0.108 C 
BRANCH  24  25
ATOM     25  C   UNL     1      -2.268 -11.008  -5.621  0.00  0.00    +0.052 C 
BRANCH  25  26
ATOM     26  C   UNL     1      -2.295 -12.514  -5.600  0.00  0.00    -0.040 C 
ATOM     27  C   UNL     1      -3.284 -13.304  -5.123  0.00  0.00    -0.001 A 
ATOM     28  C   UNL     1      -4.580 -13.008  -4.502  0.00  0.00    +0.010 A 
ATOM     29  C   UNL     1      -5.373 -14.034  -4.117  0.00  0.00    +0.001 A 
ATOM     30  C   UNL     1      -4.987 -15.370  -4.294  0.00  0.00    +0.002 A 
ATOM     31  C   UNL     1      -3.812 -15.721  -4.857  0.00  0.00    +0.026 A 
ATOM     32  C   UNL     1      -2.900 -14.723  -5.300  0.00  0.00    +0.043 A 
ATOM     33  N   UNL     1      -1.720 -14.807  -5.864  0.00  0.00    -0.380 N 
ATOM     34  C   UNL     1      -1.224 -13.450  -6.116  0.00  0.00    +0.144 C 
ATOM     35  H   UNL     1      -1.255 -15.630  -6.083  0.00  0.00    +0.160 HD
ENDBRANCH  25  26
ENDBRANCH  24  25
ENDBRANCH  22  24
ENDBRANCH  19  20
ENDBRANCH   1  19
TORSDOF 8
