REMARK  Name = ZINC18976157
REMARK  12 active torsions:
REMARK  status: ('A' for Active; 'I' for Inactive)
REMARK    1  A    between atoms: C_1  and  C_2
REMARK    2  A    between atoms: C_7  and  C_8
REMARK    3  A    between atoms: C_11  and  S_14
REMARK    4  A    between atoms: N_12  and  C_13
REMARK    5  A    between atoms: S_14  and  C_15
REMARK    6  A    between atoms: C_15  and  C_16
REMARK    7  A    between atoms: N_18  and  C_19
REMARK    8  A    between atoms: C_20  and  C_28
REMARK    9  A    between atoms: N_30  and  C_31
REMARK   10  A    between atoms: C_31  and  C_32
REMARK   11  A    between atoms: C_32  and  O_33
REMARK   12  A    between atoms: O_33  and  C_34
REMARK                            x       y       z     vdW  Elec       q    Type
REMARK                         _______ _______ _______ _____ _____    ______ ____
ROOT
ATOM      1  C   UNL     1       2.093  -8.250  -1.039  0.00  0.00    +0.228 C 
ATOM      2  O   UNL     1       3.284  -8.360  -1.240  0.00  0.00    -0.275 OA
ATOM      3  N   UNL     1       1.295  -9.334  -1.111  0.00  0.00    -0.279 N 
ATOM      4  H   UNL     1       0.342  -9.246  -0.950  0.00  0.00    +0.155 HD
ENDROOT
BRANCH   3   5
ATOM      5  C   UNL     1       1.835 -10.574  -1.415  0.00  0.00    +0.084 A 
ATOM      6  C   UNL     1       1.183 -11.794  -1.528  0.00  0.00    +0.069 A 
ATOM      7  C   UNL     1       1.987 -12.956  -1.864  0.00  0.00    -0.023 A 
ATOM      8  C   UNL     1       3.307 -12.716  -2.023  0.00  0.00    -0.004 A 
ATOM      9  S   UNL     1       3.488 -10.978  -1.740  0.00  0.00    -0.077 S 
ATOM     10  C   UNL     1       4.372 -13.713  -2.362  0.00  0.00    +0.043 C 
ATOM     11  C   UNL     1       3.804 -15.123  -2.139  0.00  0.00    +0.005 C 
ATOM     12  C   UNL     1       2.428 -15.211  -2.804  0.00  0.00    +0.005 C 
ATOM     13  C   UNL     1       1.419 -14.361  -2.029  0.00  0.00    +0.037 C 
BRANCH   6  14
ATOM     14  C   UNL     1      -0.264 -11.905  -1.321  0.00  0.00    +0.247 C 
ATOM     15  O   UNL     1      -1.026 -11.770  -2.260  0.00  0.00    -0.270 OA
ATOM     16  N   UNL     1      -0.751 -12.156  -0.089  0.00  0.00    -0.309 N 
ATOM     17  H   UNL     1      -0.144 -12.263   0.660  0.00  0.00    +0.149 HD
BRANCH  16  18
ATOM     18  C   UNL     1      -2.197 -12.267   0.119  0.00  0.00    +0.132 C 
BRANCH  18  19
ATOM     19  C   UNL     1      -2.480 -12.553   1.595  0.00  0.00    +0.178 C 
BRANCH  19  20
ATOM     20  O   UNL     1      -2.069 -11.434   2.384  0.00  0.00    -0.381 OA
ATOM     21  C   UNL     1      -2.291 -11.600   3.786  0.00  0.00    +0.194 C 
ENDBRANCH  19  20
ENDBRANCH  18  19
ENDBRANCH  16  18
ENDBRANCH   6  14
ENDBRANCH   3   5
BRANCH   1  22
ATOM     22  C   UNL     1       1.506  -6.902  -0.708  0.00  0.00    +0.173 C 
BRANCH  22  23
ATOM     23  S   UNL     1       2.823  -5.660  -0.686  0.00  0.00    -0.077 S 
BRANCH  23  27
ATOM     24  C   UNL     1       1.274  -2.178   0.174  0.00  0.00    +0.165 A 
ATOM     25  N   UNL     1       0.229  -2.972   0.197  0.00  0.00    -0.128 NA
ATOM     26  N   UNL     1       0.586  -4.175  -0.079  0.00  0.00    -0.122 NA
ATOM     27  C   UNL     1       1.883  -4.225  -0.286  0.00  0.00    +0.192 A 
ATOM     28  N   UNL     1       2.366  -2.957  -0.132  0.00  0.00    -0.305 N 
ATOM     29  C   UNL     1       3.757  -2.517  -0.266  0.00  0.00    +0.153 C 
BRANCH  24  36
ATOM     30  C   UNL     1      -0.077  -1.139   2.512  0.00  0.00    +0.044 C 
ATOM     31  C   UNL     1       0.629  -0.210   1.559  0.00  0.00    -0.040 A 
ATOM     32  C   UNL     1       0.637   1.149   1.796  0.00  0.00    +0.004 A 
ATOM     33  C   UNL     1       1.285   2.003   0.922  0.00  0.00    +0.000 A 
ATOM     34  C   UNL     1       1.930   1.502  -0.196  0.00  0.00    +0.001 A 
ATOM     35  C   UNL     1       1.929   0.145  -0.444  0.00  0.00    +0.012 A 
ATOM     36  C   UNL     1       1.277  -0.723   0.434  0.00  0.00    +0.022 A 
ENDBRANCH  24  36
ENDBRANCH  23  27
ENDBRANCH  22  23
ENDBRANCH   1  22
TORSDOF 9
