REMARK  Name = ZINC64428649
REMARK  7 active torsions:
REMARK  status: ('A' for Active; 'I' for Inactive)
REMARK    1  A    between atoms: C_7  and  C_10
REMARK    2  A    between atoms: C_10  and  C_11
REMARK    3  A    between atoms: C_11  and  C_13
REMARK    4  A    between atoms: C_11  and  N_30
REMARK    5  A    between atoms: C_17  and  S_20
REMARK    6  A    between atoms: S_20  and  C_21
REMARK    7  A    between atoms: C_21  and  C_22
REMARK                            x       y       z     vdW  Elec       q    Type
REMARK                         _______ _______ _______ _____ _____    ______ ____
ROOT
ATOM      1  C   UNL     1       0.457  -3.653  -1.462  0.00  0.00    -0.017 C 
ENDROOT
BRANCH   1   2
ATOM      2  C   UNL     1      -0.398  -4.923  -1.452  0.00  0.00    +0.246 C 
ATOM      3  N   UNL     1       0.311  -6.008  -0.763  0.00  0.00    -0.159 NA
ATOM      4  N   UNL     1       0.210  -7.060  -1.408  0.00  0.00    -0.146 NA
ATOM      5  C   UNL     1      -0.581  -6.831  -2.624  0.00  0.00    +0.319 C 
ATOM      6  O   UNL     1      -0.603  -5.398  -2.799  0.00  0.00    -0.320 OA
BRANCH   5   7
ATOM      7  S   UNL     1       0.209  -7.630  -4.048  0.00  0.00    -0.100 S 
BRANCH   7   8
ATOM      8  C   UNL     1       1.855  -6.872  -4.120  0.00  0.00    +0.111 C 
BRANCH   8   9
ATOM      9  C   UNL     1       2.627  -7.455  -5.275  0.00  0.00    -0.001 A 
ATOM     10  C   UNL     1       3.404  -8.584  -5.089  0.00  0.00    +0.046 A 
ATOM     11  C   UNL     1       4.112  -9.119  -6.150  0.00  0.00    +0.020 A 
ATOM     12  C   UNL     1       4.045  -8.525  -7.396  0.00  0.00    +0.003 A 
ATOM     13  C   UNL     1       3.269  -7.397  -7.583  0.00  0.00    +0.020 A 
ATOM     14  C   UNL     1       2.555  -6.865  -6.524  0.00  0.00    +0.046 A 
ATOM     15 CL   UNL     1       1.574  -5.452  -6.761  0.00  0.00    -0.083 Cl
ATOM     16 CL   UNL     1       3.490  -9.330  -3.523  0.00  0.00    -0.083 Cl
ENDBRANCH   8   9
ENDBRANCH   7   8
ENDBRANCH   5   7
ENDBRANCH   1   2
BRANCH   1  17
ATOM     17  N   UNL     1      -0.240  -2.600  -2.212  0.00  0.00    +0.383 N 
ATOM     18  H   UNL     1      -1.127  -2.405  -1.773  0.00  0.00    -0.089 HD
ATOM     19  H   UNL     1       0.323  -1.763  -2.218  0.00  0.00    -0.089 HD
ATOM     20  H   UNL     1      -0.394  -2.909  -3.160  0.00  0.00    -0.089 HD
ENDBRANCH   1  17
BRANCH   1  21
ATOM     21  C   UNL     1       0.691  -3.186  -0.024  0.00  0.00    +0.021 C 
BRANCH  21  28
ATOM     22  C   UNL     1      -0.016   1.348   0.009  0.00  0.00    +0.001 A 
ATOM     23  C   UNL     1       1.166   2.101   0.002  0.00  0.00    +0.002 A 
ATOM     24  C   UNL     1       2.391   1.535  -0.013  0.00  0.00    +0.026 A 
ATOM     25  C   UNL     1       2.529   0.120  -0.022  0.00  0.00    +0.043 A 
ATOM     26  N   UNL     1       3.587  -0.654  -0.037  0.00  0.00    -0.380 N 
ATOM     27  C   UNL     1       3.143  -2.053  -0.041  0.00  0.00    +0.144 C 
ATOM     28  C   UNL     1       1.631  -2.008  -0.025  0.00  0.00    -0.043 C 
ATOM     29  C   UNL     1       1.295  -0.698  -0.014  0.00  0.00    -0.001 A 
ATOM     30  C   UNL     1       0.002  -0.004   0.002  0.00  0.00    +0.010 A 
ATOM     31  H   UNL     1       4.509  -0.353  -0.045  0.00  0.00    +0.160 HD
ENDBRANCH  21  28
ENDBRANCH   1  21
TORSDOF 7
