REMARK  Name = ZINC67460206
REMARK  10 active torsions:
REMARK  status: ('A' for Active; 'I' for Inactive)
REMARK    1  A    between atoms: C_1  and  O_2
REMARK    2  A    between atoms: O_2  and  C_3
REMARK    3  A    between atoms: C_7  and  C_9
REMARK    4  A    between atoms: C_9  and  N_10
REMARK    5  A    between atoms: C_14  and  C_17
REMARK    6  A    between atoms: C_14  and  O_27
REMARK    7  A    between atoms: C_17  and  N_18
REMARK    8  A    between atoms: N_18  and  C_19
REMARK    9  A    between atoms: C_19  and  C_20
REMARK   10  A    between atoms: C_20  and  N_21
REMARK                            x       y       z     vdW  Elec       q    Type
REMARK                         _______ _______ _______ _____ _____    ______ ____
ROOT
ATOM      1  N   UNL     1       0.464  -4.127  -3.530  0.00  0.00    -0.295 N 
ATOM      2  C   UNL     1      -0.919  -4.230  -3.080  0.00  0.00    +0.108 C 
ATOM      3  C   UNL     1      -1.866  -4.312  -4.278  0.00  0.00    +0.022 C 
ATOM      4  C   UNL     1      -1.366  -5.410  -5.225  0.00  0.00    +0.044 C 
ATOM      5  C   UNL     1      -0.037  -4.955  -5.834  0.00  0.00    +0.127 C 
ATOM      6  C   UNL     1       0.880  -4.462  -4.752  0.00  0.00    +0.246 C 
ATOM      7  O   UNL     1       2.063  -4.367  -5.002  0.00  0.00    -0.273 OA
ENDROOT
BRANCH   5   8
ATOM      8  O   UNL     1      -0.279  -3.897  -6.764  0.00  0.00    -0.381 OA
ATOM      9  H   UNL     1      -0.696  -3.117  -6.373  0.00  0.00    +0.211 HD
ENDBRANCH   5   8
BRANCH   1  10
ATOM     10  C   UNL     1       1.458  -3.618  -2.582  0.00  0.00    +0.146 C 
BRANCH  10  15
ATOM     11  C   UNL     1       1.065   0.069  -1.851  0.00  0.00    +0.121 A 
ATOM     12  C   UNL     1       1.717   0.636  -2.936  0.00  0.00    +0.048 A 
ATOM     13  C   UNL     1       2.283  -0.174  -3.902  0.00  0.00    +0.042 A 
ATOM     14  C   UNL     1       2.199  -1.552  -3.787  0.00  0.00    +0.128 A 
ATOM     15  C   UNL     1       1.549  -2.119  -2.705  0.00  0.00    +0.008 A 
ATOM     16  C   UNL     1       0.988  -1.311  -1.734  0.00  0.00    +0.053 A 
ATOM     17  F   UNL     1       2.753  -2.342  -4.732  0.00  0.00    -0.205 F 
BRANCH  11  19
ATOM     18  C   UNL     1       0.627   2.276  -1.085  0.00  0.00    +0.277 C 
ATOM     19  O   UNL     1       0.508   0.864  -0.900  0.00  0.00    -0.495 OA
ENDBRANCH  11  19
ENDBRANCH  10  15
ENDBRANCH   1  10
BRANCH   5  20
ATOM     20  C   UNL     1       0.617  -6.130  -6.563  0.00  0.00    -0.038 C 
BRANCH  20  21
ATOM     21  N   UNL     1      -0.293  -6.629  -7.602  0.00  0.00    +0.382 N 
ATOM     22  H   UNL     1      -1.120  -7.013  -7.170  0.00  0.00    -0.086 HD
ATOM     23  H   UNL     1      -0.555  -5.870  -8.213  0.00  0.00    -0.086 HD
BRANCH  21  24
ATOM     24  C   UNL     1       0.382  -7.675  -8.383  0.00  0.00    -0.063 C 
BRANCH  24  25
ATOM     25  C   UNL     1      -0.566  -8.194  -9.466  0.00  0.00    +0.090 C 
BRANCH  25  26
ATOM     26  N   UNL     1       0.107  -9.237 -10.244  0.00  0.00    -0.286 N 
ATOM     27  C   UNL     1       0.914  -9.011 -11.453  0.00  0.00    +0.128 C 
ATOM     28  C   UNL     1       1.376 -10.424 -11.858  0.00  0.00    +0.124 C 
ATOM     29  N   UNL     1       0.780 -11.296 -10.835  0.00  0.00    -0.298 N 
ATOM     30  C   UNL     1       0.090 -10.547  -9.965  0.00  0.00    +0.302 C 
ATOM     31  O   UNL     1      -0.502 -11.014  -9.012  0.00  0.00    -0.253 OA
ATOM     32  H   UNL     1       0.876 -12.261 -10.793  0.00  0.00    +0.150 HD
ENDBRANCH  25  26
ENDBRANCH  24  25
ENDBRANCH  21  24
ENDBRANCH  20  21
ENDBRANCH   5  20
TORSDOF 9
