REMARK  Name = ZINC08789120
REMARK  11 active torsions:
REMARK  status: ('A' for Active; 'I' for Inactive)
REMARK    1  A    between atoms: C_1  and  C_2
REMARK    2  A    between atoms: C_8  and  C_9
REMARK    3  A    between atoms: C_8  and  N_61
REMARK    4  A    between atoms: C_10  and  O_32
REMARK    5  A    between atoms: C_17  and  C_18
REMARK    6  A    between atoms: C_20  and  O_28
REMARK    7  A    between atoms: C_21  and  O_26
REMARK    8  A    between atoms: C_23  and  O_24
REMARK    9  A    between atoms: O_24  and  C_25
REMARK   10  A    between atoms: O_26  and  C_27
REMARK   11  A    between atoms: O_28  and  C_29
REMARK                            x       y       z     vdW  Elec       q    Type
REMARK                         _______ _______ _______ _____ _____    ______ ____
ROOT
ATOM      1  C   UNL     1      -1.400   2.391   9.237  0.00  0.00    +0.020 A 
ATOM      2  C   UNL     1      -1.444   2.569  10.611  0.00  0.00    +0.122 A 
ATOM      3  C   UNL     1      -0.478   1.992  11.431  0.00  0.00    +0.046 A 
ATOM      4  C   UNL     1       0.525   1.241  10.886  0.00  0.00    +0.019 A 
ATOM      5  C   UNL     1       0.582   1.053   9.505  0.00  0.00    +0.068 A 
ATOM      6  C   UNL     1      -0.386   1.630   8.668  0.00  0.00    +0.144 A 
ATOM      7  O   UNL     1      -0.124   1.310   7.382  0.00  0.00    -0.451 OA
ATOM      8  C   UNL     1       0.982   0.536   7.272  0.00  0.00    +0.176 C 
ATOM      9  C   UNL     1       1.509   0.049   6.117  0.00  0.00    +0.062 C 
ATOM     10  C   UNL     1       1.505   0.314   8.625  0.00  0.00    +0.231 C 
ATOM     11  O   UNL     1       2.485  -0.335   8.949  0.00  0.00    -0.283 OA
ENDROOT
BRANCH   9  12
ATOM     12  C   UNL     1       0.961   0.472   4.826  0.00  0.00    +0.024 A 
ATOM     13  C   UNL     1       0.149   1.612   4.745  0.00  0.00    +0.061 A 
ATOM     14  C   UNL     1      -0.358   2.009   3.526  0.00  0.00    +0.162 A 
ATOM     15  C   UNL     1      -0.075   1.272   2.375  0.00  0.00    +0.165 A 
ATOM     16  C   UNL     1       0.728   0.143   2.446  0.00  0.00    +0.095 A 
ATOM     17  C   UNL     1       1.248  -0.263   3.662  0.00  0.00    +0.131 A 
BRANCH  17  18
ATOM     18  O   UNL     1       2.033  -1.368   3.732  0.00  0.00    -0.494 OA
ATOM     19  C   UNL     1       2.281  -2.065   2.509  0.00  0.00    +0.277 C 
ENDBRANCH  17  18
BRANCH  15  20
ATOM     20  O   UNL     1      -0.582   1.666   1.178  0.00  0.00    -0.491 OA
ATOM     21  C   UNL     1      -0.249   0.871   0.039  0.00  0.00    +0.277 C 
ENDBRANCH  15  20
BRANCH  14  22
ATOM     22  O   UNL     1      -1.141   3.119   3.446  0.00  0.00    -0.491 OA
ATOM     23  C   UNL     1      -1.391   3.826   4.662  0.00  0.00    +0.277 C 
ENDBRANCH  14  22
ENDBRANCH   9  12
BRANCH   2  24
ATOM     24  O   UNL     1      -2.437   3.313  11.161  0.00  0.00    -0.506 OA
ATOM     25  H   UNL     1      -2.225   4.253  11.242  0.00  0.00    +0.292 HD
ENDBRANCH   2  24
BRANCH   1  26
ATOM     26  C   UNL     1      -2.451   3.022   8.362  0.00  0.00    -0.036 C 
BRANCH  26  33
ATOM     27  C   UNL     1      -6.562   2.006   5.859  0.00  0.00    +0.005 C 
ATOM     28  C   UNL     1      -5.582   1.504   6.921  0.00  0.00    -0.031 C 
ATOM     29  C   UNL     1      -6.335   1.240   8.228  0.00  0.00    -0.001 C 
ATOM     30  C   UNL     1      -5.338   0.795   9.301  0.00  0.00    -0.018 C 
ATOM     31  C   UNL     1      -4.269   1.876   9.476  0.00  0.00    -0.078 C 
ATOM     32  C   UNL     1      -4.505   2.564   7.165  0.00  0.00    -0.075 C 
ATOM     33  N   UNL     1      -3.564   2.066   8.190  0.00  0.00    +0.383 N 
ATOM     34  H   UNL     1      -3.184   1.163   7.882  0.00  0.00    -0.081 HD
ENDBRANCH  26  33
ENDBRANCH   1  26
TORSDOF 7
