REMARK  Name = ZINC20236645
REMARK  12 active torsions:
REMARK  status: ('A' for Active; 'I' for Inactive)
REMARK    1  A    between atoms: C_1  and  C_2
REMARK    2  A    between atoms: C_2  and  O_3
REMARK    3  A    between atoms: O_3  and  C_4
REMARK    4  A    between atoms: C_6  and  C_23
REMARK    5  A    between atoms: C_9  and  O_10
REMARK    6  A    between atoms: O_10  and  C_11
REMARK    7  A    between atoms: C_11  and  C_13
REMARK    8  A    between atoms: C_16  and  O_21
REMARK    9  A    between atoms: C_17  and  O_19
REMARK   10  A    between atoms: O_19  and  C_20
REMARK   11  A    between atoms: O_21  and  C_22
REMARK   12  A    between atoms: C_33  and  C_35
REMARK                            x       y       z     vdW  Elec       q    Type
REMARK                         _______ _______ _______ _____ _____    ______ ____
ROOT
ATOM      1  C   UNL     1       0.965  -1.936  -1.440  0.00  0.00    +0.163 A 
ATOM      2  C   UNL     1       0.374  -2.720  -0.470  0.00  0.00    +0.057 A 
ATOM      3  C   UNL     1       0.413  -4.116  -0.583  0.00  0.00    -0.021 A 
ATOM      4  C   UNL     1       1.052  -4.708  -1.682  0.00  0.00    +0.012 A 
ATOM      5  C   UNL     1       1.638  -3.917  -2.644  0.00  0.00    +0.051 A 
ATOM      6  C   UNL     1       1.594  -2.533  -2.533  0.00  0.00    +0.173 A 
ENDROOT
BRANCH   3   7
ATOM      7  C   UNL     1      -0.211  -4.955   0.444  0.00  0.00    +0.025 C 
ATOM      8  C   UNL     1      -0.851  -6.119   0.086  0.00  0.00    +0.084 C 
ATOM      9  C   UNL     1      -1.343  -7.101   1.100  0.00  0.00    +0.176 C 
ATOM     10  N   UNL     1      -1.754  -6.763   2.294  0.00  0.00    -0.280 NA
ATOM     11  N   UNL     1      -1.317  -8.410   0.640  0.00  0.00    -0.142 N 
ATOM     12  C   UNL     1      -1.330  -8.694  -0.703  0.00  0.00    +0.168 C 
ATOM     13  N   UNL     1      -1.255  -7.772  -1.660  0.00  0.00    -0.156 NA
ATOM     14  C   UNL     1      -1.102  -6.478  -1.333  0.00  0.00    +0.273 C 
ATOM     15  O   UNL     1      -1.164  -5.610  -2.188  0.00  0.00    -0.268 OA
ATOM     16  C   UNL     1      -1.417 -10.089  -0.814  0.00  0.00    +0.091 C 
ATOM     17  C   UNL     1      -1.396 -10.618   0.430  0.00  0.00    +0.134 C 
ATOM     18  O   UNL     1      -1.290  -9.629   1.332  0.00  0.00    -0.375 OA
ATOM     19  C   UNL     1      -1.477 -12.088   0.753  0.00  0.00    +0.089 C 
ATOM     20  H   UNL     1      -1.749  -5.830   2.562  0.00  0.00    +0.188 HD
ENDBRANCH   3   7
BRANCH   1  21
ATOM     21  O   UNL     1       0.928  -0.581  -1.334  0.00  0.00    -0.489 OA
BRANCH  21  23
ATOM     22  C   UNL     1       0.329   1.491  -0.244  0.00  0.00    +0.048 C 
ATOM     23  C   UNL     1       0.268  -0.037  -0.190  0.00  0.00    +0.226 C 
ENDBRANCH  21  23
ENDBRANCH   1  21
BRANCH   6  24
ATOM     24  O   UNL     1       2.169  -1.759  -3.489  0.00  0.00    -0.419 OA
BRANCH  24  25
ATOM     25  C   UNL     1       3.434  -1.339  -3.286  0.00  0.00    +0.345 C 
ATOM     26  O   UNL     1       4.056  -1.729  -2.318  0.00  0.00    -0.245 OA
BRANCH  25  27
ATOM     27  C   UNL     1       4.062  -0.405  -4.239  0.00  0.00    +0.063 A 
ATOM     28  C   UNL     1       3.346   0.050  -5.349  0.00  0.00    +0.019 A 
ATOM     29  C   UNL     1       3.935   0.922  -6.239  0.00  0.00    +0.050 A 
ATOM     30  C   UNL     1       5.240   1.351  -6.035  0.00  0.00    +0.162 A 
ATOM     31  C   UNL     1       5.960   0.901  -4.929  0.00  0.00    +0.162 A 
ATOM     32  C   UNL     1       5.374   0.032  -4.030  0.00  0.00    +0.064 A 
BRANCH  31  33
ATOM     33  O   UNL     1       7.238   1.323  -4.732  0.00  0.00    -0.491 OA
ATOM     34  C   UNL     1       7.916   0.822  -3.579  0.00  0.00    +0.277 C 
ENDBRANCH  31  33
BRANCH  30  35
ATOM     35  O   UNL     1       5.815   2.210  -6.914  0.00  0.00    -0.491 OA
ATOM     36  C   UNL     1       5.021   2.631  -8.025  0.00  0.00    +0.277 C 
ENDBRANCH  30  35
ENDBRANCH  25  27
ENDBRANCH  24  25
ENDBRANCH   6  24
TORSDOF 8
