REMARK  Name = ZINC60280130
REMARK  8 active torsions:
REMARK  status: ('A' for Active; 'I' for Inactive)
REMARK    1  A    between atoms: C_1  and  C_2
REMARK    2  A    between atoms: C_2  and  C_3
REMARK    3  A    between atoms: C_2  and  C_4
REMARK    4  A    between atoms: C_6  and  C_14
REMARK    5  A    between atoms: N_8  and  C_9
REMARK    6  A    between atoms: C_9  and  C_10
REMARK    7  A    between atoms: C_9  and  C_11
REMARK    8  A    between atoms: C_9  and  C_12
REMARK                            x       y       z     vdW  Elec       q    Type
REMARK                         _______ _______ _______ _____ _____    ______ ____
ROOT
ATOM      1  C   UNL     1      -1.763  -0.352   0.696  0.00  0.00    +0.079 C 
ATOM      2  N   UNL     1      -2.802   0.266   1.135  0.00  0.00    -0.363 N 
ATOM      3  C   UNL     1      -3.984  -0.561   0.846  0.00  0.00    +0.173 C 
ATOM      4  C   UNL     1      -3.412  -1.781   0.149  0.00  0.00    +0.101 C 
ATOM      5  N   UNL     1      -2.054  -1.549   0.105  0.00  0.00    -0.273 N 
ATOM      6  N   UNL     1      -4.055  -2.806  -0.304  0.00  0.00    -0.388 N 
ATOM      7  H   UNL     1      -5.024  -2.819  -0.284  0.00  0.00    +0.157 HD
ATOM      8  H   UNL     1      -3.567  -3.563  -0.665  0.00  0.00    +0.157 HD
ATOM      9  H   UNL     1      -2.805   1.127   1.581  0.00  0.00    +0.162 HD
ENDROOT
BRANCH   3  10
ATOM     10  C   UNL     1      -4.932   0.173  -0.067  0.00  0.00    -0.004 A 
ATOM     11  C   UNL     1      -4.460   1.180  -0.889  0.00  0.00    +0.007 A 
ATOM     12  C   UNL     1      -5.330   1.853  -1.726  0.00  0.00    +0.000 A 
ATOM     13  C   UNL     1      -6.672   1.520  -1.742  0.00  0.00    +0.001 A 
ATOM     14  C   UNL     1      -7.144   0.514  -0.921  0.00  0.00    +0.015 A 
ATOM     15  C   UNL     1      -6.273  -0.164  -0.086  0.00  0.00    +0.023 A 
ATOM     16 BR   UNL     1      -6.918  -1.545   1.032  0.00  0.00    -0.050 Br
ENDBRANCH   3  10
BRANCH   5  17
ATOM     17  C   UNL     1      -1.067  -2.455  -0.486  0.00  0.00    +0.033 C 
ATOM     18  C   UNL     1       0.044  -2.731   0.528  0.00  0.00    +0.031 C 
ATOM     19  C   UNL     1      -1.747  -3.771  -0.868  0.00  0.00    +0.031 C 
ATOM     20  C   UNL     1      -0.467  -1.810  -1.737  0.00  0.00    +0.031 C 
ENDBRANCH   5  17
BRANCH   1  22
ATOM     21  C   UNL     1      -0.391   1.712   0.631  0.00  0.00    +0.015 C 
ATOM     22  C   UNL     1      -0.363   0.194   0.815  0.00  0.00    +0.045 C 
ATOM     23  C   UNL     1       0.199  -0.142   2.197  0.00  0.00    +0.015 C 
ENDBRANCH   1  22
TORSDOF 3
