REMARK  Name = ZINC63588882
REMARK  9 active torsions:
REMARK  status: ('A' for Active; 'I' for Inactive)
REMARK    1  A    between atoms: C_1  and  C_2
REMARK    2  A    between atoms: C_2  and  C_4
REMARK    3  A    between atoms: C_2  and  O_27
REMARK    4  A    between atoms: C_4  and  N_6
REMARK    5  A    between atoms: N_8  and  C_9
REMARK    6  A    between atoms: N_15  and  C_16
REMARK    7  A    between atoms: C_16  and  C_17
REMARK    8  A    between atoms: C_17  and  C_18
REMARK    9  A    between atoms: O_27  and  C_28
REMARK                            x       y       z     vdW  Elec       q    Type
REMARK                         _______ _______ _______ _____ _____    ______ ____
ROOT
ATOM      1  N   UNL     1       0.122   3.981  -1.949  0.00  0.00    -0.144 NA
ATOM      2  C   UNL     1       0.159   4.973  -1.068  0.00  0.00    +0.194 C 
ATOM      3  N   UNL     1      -1.000   5.560  -0.653  0.00  0.00    -0.328 N 
ATOM      4  N   UNL     1       1.355   5.405  -0.578  0.00  0.00    -0.357 N 
ATOM      5  H   UNL     1       2.183   5.040  -0.928  0.00  0.00    +0.162 HD
ATOM      6  H   UNL     1      -1.025   6.514  -0.478  0.00  0.00    +0.169 HD
ENDROOT
BRANCH   3   7
ATOM      7  C   UNL     1      -2.152   4.787  -0.480  0.00  0.00    +0.042 A 
ATOM      8  C   UNL     1      -2.053   3.407  -0.355  0.00  0.00    +0.026 A 
ATOM      9  C   UNL     1      -3.193   2.647  -0.184  0.00  0.00    +0.002 A 
ATOM     10  C   UNL     1      -4.433   3.257  -0.137  0.00  0.00    +0.000 A 
ATOM     11  C   UNL     1      -4.535   4.631  -0.261  0.00  0.00    +0.002 A 
ATOM     12  C   UNL     1      -3.399   5.398  -0.426  0.00  0.00    +0.026 A 
ENDBRANCH   3   7
BRANCH   1  13
ATOM     13  C   UNL     1      -0.952   3.812  -2.716  0.00  0.00    +0.280 C 
ATOM     14  O   UNL     1      -1.856   4.624  -2.683  0.00  0.00    -0.270 OA
BRANCH  13  16
ATOM     15  C   UNL     1      -1.077   1.336  -2.784  0.00  0.00    +0.062 C 
ATOM     16  C   UNL     1      -1.048   2.614  -3.626  0.00  0.00    +0.258 C 
BRANCH  16  17
ATOM     17  O   UNL     1      -2.244   2.700  -4.402  0.00  0.00    -0.480 OA
BRANCH  17  18
ATOM     18  C   UNL     1      -2.256   2.044  -5.592  0.00  0.00    +0.122 A 
ATOM     19  C   UNL     1      -3.340   2.175  -6.448  0.00  0.00    +0.045 A 
ATOM     20  C   UNL     1      -3.349   1.508  -7.657  0.00  0.00    +0.004 A 
ATOM     21  C   UNL     1      -2.279   0.708  -8.015  0.00  0.00    +0.000 A 
ATOM     22  C   UNL     1      -1.198   0.575  -7.163  0.00  0.00    +0.004 A 
ATOM     23  C   UNL     1      -1.181   1.245  -5.956  0.00  0.00    +0.045 A 
ENDBRANCH  17  18
ENDBRANCH  16  17
ENDBRANCH  13  16
ENDBRANCH   1  13
BRANCH   4  24
ATOM     24  C   UNL     1       1.391   6.421   0.476  0.00  0.00    +0.120 C 
BRANCH  24  25
ATOM     25  C   UNL     1       2.843   6.812   0.759  0.00  0.00    +0.054 C 
BRANCH  25  26
ATOM     26  C   UNL     1       2.889   7.766   1.925  0.00  0.00    -0.040 C 
ATOM     27  C   UNL     1       3.080   7.451   3.226  0.00  0.00    -0.001 A 
ATOM     28  C   UNL     1       3.292   6.175   3.919  0.00  0.00    +0.010 A 
ATOM     29  C   UNL     1       3.456   6.178   5.262  0.00  0.00    +0.001 A 
ATOM     30  C   UNL     1       3.426   7.365   6.006  0.00  0.00    +0.002 A 
ATOM     31  C   UNL     1       3.235   8.576   5.440  0.00  0.00    +0.026 A 
ATOM     32  C   UNL     1       3.053   8.691   4.034  0.00  0.00    +0.043 A 
ATOM     33  N   UNL     1       2.854   9.732   3.263  0.00  0.00    -0.380 N 
ATOM     34  C   UNL     1       2.737   9.270   1.875  0.00  0.00    +0.144 C 
ATOM     35  H   UNL     1       2.797  10.654   3.559  0.00  0.00    +0.160 HD
ENDBRANCH  25  26
ENDBRANCH  24  25
ENDBRANCH   4  24
TORSDOF 8
