REMARK  Name = ZINC63349863
REMARK  8 active torsions:
REMARK  status: ('A' for Active; 'I' for Inactive)
REMARK    1  A    between atoms: C_1  and  O_2
REMARK    2  A    between atoms: O_2  and  C_3
REMARK    3  A    between atoms: C_10  and  C_18
REMARK    4  A    between atoms: C_21  and  O_38
REMARK    5  A    between atoms: C_22  and  C_24
REMARK    6  A    between atoms: C_24  and  N_25
REMARK    7  A    between atoms: N_28  and  C_31
REMARK    8  A    between atoms: O_38  and  C_39
REMARK                            x       y       z     vdW  Elec       q    Type
REMARK                         _______ _______ _______ _____ _____    ______ ____
ROOT
ATOM      1  C   UNL     1      -6.352  -5.152   0.883  0.00  0.00    -0.028 A 
ATOM      2  C   UNL     1      -6.816  -6.124   0.016  0.00  0.00    +0.009 A 
ATOM      3  C   UNL     1      -8.173  -6.349  -0.108  0.00  0.00    +0.046 A 
ATOM      4  C   UNL     1      -9.071  -5.599   0.638  0.00  0.00    +0.121 A 
ATOM      5  C   UNL     1      -8.602  -4.625   1.508  0.00  0.00    -0.022 A 
ATOM      6  C   UNL     1      -7.244  -4.407   1.633  0.00  0.00    +0.010 A 
ENDROOT
BRANCH   1  13
ATOM      7  C   UNL     1      -1.208  -0.639  -0.104  0.00  0.00    +0.121 A 
ATOM      8  C   UNL     1      -2.382   0.134  -0.082  0.00  0.00    +0.047 A 
ATOM      9  C   UNL     1      -3.614  -0.418  -0.064  0.00  0.00    +0.029 A 
ATOM     10  C   UNL     1      -3.761  -1.876  -0.066  0.00  0.00    +0.043 A 
ATOM     11  N   UNL     1      -4.821  -2.650  -0.028  0.00  0.00    -0.376 N 
ATOM     12  C   UNL     1      -4.384  -4.037  -0.145  0.00  0.00    +0.128 C 
ATOM     13  C   UNL     1      -4.870  -4.908   1.017  0.00  0.00    +0.111 C 
ATOM     14  N   UNL     1      -4.150  -6.190   0.968  0.00  0.00    -0.307 NA
ATOM     15  C   UNL     1      -2.716  -6.059   1.244  0.00  0.00    +0.086 C 
ATOM     16  C   UNL     1      -2.037  -5.239   0.131  0.00  0.00    +0.048 C 
ATOM     17  C   UNL     1      -2.866  -3.989  -0.064  0.00  0.00    -0.035 C 
ATOM     18  C   UNL     1      -2.522  -2.696  -0.080  0.00  0.00    +0.003 A 
ATOM     19  C   UNL     1      -1.234  -1.993  -0.109  0.00  0.00    +0.055 A 
ATOM     20  H   UNL     1      -4.576  -6.868   1.582  0.00  0.00    +0.123 HD
ATOM     21  H   UNL     1      -5.739  -2.350   0.062  0.00  0.00    +0.160 HD
BRANCH   7  23
ATOM     22  C   UNL     1      -0.025   1.423  -0.121  0.00  0.00    +0.277 C 
ATOM     23  O   UNL     1      -0.006  -0.006  -0.128  0.00  0.00    -0.495 OA
ENDBRANCH   7  23
ENDBRANCH   1  13
BRANCH   4  24
ATOM     24  O   UNL     1     -10.406  -5.818   0.517  0.00  0.00    -0.495 OA
ATOM     25  C   UNL     1     -10.816  -6.836  -0.398  0.00  0.00    +0.277 C 
ENDBRANCH   4  24
BRANCH   5  26
ATOM     26  C   UNL     1      -9.575  -3.809   2.320  0.00  0.00    -0.039 C 
BRANCH  26  27
ATOM     27  N   UNL     1     -10.224  -2.816   1.454  0.00  0.00    +0.384 N 
ATOM     28  C   UNL     1      -9.218  -1.865   0.963  0.00  0.00    -0.059 C 
ATOM     29  C   UNL     1      -9.873  -0.899  -0.031  0.00  0.00    +0.086 C 
ATOM     30  N   UNL     1     -11.032  -0.273   0.623  0.00  0.00    -0.333 N 
ATOM     31  C   UNL     1     -12.011  -1.148   1.286  0.00  0.00    +0.086 C 
ATOM     32  C   UNL     1     -11.256  -2.103   2.217  0.00  0.00    -0.059 C 
ATOM     33  H   UNL     1     -10.652  -3.285   0.669  0.00  0.00    -0.081 HD
BRANCH  30  34
ATOM     34  C   UNL     1     -11.200   1.115   0.613  0.00  0.00    +0.030 A 
ATOM     35  C   UNL     1     -10.211   1.931   0.080  0.00  0.00    +0.026 A 
ATOM     36  C   UNL     1     -10.379   3.302   0.071  0.00  0.00    +0.040 A 
ATOM     37  C   UNL     1     -11.532   3.863   0.593  0.00  0.00    +0.124 A 
ATOM     38  C   UNL     1     -12.520   3.051   1.125  0.00  0.00    +0.040 A 
ATOM     39  C   UNL     1     -12.358   1.679   1.132  0.00  0.00    +0.026 A 
ATOM     40  F   UNL     1     -11.694   5.204   0.584  0.00  0.00    -0.205 F 
ENDBRANCH  30  34
ENDBRANCH  26  27
ENDBRANCH   5  26
TORSDOF 6
