REMARK  Name = ZINC37974145
REMARK  5 active torsions:
REMARK  status: ('A' for Active; 'I' for Inactive)
REMARK    1  A    between atoms: C_3  and  N_20
REMARK    2  A    between atoms: C_6  and  C_7
REMARK    3  A    between atoms: N_11  and  C_12
REMARK    4  A    between atoms: C_12  and  C_13
REMARK    5  A    between atoms: C_13  and  N_14
REMARK                            x       y       z     vdW  Elec       q    Type
REMARK                         _______ _______ _______ _____ _____    ______ ____
ROOT
ATOM      1  C   UNL     1      -1.557  -1.145   0.234  0.00  0.00    +0.119 A 
ATOM      2  N   UNL     1      -2.746  -0.936   0.755  0.00  0.00    -0.346 N 
ATOM      3  C   UNL     1      -3.645  -1.700   0.122  0.00  0.00    +0.102 A 
ATOM      4  C   UNL     1      -3.006  -2.413  -0.826  0.00  0.00    +0.105 A 
ATOM      5  N   UNL     1      -1.682  -2.063  -0.767  0.00  0.00    -0.330 N 
ATOM      6  H   UNL     1      -2.942  -0.325   1.482  0.00  0.00    +0.167 HD
ENDROOT
BRANCH   1  12
ATOM      7  C   UNL     1       0.651  -0.122  -0.295  0.00  0.00    +0.013 A 
ATOM      8  C   UNL     1       1.821   0.487   0.103  0.00  0.00    +0.023 A 
ATOM      9  C   UNL     1       2.055   0.734   1.451  0.00  0.00    +0.025 A 
ATOM     10  C   UNL     1       1.110   0.366   2.402  0.00  0.00    +0.023 A 
ATOM     11  C   UNL     1      -0.062  -0.243   2.011  0.00  0.00    +0.013 A 
ATOM     12  C   UNL     1      -0.300  -0.492   0.658  0.00  0.00    +0.016 A 
BRANCH   9  13
ATOM     13  N   UNL     1       3.241   1.350   1.850  0.00  0.00    -0.358 N 
ATOM     14  H   UNL     1       3.902   1.606   1.188  0.00  0.00    +0.142 HD
ATOM     15  H   UNL     1       3.405   1.522   2.791  0.00  0.00    +0.142 HD
ENDBRANCH   9  13
ENDBRANCH   1  12
BRANCH   5  16
ATOM     16  C   UNL     1      -0.605  -2.580  -1.615  0.00  0.00    +0.142 C 
BRANCH  16  17
ATOM     17  C   UNL     1       0.202  -3.621  -0.836  0.00  0.00    +0.131 C 
BRANCH  17  18
ATOM     18  N   UNL     1       1.205  -4.222  -1.719  0.00  0.00    -0.282 N 
ATOM     19  C   UNL     1       0.999  -5.415  -2.554  0.00  0.00    +0.128 C 
ATOM     20  C   UNL     1       2.352  -5.605  -3.267  0.00  0.00    +0.124 C 
ATOM     21  N   UNL     1       3.176  -4.498  -2.758  0.00  0.00    -0.298 N 
ATOM     22  C   UNL     1       2.452  -3.768  -1.900  0.00  0.00    +0.302 C 
ATOM     23  O   UNL     1       2.889  -2.786  -1.333  0.00  0.00    -0.253 OA
ATOM     24  H   UNL     1       4.097  -4.322  -3.008  0.00  0.00    +0.150 HD
ENDBRANCH  17  18
ENDBRANCH  16  17
ENDBRANCH   5  16
TORSDOF 5
