REMARK  Name = ZINC33582760
REMARK  9 active torsions:
REMARK  status: ('A' for Active; 'I' for Inactive)
REMARK    1  A    between atoms: C_1  and  N_2
REMARK    2  A    between atoms: N_2  and  C_3
REMARK    3  A    between atoms: N_2  and  C_4
REMARK    4  A    between atoms: C_4  and  C_5
REMARK    5  A    between atoms: C_5  and  N_6
REMARK    6  A    between atoms: C_7  and  C_22
REMARK    7  A    between atoms: C_9  and  C_10
REMARK    8  A    between atoms: C_10  and  C_11
REMARK    9  A    between atoms: C_26  and  N_28
REMARK                            x       y       z     vdW  Elec       q    Type
REMARK                         _______ _______ _______ _____ _____    ______ ____
ROOT
ATOM      1  N   UNL     1       0.464   0.733  -2.073  0.00  0.00    -0.285 N 
ATOM      2  C   UNL     1      -0.092  -0.291  -2.962  0.00  0.00    +0.145 C 
ATOM      3  C   UNL     1       0.827  -0.374  -4.158  0.00  0.00    +0.076 C 
ATOM      4  C   UNL     1       1.847   0.569  -3.932  0.00  0.00    +0.249 C 
ATOM      5  O   UNL     1       2.785   0.799  -4.673  0.00  0.00    -0.282 OA
ATOM      6  C   UNL     1       1.579   1.236  -2.628  0.00  0.00    +0.288 C 
ATOM      7  O   UNL     1       2.269   2.106  -2.138  0.00  0.00    -0.266 OA
ENDROOT
BRANCH   2   8
ATOM      8  C   UNL     1      -1.478   0.106  -3.402  0.00  0.00    -0.020 A 
ATOM      9  C   UNL     1      -1.752   1.424  -3.718  0.00  0.00    +0.006 A 
ATOM     10  C   UNL     1      -3.022   1.788  -4.122  0.00  0.00    +0.003 A 
ATOM     11  C   UNL     1      -4.019   0.835  -4.211  0.00  0.00    +0.033 A 
ATOM     12  C   UNL     1      -3.746  -0.483  -3.895  0.00  0.00    +0.127 A 
ATOM     13  C   UNL     1      -2.473  -0.848  -3.496  0.00  0.00    +0.038 A 
BRANCH  12  14
ATOM     14  N   UNL     1      -4.813  -1.504  -3.990  0.00  0.00    +0.056 N 
ATOM     15  O   UNL     1      -5.933  -1.183  -4.347  0.00  0.00    -0.126 OA
ATOM     16  O   UNL     1      -4.572  -2.665  -3.712  0.00  0.00    -0.126 OA
ENDBRANCH  12  14
ENDBRANCH   2   8
BRANCH   3  17
ATOM     17  C   UNL     1       0.694  -1.203  -5.249  0.00  0.00    +0.195 C 
ATOM     18  O   UNL     1      -0.265  -2.153  -5.261  0.00  0.00    -0.287 OA
BRANCH  17  19
ATOM     19  C   UNL     1       1.599  -1.054  -6.405  0.00  0.00    +0.025 A 
ATOM     20  C   UNL     1       1.798   0.195  -7.008  0.00  0.00    +0.031 A 
ATOM     21  C   UNL     1       2.658   0.289  -8.084  0.00  0.00    +0.111 A 
ATOM     22  N   UNL     1       3.278  -0.776  -8.551  0.00  0.00    -0.263 NA
ATOM     23  C   UNL     1       3.117  -1.971  -8.017  0.00  0.00    +0.111 A 
ATOM     24  C   UNL     1       2.280  -2.158  -6.935  0.00  0.00    +0.031 A 
ENDBRANCH  17  19
ENDBRANCH   3  17
BRANCH   1  25
ATOM     25  C   UNL     1      -0.107   1.145  -0.789  0.00  0.00    +0.090 C 
BRANCH  25  26
ATOM     26  C   UNL     1       0.477   0.280   0.330  0.00  0.00    -0.060 C 
BRANCH  26  28
ATOM     27  C   UNL     1      -1.536   0.408   1.670  0.00  0.00    -0.097 C 
ATOM     28  N   UNL     1      -0.096   0.694   1.618  0.00  0.00    +0.377 N 
ATOM     29  C   UNL     1       0.609   0.054   2.737  0.00  0.00    -0.097 C 
ATOM     30  H   UNL     1       0.036   1.782   1.713  0.00  0.00    -0.083 HD
ENDBRANCH  26  28
ENDBRANCH  25  26
ENDBRANCH   1  25
TORSDOF 7
