REMARK  Name = ZINC14197866
REMARK  8 active torsions:
REMARK  status: ('A' for Active; 'I' for Inactive)
REMARK    1  A    between atoms: C_1  and  C_2
REMARK    2  A    between atoms: C_2  and  C_4
REMARK    3  A    between atoms: C_2  and  N_45
REMARK    4  A    between atoms: C_9  and  C_10
REMARK    5  A    between atoms: C_9  and  N_45
REMARK    6  A    between atoms: N_12  and  C_13
REMARK    7  A    between atoms: C_18  and  C_19
REMARK    8  A    between atoms: C_19  and  C_21
REMARK                            x       y       z     vdW  Elec       q    Type
REMARK                         _______ _______ _______ _____ _____    ______ ____
ROOT
ATOM      1  C   UNL     1       3.894   0.709   0.153  0.00  0.00    +0.200 C 
ATOM      2  O   UNL     1       4.303   1.352  -0.790  0.00  0.00    -0.278 OA
ATOM      3  N   UNL     1       4.674   0.531   1.238  0.00  0.00    -0.286 N 
ATOM      4  H   UNL     1       4.322   0.077   2.020  0.00  0.00    +0.155 HD
ENDROOT
BRANCH   3   5
ATOM      5  C   UNL     1       5.985   1.000   1.236  0.00  0.00    +0.044 A 
ATOM      6  C   UNL     1       6.307   2.170   0.562  0.00  0.00    +0.024 A 
ATOM      7  C   UNL     1       7.608   2.633   0.562  0.00  0.00    +0.002 A 
ATOM      8  C   UNL     1       8.601   1.936   1.233  0.00  0.00    +0.001 A 
ATOM      9  C   UNL     1       8.300   0.774   1.908  0.00  0.00    +0.013 A 
ATOM     10  C   UNL     1       6.987   0.295   1.922  0.00  0.00    +0.043 A 
BRANCH  10  11
ATOM     11  C   UNL     1       6.657  -0.945   2.647  0.00  0.00    +0.195 C 
ATOM     12  O   UNL     1       6.580  -0.938   3.861  0.00  0.00    -0.287 OA
BRANCH  11  13
ATOM     13  C   UNL     1       6.421  -2.198   1.900  0.00  0.00    +0.022 A 
ATOM     14  C   UNL     1       6.403  -2.189   0.503  0.00  0.00    +0.012 A 
ATOM     15  C   UNL     1       6.188  -3.363  -0.188  0.00  0.00    +0.001 A 
ATOM     16  C   UNL     1       5.978  -4.546   0.499  0.00  0.00    +0.000 A 
ATOM     17  C   UNL     1       5.989  -4.561   1.883  0.00  0.00    +0.001 A 
ATOM     18  C   UNL     1       6.209  -3.396   2.587  0.00  0.00    +0.012 A 
ENDBRANCH  11  13
ENDBRANCH  10  11
ENDBRANCH   3   5
BRANCH   1  19
ATOM     19  C   UNL     1       2.512   0.108   0.113  0.00  0.00    +0.016 C 
BRANCH  19  20
ATOM     20  N   UNL     1       1.875   0.448  -1.173  0.00  0.00    +0.389 N 
ATOM     21  H   UNL     1       1.814   1.470  -1.262  0.00  0.00    -0.084 HD
ATOM     22  H   UNL     1       2.442   0.072  -1.942  0.00  0.00    -0.084 HD
BRANCH  20  24
ATOM     23  C   UNL     1      -0.474   0.823  -0.570  0.00  0.00    -0.008 C 
ATOM     24  C   UNL     1       0.519  -0.128  -1.241  0.00  0.00    -0.037 C 
BRANCH  24  25
ATOM     25  C   UNL     1       0.134  -0.318  -2.686  0.00  0.00    -0.024 A 
ATOM     26  C   UNL     1      -0.536  -1.345  -3.263  0.00  0.00    +0.009 A 
ATOM     27  C   UNL     1      -0.782  -1.306  -4.622  0.00  0.00    +0.008 A 
ATOM     28  C   UNL     1      -0.345  -0.242  -5.339  0.00  0.00    +0.045 A 
ATOM     29  S   UNL     1       0.435   0.756  -4.080  0.00  0.00    -0.103 S 
ENDBRANCH  24  25
ENDBRANCH  20  24
ENDBRANCH  19  20
ENDBRANCH   1  19
TORSDOF 7
