REMARK  Name = ZINC02749692
REMARK  6 active torsions:
REMARK  status: ('A' for Active; 'I' for Inactive)
REMARK    1  A    between atoms: C_3  and  C_22
REMARK    2  A    between atoms: C_5  and  C_7
REMARK    3  A    between atoms: N_9  and  C_10
REMARK    4  A    between atoms: C_11  and  C_20
REMARK    5  A    between atoms: N_24  and  C_25
REMARK    6  A    between atoms: C_26  and  C_35
REMARK                            x       y       z     vdW  Elec       q    Type
REMARK                         _______ _______ _______ _____ _____    ______ ____
ROOT
ATOM      1  C   UNL     1      -0.017   1.381   0.010  0.00  0.00    +0.004 A 
ATOM      2  C   UNL     1       1.191   2.060   0.002  0.00  0.00    +0.033 A 
ATOM      3  C   UNL     1       2.383   1.333  -0.013  0.00  0.00    +0.127 A 
ATOM      4  N   UNL     1       2.366   0.009  -0.021  0.00  0.00    -0.237 NA
ATOM      5  C   UNL     1       1.230  -0.670  -0.014  0.00  0.00    +0.127 A 
ATOM      6  C   UNL     1       0.002  -0.004   0.002  0.00  0.00    +0.033 A 
ENDROOT
BRANCH   5   7
ATOM      7  C   UNL     1       1.260  -2.151  -0.022  0.00  0.00    +0.267 C 
ATOM      8  O   UNL     1       0.220  -2.780  -0.016  0.00  0.00    -0.268 OA
ATOM      9  N   UNL     1       2.441  -2.800  -0.038  0.00  0.00    -0.274 N 
ATOM     10  H   UNL     1       3.271  -2.298  -0.043  0.00  0.00    +0.156 HD
BRANCH   9  11
ATOM     11  C   UNL     1       2.469  -4.187  -0.046  0.00  0.00    +0.090 A 
ATOM     12  C   UNL     1       3.578  -5.015  -0.056  0.00  0.00    +0.084 A 
ATOM     13  C   UNL     1       3.341  -6.452  -0.064  0.00  0.00    -0.018 A 
ATOM     14  C   UNL     1       2.034  -6.790  -0.066  0.00  0.00    -0.004 A 
ATOM     15  S   UNL     1       1.168  -5.246  -0.039  0.00  0.00    -0.077 S 
ATOM     16  C   UNL     1       1.446  -8.167  -0.093  0.00  0.00    +0.043 C 
ATOM     17  C   UNL     1       2.131  -9.028   0.977  0.00  0.00    +0.005 C 
ATOM     18  C   UNL     1       3.356  -9.693   0.356  0.00  0.00    +0.001 C 
ATOM     19  C   UNL     1       3.978  -8.777  -0.696  0.00  0.00    +0.005 C 
ATOM     20  C   UNL     1       4.463  -7.480  -0.056  0.00  0.00    +0.037 C 
BRANCH  12  21
ATOM     21  C   UNL     1       4.906  -4.480  -0.058  0.00  0.00    +0.102 C 
ATOM     22  N   UNL     1       5.960  -4.056  -0.060  0.00  0.00    -0.191 NA
ENDBRANCH  12  21
ENDBRANCH   9  11
ENDBRANCH   5   7
BRANCH   3  23
ATOM     23  C   UNL     1       3.679   2.050  -0.022  0.00  0.00    +0.267 C 
ATOM     24  O   UNL     1       3.702   3.264  -0.016  0.00  0.00    -0.268 OA
ATOM     25  N   UNL     1       4.834   1.354  -0.037  0.00  0.00    -0.274 N 
ATOM     26  H   UNL     1       4.816   0.384  -0.042  0.00  0.00    +0.156 HD
BRANCH  25  27
ATOM     27  C   UNL     1       6.047   2.025  -0.045  0.00  0.00    +0.090 A 
ATOM     28  C   UNL     1       7.320   1.482  -0.066  0.00  0.00    +0.084 A 
ATOM     29  C   UNL     1       8.444   2.407  -0.069  0.00  0.00    -0.018 A 
ATOM     30  C   UNL     1       8.081   3.708  -0.045  0.00  0.00    -0.004 A 
ATOM     31  S   UNL     1       6.310   3.683  -0.039  0.00  0.00    -0.077 S 
ATOM     32  C   UNL     1       8.977   4.907  -0.023  0.00  0.00    +0.043 C 
ATOM     33  C   UNL     1      10.045   4.758  -1.115  0.00  0.00    +0.005 C 
ATOM     34  C   UNL     1      11.246   4.026  -0.526  0.00  0.00    +0.001 C 
ATOM     35  C   UNL     1      10.787   3.017   0.525  0.00  0.00    +0.005 C 
ATOM     36  C   UNL     1       9.896   1.954  -0.110  0.00  0.00    +0.037 C 
BRANCH  28  37
ATOM     37  C   UNL     1       7.524   0.065  -0.082  0.00  0.00    +0.102 C 
ATOM     38  N   UNL     1       7.685  -1.060  -0.096  0.00  0.00    -0.191 NA
ENDBRANCH  28  37
ENDBRANCH  25  27
ENDBRANCH   3  23
TORSDOF 6
