REMARK  Name = ZINC22609449
REMARK  9 active torsions:
REMARK  status: ('A' for Active; 'I' for Inactive)
REMARK    1  A    between atoms: C_1  and  C_2
REMARK    2  A    between atoms: C_2  and  C_3
REMARK    3  A    between atoms: C_2  and  C_4
REMARK    4  A    between atoms: C_7  and  N_10
REMARK    5  A    between atoms: C_14  and  N_18
REMARK    6  A    between atoms: C_23  and  O_30
REMARK    7  A    between atoms: C_24  and  O_28
REMARK    8  A    between atoms: O_28  and  C_29
REMARK    9  A    between atoms: O_30  and  C_31
REMARK                            x       y       z     vdW  Elec       q    Type
REMARK                         _______ _______ _______ _____ _____    ______ ____
ROOT
ATOM      1  N   UNL     1      -5.323  -1.969   0.042  0.00  0.00    -0.212 N 
ATOM      2  C   UNL     1      -6.160  -1.770   1.067  0.00  0.00    +0.225 C 
ATOM      3  O   UNL     1      -5.896  -1.164   2.083  0.00  0.00    -0.275 OA
ATOM      4  C   UNL     1      -7.490  -2.421   0.757  0.00  0.00    +0.091 C 
ATOM      5  C   UNL     1      -7.274  -3.037  -0.640  0.00  0.00    +0.029 C 
ATOM      6  C   UNL     1      -5.846  -2.664  -0.975  0.00  0.00    +0.213 C 
ATOM      7  O   UNL     1      -5.267  -2.953  -2.000  0.00  0.00    -0.277 OA
ENDROOT
BRANCH   5   8
ATOM      8  N   UNL     1      -8.202  -2.448  -1.615  0.00  0.00    +0.391 N 
ATOM      9  C   UNL     1      -9.587  -2.715  -1.198  0.00  0.00    -0.073 C 
ATOM     10  C   UNL     1     -10.524  -1.846  -2.038  0.00  0.00    +0.017 C 
ATOM     11  C   UNL     1     -10.205  -2.018  -3.501  0.00  0.00    -0.044 A 
ATOM     12  C   UNL     1     -11.139  -1.601  -4.437  0.00  0.00    +0.053 A 
ATOM     13  C   UNL     1     -10.883  -1.739  -5.790  0.00  0.00    +0.162 A 
ATOM     14  C   UNL     1      -9.679  -2.299  -6.210  0.00  0.00    +0.162 A 
ATOM     15  C   UNL     1      -8.751  -2.713  -5.271  0.00  0.00    +0.051 A 
ATOM     16  C   UNL     1      -9.014  -2.575  -3.916  0.00  0.00    -0.057 A 
ATOM     17  C   UNL     1      -7.976  -3.050  -2.932  0.00  0.00    -0.042 C 
ATOM     18  H   UNL     1      -8.049  -1.452  -1.667  0.00  0.00    -0.080 HD
BRANCH  14  19
ATOM     19  O   UNL     1      -9.417  -2.437  -7.537  0.00  0.00    -0.491 OA
ATOM     20  C   UNL     1      -8.162  -3.019  -7.893  0.00  0.00    +0.277 C 
ENDBRANCH  14  19
BRANCH  13  21
ATOM     21  O   UNL     1     -11.802  -1.330  -6.705  0.00  0.00    -0.491 OA
ATOM     22  C   UNL     1     -13.013  -0.765  -6.199  0.00  0.00    +0.277 C 
ENDBRANCH  13  21
ENDBRANCH   5   8
BRANCH   1  26
ATOM     23  C   UNL     1      -1.413  -0.524   0.013  0.00  0.00    -0.045 A 
ATOM     24  C   UNL     1      -2.346  -0.006  -0.866  0.00  0.00    +0.006 A 
ATOM     25  C   UNL     1      -3.642  -0.483  -0.859  0.00  0.00    +0.024 A 
ATOM     26  C   UNL     1      -4.008  -1.483   0.032  0.00  0.00    +0.044 A 
ATOM     27  C   UNL     1      -3.068  -2.001   0.913  0.00  0.00    +0.024 A 
ATOM     28  C   UNL     1      -1.772  -1.524   0.898  0.00  0.00    +0.006 A 
BRANCH  23  30
ATOM     29  C   UNL     1       0.619  -0.229  -1.379  0.00  0.00    +0.012 C 
ATOM     30  C   UNL     1       0.001  -0.001   0.002  0.00  0.00    +0.013 C 
ATOM     31  C   UNL     1      -0.006   1.496   0.317  0.00  0.00    +0.012 C 
ENDBRANCH  23  30
ENDBRANCH   1  26
TORSDOF 5
