REMARK  Name = ZINC67188338
REMARK  6 active torsions:
REMARK  status: ('A' for Active; 'I' for Inactive)
REMARK    1  A    between atoms: C_8  and  C_10
REMARK    2  A    between atoms: C_11  and  C_16
REMARK    3  A    between atoms: C_16  and  N_17
REMARK    4  A    between atoms: N_17  and  C_18
REMARK    5  A    between atoms: C_18  and  C_19
REMARK    6  A    between atoms: C_23  and  N_25
REMARK                            x       y       z     vdW  Elec       q    Type
REMARK                         _______ _______ _______ _____ _____    ______ ____
ROOT
ATOM      1  C   UNL     1       5.754  -2.425  -1.584  0.00  0.00    -0.042 C 
ENDROOT
BRANCH   1   3
ATOM      2  C   UNL     1       3.813  -3.344  -0.118  0.00  0.00    +0.129 A 
ATOM      3  C   UNL     1       5.050  -3.487  -0.779  0.00  0.00    -0.016 A 
ATOM      4  C   UNL     1       5.492  -4.745  -0.563  0.00  0.00    +0.107 A 
ATOM      5  N   UNL     1       4.580  -5.382   0.203  0.00  0.00    -0.284 N 
ATOM      6  H   UNL     1       4.639  -6.299   0.514  0.00  0.00    +0.188 HD
ATOM      7  N   UNL     1       3.537  -4.487   0.477  0.00  0.00    -0.171 NA
BRANCH   2  15
ATOM      8  C   UNL     1      -0.016   1.339  -0.009  0.00  0.00    +0.001 A 
ATOM      9  C   UNL     1       1.169   2.061  -0.006  0.00  0.00    +0.004 A 
ATOM     10  C   UNL     1       2.387   1.416  -0.026  0.00  0.00    +0.047 A 
ATOM     11  C   UNL     1       2.434   0.028  -0.050  0.00  0.00    +0.136 A 
ATOM     12  C   UNL     1       1.231  -0.699  -0.053  0.00  0.00    +0.021 A 
ATOM     13  C   UNL     1       0.007  -0.028  -0.033  0.00  0.00    +0.011 A 
ATOM     14  C   UNL     1       1.622  -2.111  -0.081  0.00  0.00    +0.060 A 
ATOM     15  C   UNL     1       2.976  -2.125  -0.091  0.00  0.00    +0.156 A 
ATOM     16  O   UNL     1       3.447  -0.863  -0.073  0.00  0.00    -0.453 OA
ENDBRANCH   2  15
ENDBRANCH   1   3
BRANCH   1  17
ATOM     17  N   UNL     1       6.453  -1.506  -0.677  0.00  0.00    +0.384 N 
ATOM     18  H   UNL     1       5.784  -1.071  -0.059  0.00  0.00    -0.085 HD
ATOM     19  H   UNL     1       7.130  -2.019  -0.133  0.00  0.00    -0.085 HD
BRANCH  17  20
ATOM     20  C   UNL     1       7.139  -0.471  -1.462  0.00  0.00    -0.046 C 
BRANCH  20  21
ATOM     21  C   UNL     1       7.856   0.473  -0.531  0.00  0.00    -0.063 A 
ATOM     22  C   UNL     1       7.204   1.592  -0.046  0.00  0.00    +0.002 A 
ATOM     23  C   UNL     1       7.858   2.461   0.809  0.00  0.00    +0.002 A 
ATOM     24  C   UNL     1       9.165   2.212   1.181  0.00  0.00    +0.023 A 
ATOM     25  C   UNL     1       9.822   1.089   0.696  0.00  0.00    +0.036 A 
ATOM     26  C   UNL     1       9.161   0.216  -0.159  0.00  0.00    +0.025 A 
BRANCH  25  27
ATOM     27  N   UNL     1      11.146   0.835   1.070  0.00  0.00    -0.271 N 
ATOM     28  C   UNL     1      11.891  -0.376   0.707  0.00  0.00    +0.114 C 
ATOM     29  C   UNL     1      13.378  -0.031   0.944  0.00  0.00    +0.029 C 
ATOM     30  C   UNL     1      13.278   1.081   2.013  0.00  0.00    +0.098 C 
ATOM     31  C   UNL     1      11.901   1.671   1.804  0.00  0.00    +0.220 C 
ATOM     32  O   UNL     1      11.530   2.742   2.237  0.00  0.00    -0.275 OA
ENDBRANCH  25  27
ENDBRANCH  20  21
ENDBRANCH  17  20
ENDBRANCH   1  17
TORSDOF 6
