REMARK  Name = ZINC20611384
REMARK  5 active torsions:
REMARK  status: ('A' for Active; 'I' for Inactive)
REMARK    1  A    between atoms: C_1  and  C_2
REMARK    2  A    between atoms: C_5  and  N_8
REMARK    3  A    between atoms: C_11  and  C_18
REMARK    4  A    between atoms: C_24  and  O_30
REMARK    5  A    between atoms: O_30  and  C_31
REMARK                            x       y       z     vdW  Elec       q    Type
REMARK                         _______ _______ _______ _____ _____    ______ ____
ROOT
ATOM      1  C   UNL     1       0.312  -7.025   2.415  0.00  0.00    +0.018 C 
ATOM      2  C   UNL     1       1.655  -6.746   3.047  0.00  0.00    +0.011 A 
ATOM      3  C   UNL     1       1.813  -6.530   4.373  0.00  0.00    -0.022 A 
ATOM      4  C   UNL     1       3.220  -6.297   4.605  0.00  0.00    +0.006 A 
ATOM      5  C   UNL     1       3.961  -6.021   5.760  0.00  0.00    +0.056 A 
ATOM      6  C   UNL     1       5.327  -5.850   5.599  0.00  0.00    +0.121 A 
ATOM      7  C   UNL     1       5.937  -5.947   4.355  0.00  0.00    +0.047 A 
ATOM      8  C   UNL     1       5.221  -6.219   3.203  0.00  0.00    +0.030 A 
ATOM      9  C   UNL     1       3.846  -6.395   3.335  0.00  0.00    +0.047 A 
ATOM     10  N   UNL     1       2.867  -6.669   2.419  0.00  0.00    -0.359 N 
ATOM     11  H   UNL     1       3.012  -6.790   1.468  0.00  0.00    +0.166 HD
ATOM     12  C   UNL     1       0.668  -6.553   5.356  0.00  0.00    +0.018 C 
ATOM     13  C   UNL     1      -0.530  -7.219   4.666  0.00  0.00    -0.076 C 
ATOM     14  N   UNL     1      -0.746  -6.606   3.348  0.00  0.00    +0.388 N 
ATOM     15  H   UNL     1      -0.730  -5.602   3.442  0.00  0.00    -0.084 HD
ATOM     16  H   UNL     1      -1.643  -6.893   2.986  0.00  0.00    -0.084 HD
ENDROOT
BRANCH   1  20
ATOM     17  N   UNL     1       0.059  -4.172  -0.021  0.00  0.00    -0.229 N 
ATOM     18  C   UNL     1       0.170  -4.846   1.141  0.00  0.00    +0.267 A 
ATOM     19  O   UNL     1       0.254  -4.240   2.196  0.00  0.00    -0.267 OA
ATOM     20  C   UNL     1       0.188  -6.251   1.128  0.00  0.00    +0.073 A 
ATOM     21  C   UNL     1       0.091  -6.904  -0.065  0.00  0.00    +0.260 A 
ATOM     22  N   UNL     1      -0.021  -6.179  -1.224  0.00  0.00    -0.274 N 
ATOM     23  H   UNL     1      -0.090  -6.639  -2.075  0.00  0.00    +0.173 HD
ATOM     24  C   UNL     1      -0.041  -4.834  -1.188  0.00  0.00    +0.337 A 
ATOM     25  O   UNL     1      -0.145  -4.209  -2.225  0.00  0.00    -0.246 OA
ATOM     26  O   UNL     1       0.106  -8.254  -0.105  0.00  0.00    -0.267 OA
BRANCH  17  31
ATOM     27  C   UNL     1      -0.016   1.503   0.012  0.00  0.00    +0.044 C 
ATOM     28  C   UNL     1       0.004  -0.004   0.003  0.00  0.00    -0.050 A 
ATOM     29  C   UNL     1      -1.181  -0.710   0.107  0.00  0.00    +0.005 A 
ATOM     30  C   UNL     1      -1.166  -2.091   0.099  0.00  0.00    +0.026 A 
ATOM     31  C   UNL     1       0.040  -2.771  -0.013  0.00  0.00    +0.054 A 
ATOM     32  C   UNL     1       1.228  -2.059  -0.117  0.00  0.00    +0.026 A 
ATOM     33  C   UNL     1       1.206  -0.678  -0.114  0.00  0.00    +0.005 A 
ENDBRANCH  17  31
ENDBRANCH   1  20
BRANCH   6  34
ATOM     34  O   UNL     1       6.092  -5.580   6.691  0.00  0.00    -0.495 OA
ATOM     35  C   UNL     1       7.495  -5.413   6.475  0.00  0.00    +0.277 C 
ENDBRANCH   6  34
TORSDOF 3
