REMARK  Name = ZINC59021124
REMARK  8 active torsions:
REMARK  status: ('A' for Active; 'I' for Inactive)
REMARK    1  A    between atoms: C_4  and  O_22
REMARK    2  A    between atoms: C_5  and  C_7
REMARK    3  A    between atoms: C_7  and  N_8
REMARK    4  A    between atoms: C_9  and  C_11
REMARK    5  A    between atoms: O_22  and  C_23
REMARK    6  A    between atoms: C_23  and  C_24
REMARK    7  A    between atoms: N_26  and  C_27
REMARK    8  A    between atoms: C_27  and  C_28
REMARK                            x       y       z     vdW  Elec       q    Type
REMARK                         _______ _______ _______ _____ _____    ______ ____
ROOT
ATOM      1  C   UNL     1      -0.017   1.378   0.010  0.00  0.00    +0.001 A 
ATOM      2  C   UNL     1       1.170   2.088   0.002  0.00  0.00    +0.004 A 
ATOM      3  C   UNL     1       2.377   1.417  -0.013  0.00  0.00    +0.046 A 
ATOM      4  C   UNL     1       2.399   0.030  -0.021  0.00  0.00    +0.126 A 
ATOM      5  C   UNL     1       1.207  -0.680  -0.013  0.00  0.00    +0.011 A 
ATOM      6  C   UNL     1       0.002  -0.004   0.002  0.00  0.00    +0.009 A 
ENDROOT
BRANCH   5   7
ATOM      7  C   UNL     1       1.227  -2.187  -0.022  0.00  0.00    +0.143 C 
BRANCH   7   8
ATOM      8  N   UNL     1       1.487  -2.679   1.333  0.00  0.00    -0.306 N 
ATOM      9  C   UNL     1       1.549  -4.005   1.568  0.00  0.00    +0.261 C 
ATOM     10  O   UNL     1       1.390  -4.793   0.654  0.00  0.00    -0.269 OA
ATOM     11  H   UNL     1       1.614  -2.051   2.062  0.00  0.00    +0.149 HD
BRANCH   9  12
ATOM     12  C   UNL     1       1.810  -4.500   2.928  0.00  0.00    +0.103 A 
ATOM     13  C   UNL     1       1.902  -5.807   3.286  0.00  0.00    +0.041 A 
ATOM     14  C   UNL     1       2.160  -5.856   4.678  0.00  0.00    +0.002 A 
ATOM     15  C   UNL     1       2.348  -6.907   5.585  0.00  0.00    +0.030 A 
ATOM     16  C   UNL     1       2.585  -6.633   6.901  0.00  0.00    +0.042 A 
ATOM     17  C   UNL     1       2.643  -5.318   7.351  0.00  0.00    +0.022 A 
ATOM     18  C   UNL     1       2.461  -4.269   6.478  0.00  0.00    +0.027 A 
ATOM     19  C   UNL     1       2.218  -4.524   5.131  0.00  0.00    +0.047 A 
ATOM     20  N   UNL     1       2.007  -3.709   4.043  0.00  0.00    -0.351 N 
ATOM     21  H   UNL     1       1.996  -2.740   4.057  0.00  0.00    +0.166 HD
ATOM     22 CL   UNL     1       2.817  -7.937   8.023  0.00  0.00    -0.084 Cl
ENDBRANCH   9  12
ENDBRANCH   7   8
ENDBRANCH   5   7
BRANCH   4  23
ATOM     23  O   UNL     1       3.586  -0.632  -0.037  0.00  0.00    -0.482 OA
BRANCH  23  24
ATOM     24  C   UNL     1       4.772   0.164  -0.045  0.00  0.00    +0.324 C 
BRANCH  24  25
ATOM     25  C   UNL     1       5.981  -0.737  -0.062  0.00  0.00    +0.251 C 
ATOM     26  O   UNL     1       5.839  -1.941  -0.067  0.00  0.00    -0.272 OA
ATOM     27  N   UNL     1       7.218  -0.204  -0.072  0.00  0.00    -0.310 N 
ATOM     28  H   UNL     1       7.332   0.760  -0.068  0.00  0.00    +0.149 HD
BRANCH  27  29
ATOM     29  C   UNL     1       8.393  -1.079  -0.089  0.00  0.00    +0.135 C 
BRANCH  29  30
ATOM     30  C   UNL     1       9.664  -0.227  -0.097  0.00  0.00    +0.135 C 
ATOM     31  C   UNL     1      10.919  -1.134  -0.150  0.00  0.00    +0.035 C 
ATOM     32  C   UNL     1      11.955  -0.167  -0.786  0.00  0.00    +0.031 C 
ATOM     33  C   UNL     1      11.079   0.665  -1.747  0.00  0.00    +0.160 C 
ATOM     34  O   UNL     1       9.723   0.569  -1.292  0.00  0.00    -0.375 OA
ENDBRANCH  29  30
ENDBRANCH  27  29
ENDBRANCH  24  25
ENDBRANCH  23  24
ENDBRANCH   4  23
TORSDOF 8
