REMARK  Name = ZINC46561499
REMARK  7 active torsions:
REMARK  status: ('A' for Active; 'I' for Inactive)
REMARK    1  A    between atoms: C_1  and  N_2
REMARK    2  A    between atoms: N_2  and  C_3
REMARK    3  A    between atoms: N_2  and  C_14
REMARK    4  A    between atoms: C_3  and  C_4
REMARK    5  A    between atoms: C_6  and  N_11
REMARK    6  A    between atoms: C_14  and  C_15
REMARK    7  A    between atoms: C_28  and  C_30
REMARK                            x       y       z     vdW  Elec       q    Type
REMARK                         _______ _______ _______ _____ _____    ______ ____
ROOT
ATOM      1  C   UNL     1       2.284  -0.358   0.867  0.00  0.00    +0.204 C 
ATOM      2  O   UNL     1       2.654   0.096  -0.195  0.00  0.00    -0.277 OA
ATOM      3  N   UNL     1       3.186  -0.659   1.822  0.00  0.00    -0.259 N 
ATOM      4  C   UNL     1       2.773  -1.190   3.052  0.00  0.00    +0.058 A 
ATOM      5  C   UNL     1       2.119  -0.397   3.980  0.00  0.00    +0.025 A 
ATOM      6  C   UNL     1       1.740  -0.932   5.197  0.00  0.00    +0.002 A 
ATOM      7  C   UNL     1       2.013  -2.256   5.492  0.00  0.00    +0.002 A 
ATOM      8  C   UNL     1       2.658  -3.057   4.568  0.00  0.00    +0.025 A 
ATOM      9  C   UNL     1       3.030  -2.531   3.342  0.00  0.00    +0.055 A 
ATOM     10  N   UNL     1       3.634  -3.336   2.369  0.00  0.00    -0.284 N 
ATOM     11  C   UNL     1       4.748  -2.919   1.729  0.00  0.00    +0.219 C 
ATOM     12  O   UNL     1       5.212  -3.588   0.830  0.00  0.00    -0.275 OA
ATOM     13  C   UNL     1       5.416  -1.629   2.123  0.00  0.00    +0.128 C 
ATOM     14  C   UNL     1       4.616  -0.444   1.592  0.00  0.00    +0.194 C 
ATOM     15  H   UNL     1       3.249  -4.200   2.153  0.00  0.00    +0.155 HD
ENDROOT
BRANCH  14  16
ATOM     16  C   UNL     1       5.061   0.829   2.314  0.00  0.00    +0.409 C 
ATOM     17  F   UNL     1       4.825   0.694   3.686  0.00  0.00    -0.169 F 
ATOM     18  F   UNL     1       6.427   1.037   2.095  0.00  0.00    -0.169 F 
ATOM     19  F   UNL     1       4.339   1.922   1.822  0.00  0.00    -0.169 F 
ENDBRANCH  14  16
BRANCH   1  20
ATOM     20  C   UNL     1       0.816  -0.585   1.119  0.00  0.00    +0.019 C 
BRANCH  20  22
ATOM     21  C   UNL     1       0.187   1.267  -0.269  0.00  0.00    -0.095 C 
ATOM     22  N   UNL     1       0.047  -0.181  -0.066  0.00  0.00    +0.386 N 
ATOM     23  H   UNL     1       0.397  -0.670  -0.876  0.00  0.00    -0.081 HD
BRANCH  22  24
ATOM     24  C   UNL     1      -1.370  -0.513   0.133  0.00  0.00    -0.041 C 
BRANCH  24  25
ATOM     25  C   UNL     1      -2.135  -0.226  -1.133  0.00  0.00    -0.043 A 
ATOM     26  C   UNL     1      -2.918   0.910  -1.225  0.00  0.00    +0.036 A 
ATOM     27  C   UNL     1      -3.620   1.173  -2.386  0.00  0.00    +0.126 A 
ATOM     28  C   UNL     1      -3.541   0.301  -3.455  0.00  0.00    +0.034 A 
ATOM     29  C   UNL     1      -2.759  -0.834  -3.365  0.00  0.00    +0.022 A 
ATOM     30  C   UNL     1      -2.051  -1.096  -2.205  0.00  0.00    +0.042 A 
ATOM     31 CL   UNL     1      -1.062  -2.518  -2.093  0.00  0.00    -0.083 Cl
BRANCH  27  32
ATOM     32  N   UNL     1      -4.458   2.390  -2.483  0.00  0.00    +0.056 N 
ATOM     33  O   UNL     1      -4.528   3.152  -1.548  0.00  0.00    -0.126 OA
ATOM     34  O   UNL     1      -5.073   2.620  -3.498  0.00  0.00    -0.126 OA
ENDBRANCH  27  32
ENDBRANCH  24  25
ENDBRANCH  22  24
ENDBRANCH  20  22
ENDBRANCH   1  20
TORSDOF 6
