REMARK  Name = ZINC36660436
REMARK  12 active torsions:
REMARK  status: ('A' for Active; 'I' for Inactive)
REMARK    1  A    between atoms: C_1  and  C_2
REMARK    2  A    between atoms: C_7  and  C_8
REMARK    3  A    between atoms: N_12  and  C_13
REMARK    4  A    between atoms: C_13  and  C_14
REMARK    5  A    between atoms: C_14  and  N_15
REMARK    6  A    between atoms: N_15  and  C_16
REMARK    7  A    between atoms: N_15  and  C_17
REMARK    8  A    between atoms: C_18  and  C_20
REMARK    9  A    between atoms: N_25  and  S_26
REMARK   10  A    between atoms: S_26  and  C_29
REMARK   11  A    between atoms: C_32  and  O_35
REMARK   12  A    between atoms: O_35  and  C_36
REMARK                            x       y       z     vdW  Elec       q    Type
REMARK                         _______ _______ _______ _____ _____    ______ ____
ROOT
ATOM      1  C   UNL     1      -1.167   1.149   0.109  0.00  0.00    +0.044 C 
ATOM      2  C   UNL     1      -0.933  -0.335   0.224  0.00  0.00    -0.045 A 
ATOM      3  C   UNL     1      -0.790  -1.091  -0.931  0.00  0.00    +0.005 A 
ATOM      4  C   UNL     1      -0.576  -2.453  -0.828  0.00  0.00    +0.017 A 
ATOM      5  C   UNL     1      -0.508  -3.035   0.413  0.00  0.00    +0.041 A 
ATOM      6  C   UNL     1      -0.649  -2.298   1.611  0.00  0.00    +0.083 A 
ATOM      7  C   UNL     1      -0.862  -0.908   1.467  0.00  0.00    -0.021 A 
ATOM      8  C   UNL     1      -1.017  -0.046   2.694  0.00  0.00    +0.046 C 
ATOM      9  N   UNL     1      -0.559  -3.014   2.752  0.00  0.00    -0.224 NA
ATOM     10  C   UNL     1      -0.353  -4.311   2.758  0.00  0.00    +0.168 A 
ATOM     11  S   UNL     1      -0.258  -4.689   1.014  0.00  0.00    -0.052 S 
ATOM     12  N   UNL     1      -0.238  -5.168   3.840  0.00  0.00    -0.251 N 
ATOM     13  C   UNL     1      -0.417  -4.701   5.092  0.00  0.00    +0.240 C 
ATOM     14  O   UNL     1      -0.608  -3.517   5.276  0.00  0.00    -0.273 OA
ENDROOT
BRANCH  13  15
ATOM     15  C   UNL     1      -0.379  -5.649   6.263  0.00  0.00    +0.166 C 
ATOM     16  C   UNL     1      -1.792  -6.206   6.533  0.00  0.00    +0.031 C 
ATOM     17  C   UNL     1      -1.856  -6.254   8.083  0.00  0.00    +0.019 C 
ATOM     18  C   UNL     1      -1.040  -4.995   8.467  0.00  0.00    +0.110 C 
ATOM     19  N   UNL     1       0.051  -4.932   7.472  0.00  0.00    -0.165 NA
BRANCH  19  20
ATOM     20  S   UNL     1       1.512  -4.182   7.682  0.00  0.00    +0.062 S 
ATOM     21  O   UNL     1       1.775  -4.188   9.079  0.00  0.00    -0.153 OA
ATOM     22  O   UNL     1       2.403  -4.757   6.737  0.00  0.00    -0.153 OA
BRANCH  20  23
ATOM     23  C   UNL     1       1.303  -2.495   7.217  0.00  0.00    +0.106 A 
ATOM     24  C   UNL     1       1.615  -2.090   5.932  0.00  0.00    +0.032 A 
ATOM     25  C   UNL     1       1.452  -0.768   5.565  0.00  0.00    +0.047 A 
ATOM     26  C   UNL     1       0.976   0.153   6.486  0.00  0.00    +0.120 A 
ATOM     27  C   UNL     1       0.663  -0.256   7.774  0.00  0.00    +0.047 A 
ATOM     28  C   UNL     1       0.823  -1.580   8.135  0.00  0.00    +0.032 A 
BRANCH  26  29
ATOM     29  O   UNL     1       0.816   1.454   6.128  0.00  0.00    -0.495 OA
ATOM     30  C   UNL     1       0.321   2.346   7.128  0.00  0.00    +0.277 C 
ENDBRANCH  26  29
ENDBRANCH  20  23
ENDBRANCH  19  20
ENDBRANCH  13  15
BRANCH  12  31
ATOM     31  C   UNL     1       0.077  -6.582   3.624  0.00  0.00    +0.097 C 
BRANCH  31  32
ATOM     32  C   UNL     1       1.589  -6.788   3.723  0.00  0.00    -0.060 C 
BRANCH  32  33
ATOM     33  N   UNL     1       1.905  -8.207   3.506  0.00  0.00    +0.377 N 
ATOM     34  C   UNL     1       3.363  -8.385   3.481  0.00  0.00    -0.097 C 
ATOM     35  C   UNL     1       1.333  -9.008   4.596  0.00  0.00    -0.097 C 
ATOM     36  H   UNL     1       1.515  -8.508   2.626  0.00  0.00    -0.083 HD
ENDBRANCH  32  33
ENDBRANCH  31  32
ENDBRANCH  12  31
TORSDOF 7
