REMARK  Name = ZINC10385969
REMARK  13 active torsions:
REMARK  status: ('A' for Active; 'I' for Inactive)
REMARK    1  A    between atoms: C_1  and  C_2
REMARK    2  A    between atoms: C_5  and  N_9
REMARK    3  A    between atoms: C_6  and  C_8
REMARK    4  A    between atoms: C_10  and  C_12
REMARK    5  A    between atoms: C_12  and  S_13
REMARK    6  A    between atoms: S_13  and  C_14
REMARK    7  A    between atoms: C_17  and  C_19
REMARK    8  A    between atoms: C_19  and  N_20
REMARK    9  A    between atoms: C_21  and  C_23
REMARK   10  A    between atoms: C_26  and  S_29
REMARK   11  A    between atoms: S_29  and  N_32
REMARK   12  A    between atoms: N_32  and  C_33
REMARK   13  A    between atoms: N_32  and  C_34
REMARK                            x       y       z     vdW  Elec       q    Type
REMARK                         _______ _______ _______ _____ _____    ______ ____
ROOT
ATOM      1  C   UNL     1      -0.015   1.343  -0.022  0.00  0.00    +0.278 A 
ATOM      2  N   UNL     1       1.232   1.749  -0.038  0.00  0.00    -0.101 NA
ATOM      3  N   UNL     1       2.012   0.726  -0.061  0.00  0.00    -0.110 NA
ATOM      4  C   UNL     1       1.302  -0.364  -0.060  0.00  0.00    +0.235 A 
ATOM      5  O   UNL     1       0.003  -0.004  -0.035  0.00  0.00    -0.414 OA
ENDROOT
BRANCH   1   6
ATOM      6  S   UNL     1      -1.448   2.368   0.005  0.00  0.00    -0.056 S 
BRANCH   6   7
ATOM      7  C   UNL     1      -0.666   4.000   0.012  0.00  0.00    +0.175 C 
BRANCH   7   9
ATOM      8  N   UNL     1      -1.380   6.369   0.043  0.00  0.00    -0.285 N 
ATOM      9  C   UNL     1      -1.731   5.067   0.035  0.00  0.00    +0.228 C 
ATOM     10  O   UNL     1      -2.902   4.754   0.046  0.00  0.00    -0.275 OA
ATOM     11  H   UNL     1      -0.446   6.619   0.116  0.00  0.00    +0.155 HD
BRANCH   8  16
ATOM     12  C   UNL     1      -5.371  10.383  -0.343  0.00  0.00    +0.044 C 
ATOM     13  C   UNL     1      -4.311   9.316  -0.240  0.00  0.00    -0.050 A 
ATOM     14  C   UNL     1      -4.553   8.052  -0.746  0.00  0.00    +0.005 A 
ATOM     15  C   UNL     1      -3.583   7.073  -0.653  0.00  0.00    +0.024 A 
ATOM     16  C   UNL     1      -2.365   7.359  -0.052  0.00  0.00    +0.036 A 
ATOM     17  C   UNL     1      -2.127   8.627   0.460  0.00  0.00    -0.029 A 
ATOM     18  C   UNL     1      -3.099   9.604   0.359  0.00  0.00    +0.008 A 
ATOM     19  C   UNL     1      -0.808   8.940   1.119  0.00  0.00    +0.045 C 
ENDBRANCH   8  16
ENDBRANCH   7   9
ENDBRANCH   6   7
ENDBRANCH   1   6
BRANCH   4  20
ATOM     20  C   UNL     1       1.834  -1.773  -0.082  0.00  0.00    +0.202 C 
BRANCH  20  21
ATOM     21  N   UNL     1       2.029  -2.243   1.292  0.00  0.00    -0.303 N 
ATOM     22  C   UNL     1       2.501  -3.485   1.519  0.00  0.00    +0.244 C 
ATOM     23  O   UNL     1       2.765  -4.215   0.584  0.00  0.00    -0.270 OA
ATOM     24  H   UNL     1       1.819  -1.660   2.039  0.00  0.00    +0.150 HD
BRANCH  22  25
ATOM     25  C   UNL     1       2.699  -3.959   2.906  0.00  0.00    +0.037 A 
ATOM     26  C   UNL     1       2.402  -3.121   3.982  0.00  0.00    +0.015 A 
ATOM     27  C   UNL     1       2.583  -3.571   5.273  0.00  0.00    +0.029 A 
ATOM     28  C   UNL     1       3.068  -4.846   5.503  0.00  0.00    +0.105 A 
ATOM     29  C   UNL     1       3.369  -5.680   4.440  0.00  0.00    +0.029 A 
ATOM     30  C   UNL     1       3.187  -5.244   3.144  0.00  0.00    +0.015 A 
BRANCH  28  31
ATOM     31  S   UNL     1       3.302  -5.412   7.155  0.00  0.00    +0.060 S 
ATOM     32  O   UNL     1       2.433  -4.642   7.975  0.00  0.00    -0.153 OA
ATOM     33  O   UNL     1       3.249  -6.831   7.110  0.00  0.00    -0.153 OA
BRANCH  31  34
ATOM     34  N   UNL     1       4.847  -5.010   7.595  0.00  0.00    -0.183 NA
ATOM     35  C   UNL     1       5.115  -3.717   8.230  0.00  0.00    +0.131 C 
ATOM     36  C   UNL     1       5.946  -5.947   7.350  0.00  0.00    +0.131 C 
ENDBRANCH  31  34
ENDBRANCH  28  31
ENDBRANCH  22  25
ENDBRANCH  20  21
ENDBRANCH   4  20
TORSDOF 9
