REMARK  Name = ZINC36607841
REMARK  11 active torsions:
REMARK  status: ('A' for Active; 'I' for Inactive)
REMARK    1  A    between atoms: C_1  and  C_2
REMARK    2  A    between atoms: C_2  and  C_3
REMARK    3  A    between atoms: C_2  and  C_4
REMARK    4  A    between atoms: C_2  and  N_5
REMARK    5  A    between atoms: C_6  and  C_8
REMARK    6  A    between atoms: C_8  and  C_10
REMARK    7  A    between atoms: C_8  and  N_17
REMARK    8  A    between atoms: C_14  and  O_16
REMARK    9  A    between atoms: N_17  and  C_18
REMARK   10  A    between atoms: C_24  and  C_26
REMARK   11  A    between atoms: C_26  and  C_27
REMARK                            x       y       z     vdW  Elec       q    Type
REMARK                         _______ _______ _______ _____ _____    ______ ____
ROOT
ATOM      1  C   UNL     1       2.754  -0.762  -2.624  0.00  0.00    +0.197 C 
ENDROOT
BRANCH   1   2
ATOM      2  C   UNL     1       2.850  -2.263  -2.720  0.00  0.00    -0.014 A 
ATOM      3  C   UNL     1       3.934  -2.922  -2.171  0.00  0.00    +0.006 A 
ATOM      4  C   UNL     1       4.026  -4.298  -2.257  0.00  0.00    +0.004 A 
ATOM      5  C   UNL     1       3.033  -5.019  -2.893  0.00  0.00    +0.045 A 
ATOM      6  C   UNL     1       1.944  -4.361  -3.445  0.00  0.00    +0.117 A 
ATOM      7  C   UNL     1       1.852  -2.979  -3.351  0.00  0.00    +0.051 A 
BRANCH   6   8
ATOM      8  O   UNL     1       0.967  -5.067  -4.071  0.00  0.00    -0.507 OA
ATOM      9  H   UNL     1       0.249  -5.349  -3.486  0.00  0.00    +0.292 HD
ENDBRANCH   6   8
ENDBRANCH   1   2
BRANCH   1  11
ATOM     10  N   UNL     1       1.651  -0.796  -0.410  0.00  0.00    -0.309 N 
ATOM     11  C   UNL     1       2.669  -0.355  -1.175  0.00  0.00    +0.239 C 
ATOM     12  O   UNL     1       3.517   0.369  -0.699  0.00  0.00    -0.273 OA
ATOM     13  H   UNL     1       0.973  -1.375  -0.791  0.00  0.00    +0.149 HD
BRANCH  10  15
ATOM     14  C   UNL     1       1.472   1.123   1.096  0.00  0.00    +0.031 C 
ATOM     15  C   UNL     1       1.569  -0.401   0.998  0.00  0.00    +0.026 C 
ATOM     16  C   UNL     1       2.821  -0.880   1.736  0.00  0.00    +0.031 C 
ATOM     17  C   UNL     1       0.330  -1.033   1.634  0.00  0.00    +0.031 C 
ENDBRANCH  10  15
ENDBRANCH   1  11
BRANCH   1  18
ATOM     18  N   UNL     1       3.941  -0.156  -3.233  0.00  0.00    -0.255 N 
ATOM     19  C   UNL     1       4.024   1.183  -3.361  0.00  0.00    +0.225 C 
ATOM     20  O   UNL     1       3.082   1.881  -3.050  0.00  0.00    -0.275 OA
BRANCH  18  21
ATOM     21  C   UNL     1       4.988  -0.968  -3.681  0.00  0.00    +0.037 A 
ATOM     22  C   UNL     1       4.815  -1.773  -4.800  0.00  0.00    +0.023 A 
ATOM     23  C   UNL     1       5.851  -2.573  -5.240  0.00  0.00    +0.002 A 
ATOM     24  C   UNL     1       7.060  -2.574  -4.568  0.00  0.00    +0.000 A 
ATOM     25  C   UNL     1       7.236  -1.774  -3.454  0.00  0.00    +0.002 A 
ATOM     26  C   UNL     1       6.205  -0.967  -3.012  0.00  0.00    +0.023 A 
ENDBRANCH  18  21
BRANCH  19  27
ATOM     27  C   UNL     1       5.286   1.812  -3.891  0.00  0.00    +0.131 C 
BRANCH  27  28
ATOM     28  C   UNL     1       5.158   3.313  -3.844  0.00  0.00    -0.039 A 
ATOM     29  C   UNL     1       4.632   3.996  -4.924  0.00  0.00    +0.005 A 
ATOM     30  C   UNL     1       4.514   5.372  -4.881  0.00  0.00    +0.015 A 
ATOM     31  C   UNL     1       4.921   6.066  -3.756  0.00  0.00    +0.018 A 
ATOM     32  C   UNL     1       5.447   5.382  -2.675  0.00  0.00    +0.015 A 
ATOM     33  C   UNL     1       5.561   4.005  -2.717  0.00  0.00    +0.005 A 
ATOM     34 BR   UNL     1       4.760   7.949  -3.696  0.00  0.00    -0.050 Br
ENDBRANCH  27  28
ENDBRANCH  19  27
ENDBRANCH   1  18
TORSDOF 8
