REMARK  Name = ZINC19897236
REMARK  7 active torsions:
REMARK  status: ('A' for Active; 'I' for Inactive)
REMARK    1  A    between atoms: C_1  and  C_2
REMARK    2  A    between atoms: C_2  and  S_3
REMARK    3  A    between atoms: S_3  and  C_4
REMARK    4  A    between atoms: C_10  and  C_11
REMARK    5  A    between atoms: C_13  and  C_25
REMARK    6  A    between atoms: N_14  and  C_17
REMARK    7  A    between atoms: C_15  and  C_16
REMARK                            x       y       z     vdW  Elec       q    Type
REMARK                         _______ _______ _______ _____ _____    ______ ____
ROOT
ATOM      1  C   UNL     1      -0.139  -4.212   3.669  0.00  0.00    +0.156 C 
ATOM      2  N   UNL     1       0.767  -4.851   2.970  0.00  0.00    -0.158 NA
ATOM      3  N   UNL     1       0.406  -5.806   2.044  0.00  0.00    -0.153 N 
ATOM      4  C   UNL     1       1.296  -6.616   1.309  0.00  0.00    +0.132 C 
ATOM      5  N   UNL     1       2.520  -6.871   1.693  0.00  0.00    -0.385 N 
ATOM      6  C   UNL     1       0.705  -7.153   0.052  0.00  0.00    +0.079 C 
ATOM      7  C   UNL     1       1.468  -7.362  -1.079  0.00  0.00    +0.026 C 
ATOM      8  C   UNL     1      -0.747  -7.452   0.080  0.00  0.00    +0.273 C 
ATOM      9  O   UNL     1      -1.232  -8.279  -0.676  0.00  0.00    -0.268 OA
ATOM     10  N   UNL     1      -1.514  -6.785   0.964  0.00  0.00    -0.152 NA
ATOM     11  C   UNL     1      -0.942  -6.001   1.844  0.00  0.00    +0.181 C 
ATOM     12  S   UNL     1      -1.660  -4.923   3.055  0.00  0.00    -0.027 S 
ATOM     13  H   UNL     1       2.884  -6.429   2.476  0.00  0.00    +0.157 HD
ATOM     14  H   UNL     1       3.063  -7.502   1.196  0.00  0.00    +0.157 HD
ENDROOT
BRANCH   7  15
ATOM     15  C   UNL     1       2.811  -6.905  -1.123  0.00  0.00    -0.003 A 
ATOM     16  C   UNL     1       3.361  -5.710  -0.468  0.00  0.00    +0.031 A 
ATOM     17  C   UNL     1       4.667  -5.672  -0.782  0.00  0.00    +0.022 A 
ATOM     18  N   UNL     1       4.970  -6.743  -1.576  0.00  0.00    -0.317 N 
ATOM     19  C   UNL     1       3.873  -7.497  -1.786  0.00  0.00    +0.028 A 
ATOM     20  C   UNL     1       3.811  -8.762  -2.603  0.00  0.00    +0.064 C 
ATOM     21  C   UNL     1       5.642  -4.615  -0.332  0.00  0.00    +0.064 C 
BRANCH  18  22
ATOM     22  C   UNL     1       6.243  -7.021  -2.092  0.00  0.00    +0.048 A 
ATOM     23  C   UNL     1       6.463  -6.977  -3.463  0.00  0.00    +0.027 A 
ATOM     24  C   UNL     1       7.718  -7.251  -3.970  0.00  0.00    +0.023 A 
ATOM     25  C   UNL     1       8.757  -7.570  -3.113  0.00  0.00    +0.059 A 
ATOM     26  C   UNL     1       8.541  -7.615  -1.746  0.00  0.00    +0.061 A 
ATOM     27  C   UNL     1       7.288  -7.336  -1.234  0.00  0.00    +0.047 A 
ATOM     28 CL   UNL     1       9.847  -8.015  -0.675  0.00  0.00    -0.082 Cl
ATOM     29 CL   UNL     1      10.333  -7.915  -3.754  0.00  0.00    -0.082 Cl
ENDBRANCH  18  22
ENDBRANCH   7  15
BRANCH   1  30
ATOM     30  S   UNL     1       0.086  -2.975   4.903  0.00  0.00    -0.097 S 
BRANCH  30  32
ATOM     31  C   UNL     1       2.224  -1.705   6.042  0.00  0.00    +0.016 C 
ATOM     32  C   UNL     1       1.886  -2.767   4.993  0.00  0.00    +0.073 C 
ENDBRANCH  30  32
ENDBRANCH   1  30
TORSDOF 4
