REMARK  Name = ZINC32967460
REMARK  4 active torsions:
REMARK  status: ('A' for Active; 'I' for Inactive)
REMARK    1  A    between atoms: C_5  and  C_7
REMARK    2  A    between atoms: N_9  and  N_10
REMARK    3  A    between atoms: C_11  and  C_13
REMARK    4  A    between atoms: C_13  and  N_14
REMARK                            x       y       z     vdW  Elec       q    Type
REMARK                         _______ _______ _______ _____ _____    ______ ____
ROOT
ATOM      1  N   UNL     1       0.121  -4.256  -0.024  0.00  0.00    -0.233 N 
ATOM      2  C   UNL     1      -1.033  -4.952  -0.016  0.00  0.00    +0.247 C 
ATOM      3  O   UNL     1      -2.094  -4.365  -0.002  0.00  0.00    -0.273 OA
ATOM      4  H   UNL     1       0.970  -4.725  -0.035  0.00  0.00    +0.173 HD
ENDROOT
BRANCH   1   7
ATOM      5  C   UNL     1       1.250  -2.160  -0.023  0.00  0.00    +0.263 C 
ATOM      6  O   UNL     1       2.314  -2.748  -0.037  0.00  0.00    -0.269 OA
ATOM      7  N   UNL     1       0.095  -2.855  -0.015  0.00  0.00    -0.230 N 
ATOM      8  H   UNL     1      -0.753  -2.386  -0.004  0.00  0.00    +0.173 HD
BRANCH   5  13
ATOM      9  C   UNL     1      -0.017   1.374   0.010  0.00  0.00    +0.001 A 
ATOM     10  C   UNL     1       1.170   2.087   0.002  0.00  0.00    +0.003 A 
ATOM     11  C   UNL     1       2.383   1.425  -0.013  0.00  0.00    +0.039 A 
ATOM     12  C   UNL     1       2.418   0.042  -0.022  0.00  0.00    +0.136 A 
ATOM     13  C   UNL     1       1.222  -0.683  -0.014  0.00  0.00    +0.073 A 
ATOM     14  C   UNL     1       0.002  -0.004   0.002  0.00  0.00    +0.016 A 
ATOM     15  F   UNL     1       3.603  -0.606  -0.038  0.00  0.00    -0.205 F 
ENDBRANCH   5  13
ENDBRANCH   1   7
BRANCH   2  16
ATOM     16  C   UNL     1      -1.005  -6.458  -0.025  0.00  0.00    +0.215 C 
BRANCH  16  17
ATOM     17  N   UNL     1      -2.377  -6.972  -0.014  0.00  0.00    -0.215 N 
ATOM     18  C   UNL     1      -3.078  -7.240   1.108  0.00  0.00    +0.247 C 
ATOM     19  O   UNL     1      -2.709  -7.108   2.256  0.00  0.00    -0.273 OA
ATOM     20  C   UNL     1      -4.418  -7.739   0.631  0.00  0.00    +0.113 C 
ATOM     21  C   UNL     1      -5.554  -6.843   1.140  0.00  0.00    +0.035 C 
ATOM     22  C   UNL     1      -6.724  -7.828   1.395  0.00  0.00    +0.003 C 
ATOM     23  C   UNL     1      -6.003  -9.083   1.948  0.00  0.00    +0.003 C 
ATOM     24  C   UNL     1      -4.693  -9.159   1.132  0.00  0.00    +0.035 C 
ATOM     25  N   UNL     1      -4.325  -7.697  -0.830  0.00  0.00    -0.285 N 
ATOM     26  C   UNL     1      -3.094  -7.229  -1.116  0.00  0.00    +0.310 C 
ATOM     27  O   UNL     1      -2.679  -7.063  -2.246  0.00  0.00    -0.252 OA
ATOM     28  H   UNL     1      -5.013  -7.952  -1.465  0.00  0.00    +0.151 HD
ENDBRANCH  16  17
ENDBRANCH   2  16
TORSDOF 4
