REMARK  Name = ZINC57614957
REMARK  9 active torsions:
REMARK  status: ('A' for Active; 'I' for Inactive)
REMARK    1  A    between atoms: C_1  and  C_2
REMARK    2  A    between atoms: C_2  and  N_3
REMARK    3  A    between atoms: N_3  and  C_4
REMARK    4  A    between atoms: N_3  and  C_6
REMARK    5  A    between atoms: C_4  and  C_5
REMARK    6  A    between atoms: C_6  and  C_7
REMARK    7  A    between atoms: C_7  and  N_8
REMARK    8  A    between atoms: N_17  and  C_18
REMARK    9  A    between atoms: C_18  and  C_20
REMARK                            x       y       z     vdW  Elec       q    Type
REMARK                         _______ _______ _______ _____ _____    ______ ____
ROOT
ATOM      1  N   UNL     1      -0.604  -3.780   2.105  0.00  0.00    -0.314 N 
ATOM      2  C   UNL     1      -1.564  -4.488   2.822  0.00  0.00    +0.068 A 
ATOM      3  C   UNL     1      -2.758  -4.117   3.424  0.00  0.00    +0.028 A 
ATOM      4  C   UNL     1      -3.519  -5.062   4.082  0.00  0.00    +0.002 A 
ATOM      5  C   UNL     1      -3.096  -6.379   4.144  0.00  0.00    +0.002 A 
ATOM      6  C   UNL     1      -1.910  -6.758   3.549  0.00  0.00    +0.028 A 
ATOM      7  C   UNL     1      -1.138  -5.816   2.884  0.00  0.00    +0.066 A 
ATOM      8  N   UNL     1       0.074  -5.891   2.204  0.00  0.00    -0.326 N 
ATOM      9  C   UNL     1       0.378  -4.649   1.734  0.00  0.00    +0.201 A 
ATOM     10  N   UNL     1       1.457  -4.336   1.033  0.00  0.00    -0.142 NA
ATOM     11  H   UNL     1       0.608  -6.691   2.082  0.00  0.00    +0.169 HD
ENDROOT
BRANCH  10  12
ATOM     12  C   UNL     1       2.296  -5.301   0.625  0.00  0.00    +0.277 C 
ATOM     13  O   UNL     1       2.018  -6.474   0.818  0.00  0.00    -0.267 OA
BRANCH  12  14
ATOM     14  C   UNL     1       3.547  -4.947  -0.053  0.00  0.00    +0.080 A 
ATOM     15  C   UNL     1       4.528  -5.781  -0.549  0.00  0.00    +0.049 A 
ATOM     16  C   UNL     1       5.644  -5.229  -1.162  0.00  0.00    +0.082 A 
ATOM     17  C   UNL     1       5.694  -3.834  -1.235  0.00  0.00    +0.128 A 
ATOM     18  S   UNL     1       4.182  -3.327  -0.454  0.00  0.00    -0.062 S 
ATOM     19  N   UNL     1       6.814  -3.467  -1.844  0.00  0.00    -0.214 NA
ATOM     20  C   UNL     1       7.495  -4.532  -2.171  0.00  0.00    +0.179 A 
ATOM     21  N   UNL     1       6.842  -5.671  -1.785  0.00  0.00    -0.293 N 
ATOM     22  C   UNL     1       7.453  -6.871  -2.070  0.00  0.00    +0.101 A 
ATOM     23  C   UNL     1       8.630  -6.905  -2.695  0.00  0.00    +0.067 A 
ATOM     24  S   UNL     1       8.970  -5.169  -2.934  0.00  0.00    -0.058 S 
ENDBRANCH  12  14
ENDBRANCH  10  12
BRANCH   1  25
ATOM     25  C   UNL     1      -0.645  -2.349   1.796  0.00  0.00    +0.106 C 
BRANCH  25  26
ATOM     26  C   UNL     1      -1.371  -2.135   0.466  0.00  0.00    -0.057 C 
BRANCH  26  27
ATOM     27  N   UNL     1      -1.411  -0.700   0.156  0.00  0.00    +0.380 N 
ATOM     28  H   UNL     1      -1.829  -0.201   0.927  0.00  0.00    -0.082 HD
BRANCH  27  30
ATOM     29  C   UNL     1      -0.074   1.312  -0.246  0.00  0.00    -0.017 C 
ATOM     30  C   UNL     1      -0.045  -0.207  -0.064  0.00  0.00    -0.082 C 
ENDBRANCH  27  30
BRANCH  27  31
ATOM     31  C   UNL     1      -2.211  -0.483  -1.057  0.00  0.00    -0.082 C 
ATOM     32  C   UNL     1      -3.667  -0.863  -0.783  0.00  0.00    -0.017 C 
ENDBRANCH  27  31
ENDBRANCH  26  27
ENDBRANCH  25  26
ENDBRANCH   1  25
TORSDOF 7
