REMARK  Name = ZINC33072114
REMARK  6 active torsions:
REMARK  status: ('A' for Active; 'I' for Inactive)
REMARK    1  A    between atoms: C_1  and  C_2
REMARK    2  A    between atoms: C_8  and  C_12
REMARK    3  A    between atoms: C_12  and  C_13
REMARK    4  A    between atoms: C_13  and  N_14
REMARK    5  A    between atoms: C_15  and  C_17
REMARK    6  A    between atoms: C_29  and  C_34
REMARK                            x       y       z     vdW  Elec       q    Type
REMARK                         _______ _______ _______ _____ _____    ______ ____
ROOT
ATOM      1  C   UNL     1      -2.531  -2.013   7.793  0.00  0.00    +0.092 C 
ATOM      2  C   UNL     1      -1.719  -0.753   8.104  0.00  0.00    +0.016 C 
ATOM      3  C   UNL     1      -1.687  -0.526   9.617  0.00  0.00    +0.020 C 
ATOM      4  C   UNL     1      -3.115  -0.320  10.130  0.00  0.00    +0.108 C 
ATOM      5  N   UNL     1      -3.938  -1.462   9.709  0.00  0.00    -0.302 N 
ATOM      6  C   UNL     1      -3.969  -1.824   8.285  0.00  0.00    +0.120 C 
ATOM      7  C   UNL     1      -4.668  -2.181  10.632  0.00  0.00    +0.174 A 
ATOM      8  N   UNL     1      -5.379  -3.314  10.359  0.00  0.00    -0.327 N 
ATOM      9  H   UNL     1      -5.459  -3.749   9.496  0.00  0.00    +0.169 HD
ATOM     10  C   UNL     1      -5.965  -3.727  11.545  0.00  0.00    +0.066 A 
ATOM     11  C   UNL     1      -6.785  -4.789  11.893  0.00  0.00    +0.031 A 
ATOM     12  C   UNL     1      -7.213  -4.927  13.197  0.00  0.00    -0.048 A 
ATOM     13  C   UNL     1      -6.828  -4.010  14.164  0.00  0.00    +0.005 A 
ATOM     14  C   UNL     1      -6.014  -2.949  13.836  0.00  0.00    +0.028 A 
ATOM     15  C   UNL     1      -5.572  -2.795  12.520  0.00  0.00    +0.065 A 
ATOM     16  N   UNL     1      -4.778  -1.881  11.902  0.00  0.00    -0.327 N 
ATOM     17  C   UNL     1      -8.105  -6.082  13.574  0.00  0.00    +0.044 C 
ATOM     18  H   UNL     1      -4.359  -1.121  12.335  0.00  0.00    +0.169 HD
ENDROOT
BRANCH   1  20
ATOM     19  N   UNL     1      -1.373  -2.446   5.650  0.00  0.00    -0.315 N 
ATOM     20  C   UNL     1      -2.535  -2.253   6.305  0.00  0.00    +0.218 C 
ATOM     21  O   UNL     1      -3.585  -2.273   5.698  0.00  0.00    -0.275 OA
ATOM     22  H   UNL     1      -0.534  -2.430   6.136  0.00  0.00    +0.149 HD
BRANCH  19  23
ATOM     23  C   UNL     1      -1.378  -2.680   4.204  0.00  0.00    +0.109 C 
BRANCH  23  24
ATOM     24  C   UNL     1       0.059  -2.867   3.713  0.00  0.00    +0.056 C 
BRANCH  24  32
ATOM     25  C   UNL     1      -0.018   1.503   0.010  0.00  0.00    +0.044 C 
ATOM     26  C   UNL     1       0.002  -0.004   0.002  0.00  0.00    -0.050 A 
ATOM     27  C   UNL     1       0.006  -0.686  -1.207  0.00  0.00    +0.005 A 
ATOM     28  C   UNL     1       0.024  -2.063  -1.237  0.00  0.00    +0.026 A 
ATOM     29  C   UNL     1       0.039  -2.780  -0.045  0.00  0.00    +0.047 A 
ATOM     30  C   UNL     1       0.036  -2.084   1.178  0.00  0.00    +0.003 A 
ATOM     31  C   UNL     1       0.023  -0.688   1.185  0.00  0.00    +0.013 A 
ATOM     32  C   UNL     1       0.055  -3.107   2.226  0.00  0.00    -0.021 A 
ATOM     33  C   UNL     1       0.067  -4.300   1.610  0.00  0.00    +0.087 A 
ATOM     34  N   UNL     1       0.058  -4.124   0.253  0.00  0.00    -0.360 N 
ATOM     35  H   UNL     1       0.065  -4.840  -0.402  0.00  0.00    +0.165 HD
ENDBRANCH  24  32
ENDBRANCH  23  24
ENDBRANCH  19  23
ENDBRANCH   1  20
TORSDOF 4
