REMARK  Name = ZINC08990840
REMARK  12 active torsions:
REMARK  status: ('A' for Active; 'I' for Inactive)
REMARK    1  A    between atoms: C_1  and  C_2
REMARK    2  A    between atoms: C_5  and  C_34
REMARK    3  A    between atoms: C_9  and  C_10
REMARK    4  A    between atoms: C_9  and  N_64
REMARK    5  A    between atoms: C_11  and  O_33
REMARK    6  A    between atoms: C_18  and  C_19
REMARK    7  A    between atoms: C_21  and  O_29
REMARK    8  A    between atoms: C_22  and  O_27
REMARK    9  A    between atoms: C_24  and  O_25
REMARK   10  A    between atoms: O_25  and  C_26
REMARK   11  A    between atoms: O_27  and  C_28
REMARK   12  A    between atoms: O_29  and  C_30
REMARK                            x       y       z     vdW  Elec       q    Type
REMARK                         _______ _______ _______ _____ _____    ______ ____
ROOT
ATOM      1  C   UNL     1      -1.477   2.751   9.182  0.00  0.00    +0.020 A 
ATOM      2  C   UNL     1      -1.566   2.975  10.546  0.00  0.00    +0.122 A 
ATOM      3  C   UNL     1      -0.608   2.457  11.414  0.00  0.00    +0.046 A 
ATOM      4  C   UNL     1       0.432   1.719  10.925  0.00  0.00    +0.019 A 
ATOM      5  C   UNL     1       0.535   1.485   9.554  0.00  0.00    +0.068 A 
ATOM      6  C   UNL     1      -0.424   2.002   8.669  0.00  0.00    +0.144 A 
ATOM      7  O   UNL     1      -0.112   1.651   7.403  0.00  0.00    -0.451 OA
ATOM      8  C   UNL     1       1.017   0.904   7.352  0.00  0.00    +0.176 C 
ATOM      9  C   UNL     1       1.592   0.393   6.231  0.00  0.00    +0.062 C 
ATOM     10  C   UNL     1       1.509   0.750   8.726  0.00  0.00    +0.231 C 
ATOM     11  O   UNL     1       2.502   0.148   9.100  0.00  0.00    -0.283 OA
ENDROOT
BRANCH   9  12
ATOM     12  C   UNL     1       1.070   0.755   4.911  0.00  0.00    +0.024 A 
ATOM     13  C   UNL     1       0.227   1.865   4.766  0.00  0.00    +0.061 A 
ATOM     14  C   UNL     1      -0.256   2.204   3.520  0.00  0.00    +0.162 A 
ATOM     15  C   UNL     1       0.084   1.437   2.404  0.00  0.00    +0.165 A 
ATOM     16  C   UNL     1       0.917   0.337   2.538  0.00  0.00    +0.095 A 
ATOM     17  C   UNL     1       1.413  -0.011   3.782  0.00  0.00    +0.131 A 
BRANCH  17  18
ATOM     18  O   UNL     1       2.229  -1.088   3.913  0.00  0.00    -0.494 OA
ATOM     19  C   UNL     1       2.535  -1.818   2.723  0.00  0.00    +0.277 C 
ENDBRANCH  17  18
BRANCH  15  20
ATOM     20  O   UNL     1      -0.400   1.773   1.180  0.00  0.00    -0.491 OA
ATOM     21  C   UNL     1      -0.009   0.950   0.080  0.00  0.00    +0.277 C 
ENDBRANCH  15  20
BRANCH  14  22
ATOM     22  O   UNL     1      -1.071   3.284   3.379  0.00  0.00    -0.491 OA
ATOM     23  C   UNL     1      -1.295   4.084   4.541  0.00  0.00    +0.277 C 
ENDBRANCH  14  22
ENDBRANCH   9  12
BRANCH   2  24
ATOM     24  O   UNL     1      -2.597   3.707  11.042  0.00  0.00    -0.506 OA
ATOM     25  H   UNL     1      -3.375   3.183  11.275  0.00  0.00    +0.292 HD
ENDBRANCH   2  24
BRANCH   1  26
ATOM     26  C   UNL     1      -2.521   3.317   8.255  0.00  0.00    -0.036 C 
BRANCH  26  34
ATOM     27  C   UNL     1      -4.240  -1.055   6.799  0.00  0.00    +0.005 C 
ATOM     28  C   UNL     1      -4.553   0.219   7.586  0.00  0.00    -0.031 C 
ATOM     29  C   UNL     1      -5.807   0.882   7.009  0.00  0.00    +0.003 C 
ATOM     30  C   UNL     1      -6.079   2.186   7.764  0.00  0.00    -0.031 C 
ATOM     31  C   UNL     1      -4.855   3.099   7.653  0.00  0.00    -0.075 C 
ATOM     32  C   UNL     1      -3.374   1.189   7.480  0.00  0.00    -0.075 C 
ATOM     33  C   UNL     1      -6.352   1.877   9.237  0.00  0.00    +0.005 C 
ATOM     34  N   UNL     1      -3.689   2.413   8.247  0.00  0.00    +0.383 N 
ATOM     35  H   UNL     1      -3.914   2.151   9.214  0.00  0.00    -0.081 HD
ENDBRANCH  26  34
ENDBRANCH   1  26
TORSDOF 7
