REMARK  Name = ZINC36153280
REMARK  12 active torsions:
REMARK  status: ('A' for Active; 'I' for Inactive)
REMARK    1  A    between atoms: C_1  and  C_2
REMARK    2  A    between atoms: C_5  and  S_8
REMARK    3  A    between atoms: S_8  and  N_11
REMARK    4  A    between atoms: C_14  and  C_17
REMARK    5  A    between atoms: C_17  and  C_19
REMARK    6  A    between atoms: C_17  and  N_30
REMARK    7  A    between atoms: N_21  and  C_22
REMARK    8  A    between atoms: C_22  and  C_23
REMARK    9  A    between atoms: C_31  and  C_33
REMARK   10  A    between atoms: C_33  and  C_34
REMARK   11  A    between atoms: C_34  and  C_35
REMARK   12  A    between atoms: C_34  and  C_36
REMARK                            x       y       z     vdW  Elec       q    Type
REMARK                         _______ _______ _______ _____ _____    ______ ____
ROOT
ATOM      1  C   UNL     1       4.508  -8.153  -0.078  0.00  0.00    +0.162 C 
ENDROOT
BRANCH   1   5
ATOM      2  N   UNL     1       1.651  -4.999  -0.034  0.00  0.00    -0.177 NA
ATOM      3  C   UNL     1       2.364  -5.199  -1.304  0.00  0.00    +0.110 C 
ATOM      4  C   UNL     1       2.984  -6.599  -1.306  0.00  0.00    +0.023 C 
ATOM      5  C   UNL     1       3.858  -6.767  -0.061  0.00  0.00    +0.021 C 
ATOM      6  C   UNL     1       2.995  -6.624   1.194  0.00  0.00    +0.023 C 
ATOM      7  C   UNL     1       2.376  -5.218   1.225  0.00  0.00    +0.110 C 
BRANCH   2   8
ATOM      8  S   UNL     1       0.063  -4.530  -0.023  0.00  0.00    +0.061 S 
ATOM      9  O   UNL     1      -0.476  -4.950   1.223  0.00  0.00    -0.153 OA
ATOM     10  O   UNL     1      -0.490  -4.937  -1.267  0.00  0.00    -0.153 OA
BRANCH   8  15
ATOM     11  C   UNL     1      -0.018   1.503   0.010  0.00  0.00    +0.044 C 
ATOM     12  C   UNL     1       0.002  -0.004   0.002  0.00  0.00    -0.050 A 
ATOM     13  C   UNL     1       0.006  -0.689  -1.199  0.00  0.00    +0.005 A 
ATOM     14  C   UNL     1       0.025  -2.071  -1.206  0.00  0.00    +0.029 A 
ATOM     15  C   UNL     1       0.040  -2.768  -0.013  0.00  0.00    +0.105 A 
ATOM     16  C   UNL     1       0.037  -2.084   1.188  0.00  0.00    +0.029 A 
ATOM     17  C   UNL     1       0.023  -0.702   1.195  0.00  0.00    +0.005 A 
ENDBRANCH   8  15
ENDBRANCH   2   8
ENDBRANCH   1   5
BRANCH   1  18
ATOM     18  C   UNL     1       5.360  -8.294  -1.313  0.00  0.00    +0.234 C 
ATOM     19  O   UNL     1       6.561  -8.145  -1.241  0.00  0.00    -0.274 OA
ATOM     20  N   UNL     1       4.786  -8.585  -2.497  0.00  0.00    -0.310 N 
ATOM     21  H   UNL     1       3.825  -8.704  -2.554  0.00  0.00    +0.149 HD
BRANCH  20  22
ATOM     22  C   UNL     1       5.614  -8.722  -3.698  0.00  0.00    +0.139 C 
BRANCH  22  23
ATOM     23  C   UNL     1       4.737  -9.047  -4.879  0.00  0.00    -0.030 A 
ATOM     24  C   UNL     1       4.462 -10.365  -5.193  0.00  0.00    +0.008 A 
ATOM     25  C   UNL     1       3.656 -10.665  -6.275  0.00  0.00    +0.038 A 
ATOM     26  C   UNL     1       3.126  -9.644  -7.046  0.00  0.00    +0.123 A 
ATOM     27  C   UNL     1       3.402  -8.325  -6.731  0.00  0.00    +0.038 A 
ATOM     28  C   UNL     1       4.203  -8.027  -5.644  0.00  0.00    +0.008 A 
ATOM     29  F   UNL     1       2.339  -9.936  -8.105  0.00  0.00    -0.205 F 
ENDBRANCH  22  23
ENDBRANCH  20  22
ENDBRANCH   1  18
BRANCH   1  30
ATOM     30  N   UNL     1       5.345  -8.314   1.114  0.00  0.00    -0.304 N 
ATOM     31  C   UNL     1       6.376  -7.474   1.332  0.00  0.00    +0.214 C 
ATOM     32  O   UNL     1       6.611  -6.584   0.542  0.00  0.00    -0.276 OA
ATOM     33  H   UNL     1       5.157  -9.025   1.746  0.00  0.00    +0.149 HD
BRANCH  31  34
ATOM     34  C   UNL     1       7.237  -7.640   2.558  0.00  0.00    +0.098 C 
BRANCH  34  35
ATOM     35  C   UNL     1       8.326  -6.566   2.564  0.00  0.00    -0.008 C 
ATOM     36  C   UNL     1       9.123  -6.655   3.868  0.00  0.00    +0.008 C 
ATOM     37  C   UNL     1       9.266  -6.785   1.377  0.00  0.00    +0.008 C 
ENDBRANCH  34  35
ENDBRANCH  31  34
ENDBRANCH   1  30
TORSDOF 9
