REMARK  Name = ZINC02806040
REMARK  13 active torsions:
REMARK  status: ('A' for Active; 'I' for Inactive)
REMARK    1  A    between atoms: C_1  and  C_2
REMARK    2  A    between atoms: C_3  and  C_32
REMARK    3  A    between atoms: C_4  and  C_22
REMARK    4  A    between atoms: C_10  and  C_15
REMARK    5  A    between atoms: C_26  and  O_30
REMARK    6  A    between atoms: C_27  and  O_28
REMARK    7  A    between atoms: O_28  and  C_29
REMARK    8  A    between atoms: O_30  and  C_31
REMARK    9  A    between atoms: C_32  and  O_34
REMARK   10  A    between atoms: O_34  and  C_35
REMARK   11  A    between atoms: C_35  and  C_36
REMARK   12  A    between atoms: C_36  and  O_37
REMARK   13  A    between atoms: O_37  and  C_38
REMARK                            x       y       z     vdW  Elec       q    Type
REMARK                         _______ _______ _______ _____ _____    ______ ____
ROOT
ATOM      1  C   UNL     1      -6.769  -0.677   4.400  0.00  0.00    +0.061 C 
ATOM      2  C   UNL     1      -6.543  -0.259   2.970  0.00  0.00    +0.016 C 
ATOM      3  C   UNL     1      -7.351  -0.726   2.002  0.00  0.00    +0.065 C 
ATOM      4  C   UNL     1      -7.160  -0.325   0.569  0.00  0.00    +0.096 C 
ATOM      5  C   UNL     1      -5.784   0.248   0.346  0.00  0.00    +0.024 C 
ATOM      6  C   UNL     1      -5.041   0.683   1.386  0.00  0.00    +0.016 C 
ATOM      7  N   UNL     1      -5.518   0.593   2.666  0.00  0.00    -0.321 N 
ATOM      8  C   UNL     1      -3.670   1.273   1.168  0.00  0.00    +0.059 C 
ATOM      9  C   UNL     1      -3.022   0.630  -0.060  0.00  0.00    +0.032 C 
ATOM     10  C   UNL     1      -3.930   0.869  -1.270  0.00  0.00    +0.088 C 
ATOM     11  C   UNL     1      -5.299   0.320  -0.972  0.00  0.00    +0.162 C 
ATOM     12  O   UNL     1      -5.997  -0.070  -1.887  0.00  0.00    -0.292 OA
ATOM     13  H   UNL     1      -5.069   1.216   3.453  0.00  0.00    +0.152 HD
ENDROOT
BRANCH   9  14
ATOM     14  C   UNL     1      -1.673   1.255  -0.307  0.00  0.00    -0.043 A 
ATOM     15  C   UNL     1      -0.537   0.468  -0.308  0.00  0.00    +0.005 A 
ATOM     16  C   UNL     1       0.700   1.040  -0.541  0.00  0.00    +0.020 A 
ATOM     17  C   UNL     1       0.800   2.401  -0.768  0.00  0.00    +0.041 A 
ATOM     18  C   UNL     1      -0.337   3.189  -0.761  0.00  0.00    +0.020 A 
ATOM     19  C   UNL     1      -1.573   2.616  -0.528  0.00  0.00    +0.005 A 
ATOM     20 CL   UNL     1       2.353   3.119  -1.061  0.00  0.00    -0.084 Cl
ENDBRANCH   9  14
BRANCH   4  21
ATOM     21  C   UNL     1      -8.193   0.710   0.203  0.00  0.00    +0.010 A 
ATOM     22  C   UNL     1      -9.246   0.373  -0.627  0.00  0.00    +0.008 A 
ATOM     23  C   UNL     1     -10.198   1.319  -0.960  0.00  0.00    +0.004 A 
ATOM     24  C   UNL     1     -10.095   2.609  -0.473  0.00  0.00    +0.049 A 
ATOM     25  C   UNL     1      -9.039   2.954   0.355  0.00  0.00    +0.162 A 
ATOM     26  C   UNL     1      -8.084   2.001   0.694  0.00  0.00    +0.166 A 
BRANCH  26  27
ATOM     27  O   UNL     1      -7.046   2.335   1.507  0.00  0.00    -0.491 OA
ATOM     28  C   UNL     1      -6.018   3.153   0.944  0.00  0.00    +0.277 C 
ENDBRANCH  26  27
BRANCH  25  29
ATOM     29  O   UNL     1      -8.936   4.223   0.835  0.00  0.00    -0.491 OA
ATOM     30  C   UNL     1      -9.953   5.148   0.445  0.00  0.00    +0.277 C 
ENDBRANCH  25  29
ENDBRANCH   4  21
BRANCH   3  31
ATOM     31  C   UNL     1      -8.400  -1.611   2.342  0.00  0.00    +0.338 C 
ATOM     32  O   UNL     1      -8.506  -2.020   3.483  0.00  0.00    -0.245 OA
BRANCH  31  33
ATOM     33  O   UNL     1      -9.284  -2.002   1.400  0.00  0.00    -0.459 OA
BRANCH  33  34
ATOM     34  C   UNL     1     -10.382  -2.808   1.835  0.00  0.00    +0.260 C 
BRANCH  34  35
ATOM     35  C   UNL     1     -11.200  -3.253   0.621  0.00  0.00    +0.200 C 
BRANCH  35  36
ATOM     36  O   UNL     1     -10.411  -4.125  -0.191  0.00  0.00    -0.380 OA
ATOM     37  C   UNL     1     -11.086  -4.600  -1.358  0.00  0.00    +0.194 C 
ENDBRANCH  35  36
ENDBRANCH  34  35
ENDBRANCH  33  34
ENDBRANCH  31  33
ENDBRANCH   3  31
TORSDOF 9
