REMARK  Name = ZINC39517958
REMARK  5 active torsions:
REMARK  status: ('A' for Active; 'I' for Inactive)
REMARK    1  A    between atoms: C_1  and  C_2
REMARK    2  A    between atoms: C_3  and  C_28
REMARK    3  A    between atoms: N_9  and  C_12
REMARK    4  A    between atoms: C_12  and  C_13
REMARK    5  A    between atoms: C_18  and  C_21
REMARK                            x       y       z     vdW  Elec       q    Type
REMARK                         _______ _______ _______ _____ _____    ______ ____
ROOT
ATOM      1  C   UNL     1      -1.363  -0.492   5.473  0.00  0.00    +0.239 C 
ATOM      2  O   UNL     1      -2.288  -0.775   4.741  0.00  0.00    -0.273 OA
ATOM      3  N   UNL     1      -1.604  -0.051   6.724  0.00  0.00    -0.263 N 
ATOM      4  C   UNL     1      -2.912   0.079   7.174  0.00  0.00    +0.165 A 
ATOM      5  N   UNL     1      -3.331   0.495   8.348  0.00  0.00    -0.225 NA
ATOM      6  C   UNL     1      -4.626   0.565   8.629  0.00  0.00    +0.082 A 
ATOM      7  C   UNL     1      -5.488   0.185   7.638  0.00  0.00    +0.077 A 
ATOM      8  S   UNL     1      -4.338  -0.249   6.344  0.00  0.00    -0.060 S 
ATOM      9  H   UNL     1      -0.865   0.175   7.309  0.00  0.00    +0.157 HD
ENDROOT
BRANCH   6  10
ATOM     10  C   UNL     1      -5.114   1.031   9.951  0.00  0.00    +0.028 A 
ATOM     11  C   UNL     1      -6.476   1.197  10.189  0.00  0.00    +0.039 A 
ATOM     12  C   UNL     1      -6.881   1.624  11.408  0.00  0.00    +0.080 A 
ATOM     13  S   UNL     1      -5.333   1.811  12.277  0.00  0.00    -0.065 S 
ATOM     14  C   UNL     1      -4.237   1.303  10.963  0.00  0.00    +0.089 A 
ATOM     15 CL   UNL     1      -2.505   1.185  10.969  0.00  0.00    -0.075 Cl
ATOM     16 CL   UNL     1      -8.494   1.916  11.980  0.00  0.00    -0.076 Cl
ENDBRANCH   6  10
BRANCH   1  17
ATOM     17  C   UNL     1       0.056  -0.634   4.985  0.00  0.00    +0.222 C 
BRANCH  17  26
ATOM     18  C   UNL     1      -0.040   1.510  -0.000  0.00  0.00    +0.045 C 
ATOM     19  C   UNL     1      -0.011   0.004  -0.006  0.00  0.00    -0.026 A 
ATOM     20  C   UNL     1      -0.006  -0.672  -1.166  0.00  0.00    -0.008 A 
ATOM     21  S   UNL     1       0.030  -2.378  -0.651  0.00  0.00    -0.073 S 
ATOM     22  C   UNL     1       0.037  -2.134   1.107  0.00  0.00    +0.116 A 
ATOM     23  C   UNL     1       0.017  -0.735   1.243  0.00  0.00    +0.075 A 
ATOM     24  C   UNL     1       0.022  -0.244   2.590  0.00  0.00    +0.263 A 
ATOM     25  O   UNL     1       0.001   0.955   2.812  0.00  0.00    -0.267 OA
ATOM     26  N   UNL     1       0.050  -1.127   3.605  0.00  0.00    -0.290 N 
ATOM     27  C   UNL     1       0.074  -2.465   3.377  0.00  0.00    +0.203 A 
ATOM     28  N   UNL     1       0.060  -2.944   2.162  0.00  0.00    -0.230 NA
ATOM     29  C   UNL     1      -0.026  -0.119  -2.568  0.00  0.00    +0.052 C 
ENDBRANCH  17  26
ENDBRANCH   1  17
TORSDOF 3
