REMARK  Name = ZINC09946523
REMARK  9 active torsions:
REMARK  status: ('A' for Active; 'I' for Inactive)
REMARK    1  A    between atoms: C_1  and  C_2
REMARK    2  A    between atoms: C_3  and  C_25
REMARK    3  A    between atoms: C_5  and  S_8
REMARK    4  A    between atoms: S_8  and  C_9
REMARK    5  A    between atoms: C_9  and  C_11
REMARK    6  A    between atoms: C_9  and  C_12
REMARK    7  A    between atoms: N_14  and  C_15
REMARK    8  A    between atoms: C_18  and  N_22
REMARK    9  A    between atoms: C_25  and  C_26
REMARK                            x       y       z     vdW  Elec       q    Type
REMARK                         _______ _______ _______ _____ _____    ______ ____
ROOT
ATOM      1  C   UNL     1       5.341   1.754  -3.909  0.00  0.00    +0.137 C 
ATOM      2  C   UNL     1       4.144   0.853  -3.600  0.00  0.00    +0.029 C 
ENDROOT
BRANCH   1   3
ATOM      3  C   UNL     1       6.282   1.037  -4.843  0.00  0.00    +0.230 C 
ATOM      4  O   UNL     1       6.265   1.287  -6.030  0.00  0.00    -0.274 OA
ATOM      5  N   UNL     1       7.141   0.118  -4.360  0.00  0.00    -0.283 N 
ATOM      6  H   UNL     1       7.200  -0.036  -3.404  0.00  0.00    +0.155 HD
BRANCH   5   7
ATOM      7  C   UNL     1       7.948  -0.615  -5.238  0.00  0.00    +0.052 A 
ATOM      8  C   UNL     1       8.437  -0.021  -6.394  0.00  0.00    +0.027 A 
ATOM      9  C   UNL     1       9.233  -0.747  -7.258  0.00  0.00    +0.034 A 
ATOM     10  C   UNL     1       9.544  -2.064  -6.974  0.00  0.00    +0.128 A 
ATOM     11  C   UNL     1       9.060  -2.659  -5.824  0.00  0.00    +0.054 A 
ATOM     12  C   UNL     1       8.267  -1.937  -4.952  0.00  0.00    +0.064 A 
ATOM     13 CL   UNL     1       7.665  -2.682  -3.504  0.00  0.00    -0.082 Cl
BRANCH  10  14
ATOM     14  N   UNL     1      10.398  -2.839  -7.902  0.00  0.00    +0.056 N 
ATOM     15  O   UNL     1      10.826  -2.316  -8.916  0.00  0.00    -0.126 OA
ATOM     16  O   UNL     1      10.673  -3.999  -7.653  0.00  0.00    -0.126 OA
ENDBRANCH  10  14
ENDBRANCH   5   7
ENDBRANCH   1   3
BRANCH   1  17
ATOM     17  S   UNL     1       4.762   3.280  -4.690  0.00  0.00    -0.075 S 
BRANCH  17  22
ATOM     18  C   UNL     1       1.719   6.472  -1.711  0.00  0.00    +0.065 C 
ATOM     19  C   UNL     1       2.571   5.312  -2.156  0.00  0.00    +0.037 A 
ATOM     20  C   UNL     1       2.906   4.237  -1.421  0.00  0.00    +0.067 A 
ATOM     21  N   UNL     1       3.678   3.435  -2.173  0.00  0.00    -0.226 NA
ATOM     22  C   UNL     1       3.832   3.970  -3.362  0.00  0.00    +0.167 A 
ATOM     23  N   UNL     1       3.156   5.151  -3.392  0.00  0.00    -0.337 N 
ATOM     24  H   UNL     1       3.095   5.782  -4.166  0.00  0.00    +0.168 HD
BRANCH  20  25
ATOM     25  C   UNL     1       2.491   3.979   0.004  0.00  0.00    +0.092 C 
BRANCH  25  26
ATOM     26  C   UNL     1       1.191   3.217   0.019  0.00  0.00    -0.042 A 
ATOM     27  C   UNL     1       1.201   1.835   0.015  0.00  0.00    +0.004 A 
ATOM     28  C   UNL     1       0.008   1.135   0.029  0.00  0.00    +0.000 A 
ATOM     29  C   UNL     1      -1.194   1.819   0.040  0.00  0.00    +0.000 A 
ATOM     30  C   UNL     1      -1.203   3.201   0.049  0.00  0.00    +0.000 A 
ATOM     31  C   UNL     1      -0.010   3.900   0.036  0.00  0.00    +0.004 A 
ENDBRANCH  25  26
ENDBRANCH  20  25
ENDBRANCH  17  22
ENDBRANCH   1  17
TORSDOF 7
