REMARK  Name = ZINC09726181
REMARK  15 active torsions:
REMARK  status: ('A' for Active; 'I' for Inactive)
REMARK    1  A    between atoms: C_1  and  C_2
REMARK    2  A    between atoms: C_2  and  O_3
REMARK    3  A    between atoms: O_3  and  C_4
REMARK    4  A    between atoms: C_6  and  C_16
REMARK    5  A    between atoms: C_8  and  O_13
REMARK    6  A    between atoms: C_9  and  O_10
REMARK    7  A    between atoms: O_10  and  C_11
REMARK    8  A    between atoms: C_11  and  C_12
REMARK    9  A    between atoms: O_13  and  C_14
REMARK   10  A    between atoms: C_14  and  C_15
REMARK   11  A    between atoms: C_16  and  N_18
REMARK   12  A    between atoms: N_20  and  C_32
REMARK   13  A    between atoms: C_24  and  S_28
REMARK   14  A    between atoms: S_28  and  N_31
REMARK   15  A    between atoms: C_32  and  C_33
REMARK                            x       y       z     vdW  Elec       q    Type
REMARK                         _______ _______ _______ _____ _____    ______ ____
ROOT
ATOM      1  N   UNL     1       5.553   4.349   1.131  0.00  0.00    -0.152 NA
ATOM      2  C   UNL     1       6.728   4.969   1.123  0.00  0.00    +0.168 A 
ATOM      3  N   UNL     1       7.484   5.356   2.185  0.00  0.00    -0.310 N 
ATOM      4  C   UNL     1       8.693   5.996   1.978  0.00  0.00    +0.059 A 
ATOM      5  C   UNL     1       9.604   6.466   2.937  0.00  0.00    +0.029 A 
ATOM      6  C   UNL     1      10.770   7.085   2.554  0.00  0.00    +0.030 A 
ATOM      7  C   UNL     1      11.082   7.263   1.216  0.00  0.00    +0.106 A 
ATOM      8  C   UNL     1      10.202   6.809   0.250  0.00  0.00    +0.045 A 
ATOM      9  C   UNL     1       9.035   6.190   0.632  0.00  0.00    +0.041 A 
ATOM     10  S   UNL     1       7.669   5.471  -0.244  0.00  0.00    -0.052 S 
ENDROOT
BRANCH   7  11
ATOM     11  S   UNL     1      12.584   8.059   0.750  0.00  0.00    +0.056 S 
ATOM     12  O   UNL     1      13.483   7.899   1.838  0.00  0.00    -0.153 OA
ATOM     13  O   UNL     1      12.890   7.612  -0.563  0.00  0.00    -0.153 OA
BRANCH  11  14
ATOM     14  N   UNL     1      12.263   9.680   0.635  0.00  0.00    -0.204 NA
ATOM     15  H   UNL     1      12.961  10.327   0.821  0.00  0.00    +0.144 HD
ATOM     16  H   UNL     1      11.377   9.982   0.383  0.00  0.00    +0.144 HD
ENDBRANCH  11  14
ENDBRANCH   7  11
BRANCH   1  17
ATOM     17  C   UNL     1       4.950   4.043  -0.024  0.00  0.00    +0.270 C 
ATOM     18  O   UNL     1       5.479   4.334  -1.083  0.00  0.00    -0.268 OA
BRANCH  17  21
ATOM     19  C   UNL     1       1.809   2.381   1.204  0.00  0.00    +0.166 A 
ATOM     20  C   UNL     1       3.035   3.020   1.198  0.00  0.00    +0.062 A 
ATOM     21  C   UNL     1       3.642   3.353  -0.015  0.00  0.00    +0.046 A 
ATOM     22  C   UNL     1       3.012   3.034  -1.219  0.00  0.00    +0.062 A 
ATOM     23  C   UNL     1       1.789   2.389  -1.208  0.00  0.00    +0.166 A 
ATOM     24  C   UNL     1       1.185   2.058   0.002  0.00  0.00    +0.204 A 
BRANCH  19  25
ATOM     25  O   UNL     1       1.215   2.062   2.385  0.00  0.00    -0.488 OA
BRANCH  25  27
ATOM     26  C   UNL     1       1.093   1.987   4.797  0.00  0.00    +0.048 C 
ATOM     27  C   UNL     1       1.911   2.423   3.579  0.00  0.00    +0.226 C 
ENDBRANCH  25  27
ENDBRANCH  19  25
BRANCH  24  28
ATOM     28  O   UNL     1      -0.017   1.425   0.010  0.00  0.00    -0.485 OA
BRANCH  28  29
ATOM     29  C   UNL     1       0.002  -0.004   0.002  0.00  0.00    +0.226 C 
ATOM     30  C   UNL     1      -1.433  -0.534   0.013  0.00  0.00    +0.048 C 
ENDBRANCH  28  29
ENDBRANCH  24  28
BRANCH  23  31
ATOM     31  O   UNL     1       1.175   2.077  -2.381  0.00  0.00    -0.488 OA
BRANCH  31  32
ATOM     32  C   UNL     1       1.850   2.446  -3.585  0.00  0.00    +0.226 C 
ATOM     33  C   UNL     1       1.013   2.017  -4.792  0.00  0.00    +0.048 C 
ENDBRANCH  31  32
ENDBRANCH  23  31
ENDBRANCH  17  21
ENDBRANCH   1  17
BRANCH   3  34
ATOM     34  C   UNL     1       7.018   5.096   3.549  0.00  0.00    +0.212 C 
BRANCH  34  35
ATOM     35  C   UNL     1       7.509   3.782   3.994  0.00  0.00    -0.084 C 
ATOM     36  C   UNL     1       7.901   2.733   4.348  0.00  0.00    +0.005 C 
ENDBRANCH  34  35
ENDBRANCH   3  34
TORSDOF 12
