REMARK  Name = ZINC03609852
REMARK  13 active torsions:
REMARK  status: ('A' for Active; 'I' for Inactive)
REMARK    1  A    between atoms: C_1  and  C_2
REMARK    2  A    between atoms: C_2  and  C_3
REMARK    3  A    between atoms: C_2  and  C_4
REMARK    4  A    between atoms: C_4  and  N_5
REMARK    5  A    between atoms: C_6  and  N_31
REMARK    6  A    between atoms: C_7  and  N_14
REMARK    7  A    between atoms: N_14  and  C_15
REMARK    8  A    between atoms: C_15  and  C_16
REMARK    9  A    between atoms: C_16  and  C_17
REMARK   10  A    between atoms: C_16  and  C_18
REMARK   11  A    between atoms: C_19  and  C_21
REMARK   12  A    between atoms: C_21  and  O_22
REMARK   13  A    between atoms: O_22  and  C_23
REMARK                            x       y       z     vdW  Elec       q    Type
REMARK                         _______ _______ _______ _____ _____    ______ ____
ROOT
ATOM      1  N   UNL     1       3.976  -2.301  -0.110  0.00  0.00    -0.261 N 
ATOM      2  C   UNL     1       3.850  -1.096   0.485  0.00  0.00    +0.258 C 
ATOM      3  O   UNL     1       2.750  -0.676   0.777  0.00  0.00    -0.272 OA
ENDROOT
BRANCH   1   6
ATOM      4  N   UNL     1       6.939  -4.471   0.013  0.00  0.00    -0.280 N 
ATOM      5  C   UNL     1       5.683  -3.977   0.280  0.00  0.00    +0.127 A 
ATOM      6  C   UNL     1       5.258  -2.833  -0.363  0.00  0.00    +0.140 A 
ATOM      7  C   UNL     1       6.124  -2.207  -1.280  0.00  0.00    +0.277 A 
ATOM      8  O   UNL     1       5.773  -1.197  -1.865  0.00  0.00    -0.266 OA
ATOM      9  N   UNL     1       7.346  -2.730  -1.502  0.00  0.00    -0.273 N 
ATOM     10  H   UNL     1       7.965  -2.282  -2.147  0.00  0.00    +0.173 HD
ATOM     11  C   UNL     1       7.743  -3.846  -0.866  0.00  0.00    +0.331 A 
ATOM     12  O   UNL     1       8.850  -4.299  -1.089  0.00  0.00    -0.246 OA
BRANCH   5  13
ATOM     13  N   UNL     1       4.862  -4.616   1.178  0.00  0.00    -0.343 N 
ATOM     14  H   UNL     1       3.949  -4.311   1.302  0.00  0.00    +0.144 HD
ATOM     15  H   UNL     1       5.194  -5.371   1.688  0.00  0.00    +0.144 HD
ENDBRANCH   5  13
BRANCH   4  16
ATOM     16  C   UNL     1       7.402  -5.686   0.688  0.00  0.00    +0.131 C 
BRANCH  16  18
ATOM     17  C   UNL     1       7.611  -8.168   0.494  0.00  0.00    +0.009 C 
ATOM     18  C   UNL     1       7.020  -6.910  -0.146  0.00  0.00    +0.003 C 
ATOM     19  C   UNL     1       5.496  -7.035  -0.201  0.00  0.00    +0.009 C 
ENDBRANCH  16  18
ENDBRANCH   4  16
ENDBRANCH   1   6
BRANCH   1  20
ATOM     20  C   UNL     1       2.781  -3.057  -0.493  0.00  0.00    +0.117 C 
BRANCH  20  21
ATOM     21  C   UNL     1       2.453  -2.783  -1.962  0.00  0.00    +0.001 C 
ATOM     22  C   UNL     1       1.272  -3.656  -2.392  0.00  0.00    +0.009 C 
ATOM     23  C   UNL     1       2.088  -1.308  -2.136  0.00  0.00    +0.009 C 
ENDBRANCH  20  21
ENDBRANCH   1  20
BRANCH   2  24
ATOM     24  C   UNL     1       5.076  -0.273   0.785  0.00  0.00    +0.325 C 
BRANCH  24  25
ATOM     25  O   UNL     1       4.682   0.977   1.354  0.00  0.00    -0.481 OA
BRANCH  25  26
ATOM     26  C   UNL     1       5.675   1.845   1.686  0.00  0.00    +0.140 A 
ATOM     27  C   UNL     1       7.000   1.500   1.468  0.00  0.00    +0.048 A 
ATOM     28  C   UNL     1       8.008   2.380   1.811  0.00  0.00    +0.023 A 
ATOM     29  C   UNL     1       7.696   3.610   2.362  0.00  0.00    +0.043 A 
ATOM     30  C   UNL     1       6.375   3.958   2.580  0.00  0.00    +0.043 A 
ATOM     31  C   UNL     1       5.364   3.077   2.244  0.00  0.00    +0.084 A 
ATOM     32 CL   UNL     1       3.705   3.513   2.518  0.00  0.00    -0.080 Cl
ATOM     33 CL   UNL     1       8.965   4.717   2.785  0.00  0.00    -0.083 Cl
ENDBRANCH  25  26
ENDBRANCH  24  25
ENDBRANCH   2  24
TORSDOF 9
