REMARK  Name = ZINC13039883
REMARK  11 active torsions:
REMARK  status: ('A' for Active; 'I' for Inactive)
REMARK    1  A    between atoms: C_1  and  C_2
REMARK    2  A    between atoms: C_2  and  C_3
REMARK    3  A    between atoms: C_3  and  C_5
REMARK    4  A    between atoms: C_3  and  C_6
REMARK    5  A    between atoms: C_6  and  C_7
REMARK    6  A    between atoms: C_8  and  C_29
REMARK    7  A    between atoms: C_16  and  C_18
REMARK    8  A    between atoms: C_18  and  N_53
REMARK    9  A    between atoms: C_19  and  N_53
REMARK   10  A    between atoms: C_20  and  C_21
REMARK   11  A    between atoms: C_20  and  N_53
REMARK                            x       y       z     vdW  Elec       q    Type
REMARK                         _______ _______ _______ _____ _____    ______ ____
ROOT
ATOM      1  C   UNL     1      -2.823   3.022   4.566  0.00  0.00    -0.023 A 
ATOM      2  C   UNL     1      -3.897   3.759   4.243  0.00  0.00    -0.007 A 
ATOM      3  S   UNL     1      -3.884   3.748   2.460  0.00  0.00    -0.073 S 
ATOM      4  C   UNL     1      -2.437   2.754   2.202  0.00  0.00    +0.116 A 
ATOM      5  C   UNL     1      -2.006   2.459   3.507  0.00  0.00    +0.075 A 
ATOM      6  C   UNL     1      -0.826   1.650   3.601  0.00  0.00    +0.260 A 
ATOM      7  O   UNL     1      -0.373   1.340   4.690  0.00  0.00    -0.267 OA
ATOM      8  N   UNL     1      -0.231   1.232   2.469  0.00  0.00    -0.312 N 
ATOM      9  H   UNL     1       0.565   0.680   2.526  0.00  0.00    +0.170 HD
ATOM     10  C   UNL     1      -0.718   1.572   1.248  0.00  0.00    +0.094 A 
ATOM     11  N   UNL     1      -1.790   2.308   1.129  0.00  0.00    -0.229 NA
ATOM     12  C   UNL     1      -4.879   4.434   5.166  0.00  0.00    +0.052 C 
ENDROOT
BRANCH   1  13
ATOM     13  C   UNL     1      -2.470   2.780   6.011  0.00  0.00    +0.040 C 
BRANCH  13  14
ATOM     14  C   UNL     1      -3.167   1.509   6.501  0.00  0.00    -0.010 C 
ATOM     15  C   UNL     1      -4.682   1.720   6.484  0.00  0.00    +0.008 C 
BRANCH  14  17
ATOM     16  C   UNL     1      -3.311  -0.140   8.372  0.00  0.00    +0.004 C 
ATOM     17  C   UNL     1      -2.712   1.196   7.928  0.00  0.00    +0.000 C 
ENDBRANCH  14  17
ENDBRANCH  13  14
ENDBRANCH   1  13
BRANCH  10  18
ATOM     18  C   UNL     1      -0.013   1.086   0.008  0.00  0.00    -0.003 C 
BRANCH  18  20
ATOM     19  C   UNL     1      -0.640   3.036  -1.283  0.00  0.00    -0.095 C 
ATOM     20  N   UNL     1      -0.751   1.565  -1.179  0.00  0.00    +0.385 N 
ATOM     21  H   UNL     1      -1.741   1.312  -1.081  0.00  0.00    -0.081 HD
BRANCH  20  22
ATOM     22  C   UNL     1      -0.211   0.930  -2.400  0.00  0.00    -0.041 C 
BRANCH  22  23
ATOM     23  C   UNL     1      -1.114   1.262  -3.560  0.00  0.00    -0.046 A 
ATOM     24  C   UNL     1      -0.712   2.184  -4.508  0.00  0.00    +0.004 A 
ATOM     25  C   UNL     1      -1.540   2.488  -5.572  0.00  0.00    +0.020 A 
ATOM     26  C   UNL     1      -2.772   1.869  -5.690  0.00  0.00    +0.042 A 
ATOM     27  C   UNL     1      -3.175   0.945  -4.742  0.00  0.00    +0.040 A 
ATOM     28  C   UNL     1      -2.343   0.638  -3.680  0.00  0.00    +0.044 A 
ATOM     29 CL   UNL     1      -2.845  -0.526  -2.493  0.00  0.00    -0.083 Cl
ATOM     30 CL   UNL     1      -3.811   2.251  -7.027  0.00  0.00    -0.083 Cl
ENDBRANCH  22  23
ENDBRANCH  20  22
ENDBRANCH  18  20
ENDBRANCH  10  18
TORSDOF 7
