REMARK  Name = ZINC08216569
REMARK  3 active torsions:
REMARK  status: ('A' for Active; 'I' for Inactive)
REMARK    1  A    between atoms: C_5  and  O_16
REMARK    2  A    between atoms: C_6  and  C_7
REMARK    3  A    between atoms: N_8  and  N_9
REMARK                            x       y       z     vdW  Elec       q    Type
REMARK                         _______ _______ _______ _____ _____    ______ ____
ROOT
ATOM      1  C   UNL     1      -0.017   1.392   0.010  0.00  0.00    +0.028 A 
ATOM      2  C   UNL     1       1.170   2.096   0.002  0.00  0.00    +0.020 A 
ATOM      3  C   UNL     1       2.381   1.424  -0.013  0.00  0.00    +0.034 A 
ATOM      4  C   UNL     1       2.412   0.041  -0.021  0.00  0.00    +0.061 A 
ATOM      5  C   UNL     1       1.229  -0.681  -0.014  0.00  0.00    +0.139 A 
ATOM      6  C   UNL     1       0.002  -0.004   0.002  0.00  0.00    +0.038 A 
ATOM      7 BR   UNL     1       4.071  -0.865  -0.043  0.00  0.00    -0.046 Br
ATOM      8 BR   UNL     1       1.143   3.987   0.012  0.00  0.00    -0.050 Br
ENDROOT
BRANCH   6   9
ATOM      9  C   UNL     1      -1.262  -0.762   0.010  0.00  0.00    +0.142 C 
ATOM     10  N   UNL     1      -1.240  -2.060   0.003  0.00  0.00    -0.183 NA
BRANCH  10  11
ATOM     11  N   UNL     1      -2.442  -2.780   0.010  0.00  0.00    -0.168 N 
ATOM     12  C   UNL     1      -2.589  -4.246   0.010  0.00  0.00    +0.232 C 
ATOM     13  C   UNL     1      -4.090  -4.453   0.021  0.00  0.00    +0.240 C 
ATOM     14  O   UNL     1      -4.684  -5.511   0.025  0.00  0.00    -0.274 OA
ATOM     15  N   UNL     1      -4.629  -3.218   0.026  0.00  0.00    -0.237 N 
ATOM     16  C   UNL     1      -3.686  -2.269   0.025  0.00  0.00    +0.328 C 
ATOM     17  O   UNL     1      -3.926  -1.077   0.034  0.00  0.00    -0.250 OA
ATOM     18  H   UNL     1      -5.582  -3.039   0.034  0.00  0.00    +0.159 HD
ENDBRANCH  10  11
ENDBRANCH   6   9
BRANCH   5  19
ATOM     19  O   UNL     1       1.259  -2.039  -0.023  0.00  0.00    -0.505 OA
ATOM     20  H   UNL     1       1.276  -2.438   0.858  0.00  0.00    +0.292 HD
ENDBRANCH   5  19
TORSDOF 3
