REMARK  Name = ZINC59045948
REMARK  6 active torsions:
REMARK  status: ('A' for Active; 'I' for Inactive)
REMARK    1  A    between atoms: C_3  and  C_10
REMARK    2  A    between atoms: C_5  and  N_7
REMARK    3  A    between atoms: C_13  and  S_16
REMARK    4  A    between atoms: N_14  and  N_15
REMARK    5  A    between atoms: S_16  and  C_17
REMARK    6  A    between atoms: C_17  and  C_18
REMARK                            x       y       z     vdW  Elec       q    Type
REMARK                         _______ _______ _______ _____ _____    ______ ____
ROOT
ATOM      1  C   UNL     1       3.657   2.160  -0.022  0.00  0.00    +0.182 A 
ATOM      2  N   UNL     1       4.844   1.683  -0.315  0.00  0.00    -0.127 NA
ATOM      3  N   UNL     1       5.726   2.614  -0.223  0.00  0.00    -0.121 NA
ATOM      4  C   UNL     1       5.155   3.742   0.135  0.00  0.00    +0.209 A 
ATOM      5  N   UNL     1       3.819   3.495   0.270  0.00  0.00    -0.224 N 
ENDROOT
BRANCH   1   8
ATOM      6  C   UNL     1      -0.017   1.379   0.010  0.00  0.00    +0.003 A 
ATOM      7  C   UNL     1       1.167   2.088   0.002  0.00  0.00    +0.012 A 
ATOM      8  C   UNL     1       2.385   1.407  -0.013  0.00  0.00    +0.023 A 
ATOM      9  C   UNL     1       2.397   0.011  -0.021  0.00  0.00    +0.044 A 
ATOM     10  C   UNL     1       1.206  -0.686  -0.013  0.00  0.00    +0.127 A 
ATOM     11  C   UNL     1       0.002  -0.004   0.002  0.00  0.00    +0.033 A 
BRANCH  10  12
ATOM     12  N   UNL     1       1.217  -2.166  -0.021  0.00  0.00    +0.056 N 
ATOM     13  O   UNL     1       2.268  -2.763  -0.035  0.00  0.00    -0.126 OA
ATOM     14  O   UNL     1       0.174  -2.778  -0.015  0.00  0.00    -0.126 OA
ENDBRANCH  10  12
ENDBRANCH   1   8
BRANCH   5  15
ATOM     15  N   UNL     1       2.846   4.386   0.623  0.00  0.00    -0.295 N 
ATOM     16  H   UNL     1       2.722   4.408   1.625  0.00  0.00    +0.163 HD
ATOM     17  H   UNL     1       3.051   5.307   0.265  0.00  0.00    +0.163 HD
ENDBRANCH   5  15
BRANCH   4  18
ATOM     18  S   UNL     1       5.963   5.288   0.387  0.00  0.00    -0.080 S 
BRANCH  18  19
ATOM     19  C   UNL     1       7.707   4.933   0.040  0.00  0.00    +0.112 C 
BRANCH  19  20
ATOM     20  C   UNL     1       8.521   6.189   0.221  0.00  0.00    -0.036 A 
ATOM     21  C   UNL     1       8.717   7.045  -0.847  0.00  0.00    +0.006 A 
ATOM     22  C   UNL     1       9.463   8.197  -0.682  0.00  0.00    +0.022 A 
ATOM     23  C   UNL     1      10.014   8.493   0.552  0.00  0.00    +0.059 A 
ATOM     24  C   UNL     1       9.818   7.636   1.621  0.00  0.00    +0.060 A 
ATOM     25  C   UNL     1       9.066   6.486   1.456  0.00  0.00    +0.026 A 
ATOM     26 CL   UNL     1      10.510   8.006   3.169  0.00  0.00    -0.082 Cl
ATOM     27 CL   UNL     1      10.952   9.939   0.759  0.00  0.00    -0.082 Cl
ENDBRANCH  19  20
ENDBRANCH  18  19
ENDBRANCH   4  18
TORSDOF 6
