REMARK  Name = ZINC03323036
REMARK  9 active torsions:
REMARK  status: ('A' for Active; 'I' for Inactive)
REMARK    1  A    between atoms: C_1  and  C_2
REMARK    2  A    between atoms: C_5  and  S_14
REMARK    3  A    between atoms: N_6  and  C_7
REMARK    4  A    between atoms: C_7  and  C_8
REMARK    5  A    between atoms: S_14  and  C_15
REMARK    6  A    between atoms: C_15  and  C_16
REMARK    7  A    between atoms: N_18  and  C_19
REMARK    8  A    between atoms: C_20  and  C_30
REMARK    9  A    between atoms: C_25  and  C_29
REMARK                            x       y       z     vdW  Elec       q    Type
REMARK                         _______ _______ _______ _____ _____    ______ ____
ROOT
ATOM      1  C   UNL     1      -3.569  -6.205   0.396  0.00  0.00    +0.228 C 
ATOM      2  O   UNL     1      -4.297  -5.325  -0.013  0.00  0.00    -0.275 OA
ATOM      3  N   UNL     1      -2.304  -5.917   0.763  0.00  0.00    -0.279 N 
ATOM      4  H   UNL     1      -1.722  -6.620   1.090  0.00  0.00    +0.155 HD
ENDROOT
BRANCH   3   5
ATOM      5  C   UNL     1      -1.836  -4.615   0.673  0.00  0.00    +0.084 A 
ATOM      6  C   UNL     1      -0.579  -4.127   0.999  0.00  0.00    +0.068 A 
ATOM      7  C   UNL     1      -0.340  -2.706   0.809  0.00  0.00    -0.023 A 
ATOM      8  C   UNL     1      -1.390  -2.006   0.327  0.00  0.00    -0.004 A 
ATOM      9  S   UNL     1      -2.678  -3.203   0.125  0.00  0.00    -0.077 S 
ATOM     10  C   UNL     1      -1.437  -0.538   0.030  0.00  0.00    +0.046 C 
ATOM     11  C   UNL     1       0.002  -0.004   0.002  0.00  0.00    -0.009 C 
ATOM     12  C   UNL     1       0.742  -0.514   1.242  0.00  0.00    +0.008 C 
ATOM     13  C   UNL     1       0.984  -2.020   1.121  0.00  0.00    +0.037 C 
ATOM     14  C   UNL     1      -0.019   1.526   0.010  0.00  0.00    +0.008 C 
BRANCH   6  15
ATOM     15  C   UNL     1       0.470  -5.011   1.517  0.00  0.00    +0.244 C 
ATOM     16  O   UNL     1       0.577  -5.192   2.716  0.00  0.00    -0.270 OA
ATOM     17  N   UNL     1       1.315  -5.624   0.665  0.00  0.00    -0.325 N 
ATOM     18  H   UNL     1       1.230  -5.480  -0.291  0.00  0.00    +0.145 HD
ATOM     19  H   UNL     1       2.009  -6.209   1.007  0.00  0.00    +0.145 HD
ENDBRANCH   6  15
ENDBRANCH   3   5
BRANCH   1  20
ATOM     20  C   UNL     1      -4.078  -7.620   0.494  0.00  0.00    +0.173 C 
BRANCH  20  21
ATOM     21  S   UNL     1      -5.798  -7.683  -0.068  0.00  0.00    -0.077 S 
BRANCH  21  26
ATOM     22  C   UNL     1      -8.088 -12.476   0.074  0.00  0.00    +0.088 C 
ATOM     23  C   UNL     1      -7.089 -11.354   0.195  0.00  0.00    +0.131 A 
ATOM     24  N   UNL     1      -5.863 -11.456   0.623  0.00  0.00    -0.134 NA
ATOM     25  N   UNL     1      -5.288 -10.306   0.592  0.00  0.00    -0.122 NA
ATOM     26  C   UNL     1      -6.127  -9.400   0.147  0.00  0.00    +0.192 A 
ATOM     27  N   UNL     1      -7.302 -10.041  -0.123  0.00  0.00    -0.302 N 
BRANCH  27  28
ATOM     28  C   UNL     1      -8.535  -9.446  -0.646  0.00  0.00    +0.160 C 
BRANCH  28  29
ATOM     29  C   UNL     1      -8.515  -9.492  -2.152  0.00  0.00    -0.028 A 
ATOM     30  C   UNL     1      -7.982  -8.437  -2.869  0.00  0.00    +0.005 A 
ATOM     31  C   UNL     1      -7.960  -8.481  -4.250  0.00  0.00    +0.000 A 
ATOM     32  C   UNL     1      -8.480  -9.575  -4.915  0.00  0.00    +0.000 A 
ATOM     33  C   UNL     1      -9.018 -10.628  -4.199  0.00  0.00    +0.000 A 
ATOM     34  C   UNL     1      -9.035 -10.586  -2.817  0.00  0.00    +0.005 A 
ENDBRANCH  28  29
ENDBRANCH  27  28
ENDBRANCH  21  26
ENDBRANCH  20  21
ENDBRANCH   1  20
TORSDOF 7
