REMARK  Name = ZINC19820006
REMARK  4 active torsions:
REMARK  status: ('A' for Active; 'I' for Inactive)
REMARK    1  A    between atoms: C_1  and  C_2
REMARK    2  A    between atoms: C_2  and  C_3
REMARK    3  A    between atoms: C_2  and  C_4
REMARK    4  A    between atoms: C_7  and  C_10
REMARK                            x       y       z     vdW  Elec       q    Type
REMARK                         _______ _______ _______ _____ _____    ______ ____
ROOT
ATOM      1  C   UNL     1      -5.419  -2.005   0.043  0.00  0.00    +0.092 C 
ATOM      2  C   UNL     1      -6.143  -1.491  -1.166  0.00  0.00    +0.069 A 
ATOM      3  C   UNL     1      -6.373  -2.296  -2.238  0.00  0.00    +0.112 A 
ATOM      4  N   UNL     1      -7.031  -1.790  -3.328  0.00  0.00    -0.315 N 
ATOM      5  H   UNL     1      -7.200  -2.356  -4.098  0.00  0.00    +0.170 HD
ATOM      6  C   UNL     1      -7.449  -0.495  -3.332  0.00  0.00    +0.200 A 
ATOM      7  N   UNL     1      -7.235   0.294  -2.301  0.00  0.00    -0.177 NA
ATOM      8  C   UNL     1      -6.595  -0.155  -1.209  0.00  0.00    +0.280 A 
ATOM      9  O   UNL     1      -6.406   0.589  -0.258  0.00  0.00    -0.265 OA
ATOM     10  N   UNL     1      -8.104  -0.003  -4.430  0.00  0.00    -0.301 N 
ATOM     11  C   UNL     1      -8.668   1.353  -4.420  0.00  0.00    +0.108 C 
ATOM     12  C   UNL     1      -8.132   2.120  -5.633  0.00  0.00    +0.019 C 
ATOM     13  C   UNL     1      -8.430   1.325  -6.906  0.00  0.00    +0.003 C 
ATOM     14  C   UNL     1      -7.723  -0.031  -6.840  0.00  0.00    +0.019 C 
ATOM     15  C   UNL     1      -8.249  -0.820  -5.643  0.00  0.00    +0.108 C 
ATOM     16  N   UNL     1      -5.953  -3.606  -2.223  0.00  0.00    -0.304 N 
ATOM     17  C   UNL     1      -5.656  -4.231  -1.042  0.00  0.00    +0.017 C 
ATOM     18  C   UNL     1      -5.401  -3.512   0.070  0.00  0.00    +0.024 C 
ATOM     19  C   UNL     1      -5.110  -4.148   1.289  0.00  0.00    +0.162 C 
ATOM     20  O   UNL     1      -4.878  -3.473   2.273  0.00  0.00    -0.292 OA
ATOM     21  C   UNL     1      -5.079  -5.647   1.400  0.00  0.00    +0.080 C 
ATOM     22  C   UNL     1      -6.033  -6.244   0.360  0.00  0.00    +0.014 C 
ATOM     23  C   UNL     1      -5.618  -5.739  -1.020  0.00  0.00    +0.051 C 
ATOM     24  H   UNL     1      -5.865  -4.091  -3.059  0.00  0.00    +0.153 HD
ENDROOT
BRANCH   1  28
ATOM     25  C   UNL     1      -1.399  -0.560  -0.010  0.00  0.00    -0.045 A 
ATOM     26  C   UNL     1      -2.240  -0.226   1.035  0.00  0.00    +0.004 A 
ATOM     27  C   UNL     1      -3.541  -0.694   1.052  0.00  0.00    +0.005 A 
ATOM     28  C   UNL     1      -4.001  -1.494   0.024  0.00  0.00    -0.035 A 
ATOM     29  C   UNL     1      -3.161  -1.828  -1.022  0.00  0.00    +0.005 A 
ATOM     30  C   UNL     1      -1.861  -1.357  -1.041  0.00  0.00    +0.004 A 
BRANCH  25  32
ATOM     31  C   UNL     1       0.011   1.479  -0.028  0.00  0.00    +0.012 C 
ATOM     32  C   UNL     1       0.019  -0.051  -0.029  0.00  0.00    +0.013 C 
ATOM     33  C   UNL     1       0.759  -0.557   1.211  0.00  0.00    +0.012 C 
ENDBRANCH  25  32
ENDBRANCH   1  28
TORSDOF 2
