REMARK  Name = ZINC20917945
REMARK  9 active torsions:
REMARK  status: ('A' for Active; 'I' for Inactive)
REMARK    1  A    between atoms: C_1  and  C_2
REMARK    2  A    between atoms: C_5  and  C_8
REMARK    3  A    between atoms: N_9  and  N_10
REMARK    4  A    between atoms: C_14  and  S_17
REMARK    5  A    between atoms: N_15  and  N_16
REMARK    6  A    between atoms: S_17  and  C_18
REMARK    7  A    between atoms: C_18  and  C_19
REMARK    8  A    between atoms: C_19  and  C_20
REMARK    9  A    between atoms: N_22  and  C_23
REMARK                            x       y       z     vdW  Elec       q    Type
REMARK                         _______ _______ _______ _____ _____    ______ ____
ROOT
ATOM      1  N   UNL     1      -0.021   1.383  -0.053  0.00  0.00    -0.204 N 
ATOM      2  C   UNL     1      -0.002  -0.004  -0.051  0.00  0.00    +0.254 A 
ATOM      3  N   UNL     1      -1.051  -0.790  -0.030  0.00  0.00    -0.109 NA
ATOM      4  N   UNL     1      -0.600  -2.116  -0.040  0.00  0.00    -0.119 NA
ATOM      5  C   UNL     1       0.712  -2.097  -0.058  0.00  0.00    +0.210 A 
ATOM      6  N   UNL     1       1.115  -0.792  -0.066  0.00  0.00    -0.211 N 
ATOM      7  H   UNL     1       0.923   1.946  -0.062  0.00  0.00    +0.177 HD
ENDROOT
BRANCH   6   8
ATOM      8  N   UNL     1       2.408  -0.352  -0.085  0.00  0.00    -0.294 N 
ATOM      9  H   UNL     1       3.236  -1.077  -0.095  0.00  0.00    +0.163 HD
ATOM     10  H   UNL     1       2.622   0.727  -0.089  0.00  0.00    +0.163 HD
ENDBRANCH   6   8
BRANCH   1  12
ATOM     11  C   UNL     1      -1.263   3.365  -0.044  0.00  0.00    +0.138 C 
ATOM     12  N   UNL     1      -1.244   2.066  -0.043  0.00  0.00    -0.188 NA
BRANCH  11  17
ATOM     13  C   UNL     1      -6.283   6.170  -0.003  0.00  0.00    +0.044 C 
ATOM     14  C   UNL     1      -4.967   5.435  -0.014  0.00  0.00    -0.050 A 
ATOM     15  C   UNL     1      -3.781   6.147  -0.025  0.00  0.00    +0.004 A 
ATOM     16  C   UNL     1      -2.573   5.481  -0.035  0.00  0.00    +0.010 A 
ATOM     17  C   UNL     1      -2.550   4.084  -0.034  0.00  0.00    -0.005 A 
ATOM     18  C   UNL     1      -3.752   3.372  -0.028  0.00  0.00    +0.010 A 
ATOM     19  C   UNL     1      -4.952   4.051  -0.013  0.00  0.00    +0.004 A 
ENDBRANCH  11  17
ENDBRANCH   1  12
BRANCH   5  20
ATOM     20  S   UNL     1       1.767  -3.508  -0.070  0.00  0.00    -0.084 S 
BRANCH  20  21
ATOM     21  C   UNL     1       0.621  -4.914  -0.052  0.00  0.00    +0.086 C 
BRANCH  21  22
ATOM     22  C   UNL     1       1.417  -6.221  -0.061  0.00  0.00    +0.107 C 
BRANCH  22  23
ATOM     23  C   UNL     1       0.465  -7.389  -0.046  0.00  0.00    +0.218 C 
ATOM     24  O   UNL     1      -0.732  -7.195  -0.030  0.00  0.00    -0.275 OA
ATOM     25  N   UNL     1       0.944  -8.649  -0.050  0.00  0.00    -0.284 N 
ATOM     26  H   UNL     1       2.026  -8.825  -0.139  0.00  0.00    +0.155 HD
BRANCH  25  27
ATOM     27  C   UNL     1       0.064  -9.732   0.059  0.00  0.00    +0.053 A 
ATOM     28  C   UNL     1      -1.196  -9.666  -0.520  0.00  0.00    +0.044 A 
ATOM     29  C   UNL     1      -2.060 -10.739  -0.416  0.00  0.00    +0.043 A 
ATOM     30  C   UNL     1      -1.675 -11.875   0.274  0.00  0.00    +0.021 A 
ATOM     31  C   UNL     1      -0.423 -11.942   0.856  0.00  0.00    +0.023 A 
ATOM     32  C   UNL     1       0.448 -10.874   0.751  0.00  0.00    +0.062 A 
ATOM     33 CL   UNL     1       2.020 -10.959   1.482  0.00  0.00    -0.082 Cl
ATOM     34 CL   UNL     1      -3.634 -10.660  -1.146  0.00  0.00    -0.083 Cl
ENDBRANCH  25  27
ENDBRANCH  22  23
ENDBRANCH  21  22
ENDBRANCH  20  21
ENDBRANCH   5  20
TORSDOF 8
