REMARK  Name = ZINC36541374
REMARK  16 active torsions:
REMARK  status: ('A' for Active; 'I' for Inactive)
REMARK    1  A    between atoms: C_1  and  C_2
REMARK    2  A    between atoms: C_2  and  C_3
REMARK    3  A    between atoms: C_2  and  C_4
REMARK    4  A    between atoms: C_2  and  C_5
REMARK    5  A    between atoms: C_5  and  C_6
REMARK    6  A    between atoms: C_6  and  C_7
REMARK    7  A    between atoms: C_6  and  C_8
REMARK    8  A    between atoms: C_6  and  N_9
REMARK    9  A    between atoms: C_10  and  C_12
REMARK   10  A    between atoms: C_12  and  C_14
REMARK   11  A    between atoms: C_12  and  N_20
REMARK   12  A    between atoms: N_20  and  C_21
REMARK   13  A    between atoms: C_28  and  C_30
REMARK   14  A    between atoms: C_30  and  C_32
REMARK   15  A    between atoms: C_30  and  O_38
REMARK   16  A    between atoms: O_38  and  C_39
REMARK                            x       y       z     vdW  Elec       q    Type
REMARK                         _______ _______ _______ _____ _____    ______ ____
ROOT
ATOM      1  C   UNL     1       4.929  -0.550  -4.381  0.00  0.00    +0.197 C 
ENDROOT
BRANCH   1   2
ATOM      2  C   UNL     1       4.109   0.319  -5.300  0.00  0.00    -0.018 A 
ATOM      3  C   UNL     1       3.484  -0.236  -6.401  0.00  0.00    +0.006 A 
ATOM      4  C   UNL     1       2.732   0.561  -7.243  0.00  0.00    +0.000 A 
ATOM      5  C   UNL     1       2.606   1.913  -6.985  0.00  0.00    +0.000 A 
ATOM      6  C   UNL     1       3.231   2.468  -5.884  0.00  0.00    +0.000 A 
ATOM      7  C   UNL     1       3.979   1.670  -5.039  0.00  0.00    +0.006 A 
ENDBRANCH   1   2
BRANCH   1   9
ATOM      8  N   UNL     1       3.139  -0.753  -2.686  0.00  0.00    -0.308 N 
ATOM      9  C   UNL     1       4.413  -0.418  -2.971  0.00  0.00    +0.239 C 
ATOM     10  O   UNL     1       5.144  -0.010  -2.094  0.00  0.00    -0.273 OA
ATOM     11  H   UNL     1       2.554  -1.079  -3.388  0.00  0.00    +0.149 HD
BRANCH   8  12
ATOM     12  C   UNL     1       2.637  -0.624  -1.316  0.00  0.00    +0.030 C 
ATOM     13  C   UNL     1       3.026   0.746  -0.757  0.00  0.00    +0.031 C 
ATOM     14  C   UNL     1       3.247  -1.723  -0.444  0.00  0.00    +0.031 C 
BRANCH  12  15
ATOM     15  C   UNL     1       1.113  -0.761  -1.316  0.00  0.00    +0.031 C 
BRANCH  15  17
ATOM     16  C   UNL     1       0.622  -0.783  -3.765  0.00  0.00    +0.010 C 
ATOM     17  C   UNL     1       0.529   0.042  -2.480  0.00  0.00    -0.036 C 
ATOM     18  C   UNL     1       1.318   1.342  -2.650  0.00  0.00    +0.010 C 
ATOM     19  C   UNL     1      -0.937   0.369  -2.189  0.00  0.00    +0.010 C 
ENDBRANCH  15  17
ENDBRANCH  12  15
ENDBRANCH   8  12
ENDBRANCH   1   9
BRANCH   1  20
ATOM     20  N   UNL     1       6.330  -0.127  -4.429  0.00  0.00    -0.252 N 
ATOM     21  C   UNL     1       7.295  -1.021  -4.725  0.00  0.00    +0.254 C 
ATOM     22  O   UNL     1       6.995  -2.138  -5.090  0.00  0.00    -0.272 OA
BRANCH  20  23
ATOM     23  C   UNL     1       6.668   1.206  -4.169  0.00  0.00    +0.056 A 
ATOM     24  C   UNL     1       7.036   1.593  -2.887  0.00  0.00    +0.025 A 
ATOM     25  C   UNL     1       7.369   2.909  -2.633  0.00  0.00    +0.002 A 
ATOM     26  C   UNL     1       7.336   3.842  -3.654  0.00  0.00    +0.002 A 
ATOM     27  C   UNL     1       6.970   3.461  -4.931  0.00  0.00    +0.022 A 
ATOM     28  C   UNL     1       6.642   2.144  -5.194  0.00  0.00    +0.062 A 
ATOM     29 CL   UNL     1       6.190   1.665  -6.800  0.00  0.00    -0.082 Cl
ENDBRANCH  20  23
BRANCH  21  30
ATOM     30  C   UNL     1       8.746  -0.633  -4.602  0.00  0.00    +0.234 C 
BRANCH  30  31
ATOM     31  C   UNL     1       9.130   0.247  -5.764  0.00  0.00    -0.010 A 
ATOM     32  C   UNL     1       9.207  -0.285  -7.037  0.00  0.00    +0.006 A 
ATOM     33  C   UNL     1       9.560   0.522  -8.103  0.00  0.00    +0.000 A 
ATOM     34  C   UNL     1       9.835   1.861  -7.895  0.00  0.00    +0.000 A 
ATOM     35  C   UNL     1       9.758   2.393  -6.621  0.00  0.00    +0.000 A 
ATOM     36  C   UNL     1       9.401   1.587  -5.556  0.00  0.00    +0.006 A 
ENDBRANCH  30  31
BRANCH  30  37
ATOM     37  O   UNL     1       9.556  -1.810  -4.607  0.00  0.00    -0.366 OA
ATOM     38  C   UNL     1       9.794  -2.358  -3.309  0.00  0.00    +0.195 C 
ENDBRANCH  30  37
ENDBRANCH  21  30
ENDBRANCH   1  20
TORSDOF 10
