REMARK  Name = ZINC19811635
REMARK  6 active torsions:
REMARK  status: ('A' for Active; 'I' for Inactive)
REMARK    1  A    between atoms: C_1  and  C_2
REMARK    2  A    between atoms: C_3  and  C_11
REMARK    3  A    between atoms: C_8  and  C_10
REMARK    4  A    between atoms: C_11  and  C_12
REMARK    5  A    between atoms: C_14  and  C_17
REMARK    6  A    between atoms: C_17  and  C_22
REMARK                            x       y       z     vdW  Elec       q    Type
REMARK                         _______ _______ _______ _____ _____    ______ ____
ROOT
ATOM      1  C   UNL     1      -1.473   3.511   5.300  0.00  0.00    +0.232 A 
ATOM      2  N   UNL     1      -0.857   4.582   5.742  0.00  0.00    -0.195 NA
ATOM      3  C   UNL     1      -0.225   4.198   6.865  0.00  0.00    +0.184 A 
ATOM      4  N   UNL     1      -0.484   2.937   7.046  0.00  0.00    -0.060 NA
ATOM      5  O   UNL     1      -1.204   2.525   6.161  0.00  0.00    -0.338 OA
ENDROOT
BRANCH   3   6
ATOM      6  C   UNL     1       0.626   5.069   7.752  0.00  0.00    +0.084 C 
ATOM      7  C   UNL     1       1.214   4.245   8.918  0.00  0.00    +0.050 C 
ATOM      8  C   UNL     1       2.742   4.347   8.718  0.00  0.00    +0.161 C 
ATOM      9  O   UNL     1       2.934   5.561   7.959  0.00  0.00    -0.378 OA
ATOM     10  C   UNL     1       1.867   5.576   6.983  0.00  0.00    +0.179 C 
BRANCH   6  11
ATOM     11  C   UNL     1      -0.178   6.230   8.279  0.00  0.00    -0.031 A 
ATOM     12  C   UNL     1      -1.535   6.302   8.023  0.00  0.00    +0.007 A 
ATOM     13  C   UNL     1      -2.275   7.363   8.510  0.00  0.00    +0.038 A 
ATOM     14  C   UNL     1      -1.655   8.360   9.245  0.00  0.00    +0.123 A 
ATOM     15  C   UNL     1      -0.295   8.289   9.495  0.00  0.00    +0.038 A 
ATOM     16  C   UNL     1       0.442   7.224   9.012  0.00  0.00    +0.007 A 
ATOM     17  F   UNL     1      -2.376   9.400   9.716  0.00  0.00    -0.205 F 
ENDBRANCH   6  11
ENDBRANCH   3   6
BRANCH   1  18
ATOM     18  C   UNL     1      -2.326   3.414   4.061  0.00  0.00    +0.141 C 
BRANCH  18  21
ATOM     19  C   UNL     1      -2.069   0.654   3.257  0.00  0.00    +0.066 C 
ATOM     20  C   UNL     1      -1.339   1.735   2.503  0.00  0.00    +0.049 A 
ATOM     21  C   UNL     1      -1.463   3.037   2.885  0.00  0.00    +0.047 A 
ATOM     22  C   UNL     1      -0.766   4.024   2.157  0.00  0.00    +0.255 A 
ATOM     23  O   UNL     1      -0.850   5.201   2.466  0.00  0.00    -0.267 OA
ATOM     24  N   UNL     1      -0.001   3.637   1.114  0.00  0.00    -0.311 N 
ATOM     25  H   UNL     1       0.559   4.386   0.535  0.00  0.00    +0.170 HD
ATOM     26  C   UNL     1       0.076   2.333   0.784  0.00  0.00    +0.107 A 
ATOM     27  N   UNL     1      -0.569   1.419   1.458  0.00  0.00    -0.239 NA
ATOM     28  C   UNL     1       0.931   1.919  -0.386  0.00  0.00    +0.086 C 
ENDBRANCH  18  21
ENDBRANCH   1  18
TORSDOF 4
