REMARK  Name = ZINC39230536
REMARK  7 active torsions:
REMARK  status: ('A' for Active; 'I' for Inactive)
REMARK    1  A    between atoms: C_4  and  C_7
REMARK    2  A    between atoms: C_7  and  N_8
REMARK    3  A    between atoms: N_8  and  C_9
REMARK    4  A    between atoms: C_9  and  C_10
REMARK    5  A    between atoms: C_15  and  O_17
REMARK    6  A    between atoms: C_18  and  C_20
REMARK    7  A    between atoms: C_30  and  C_33
REMARK                            x       y       z     vdW  Elec       q    Type
REMARK                         _______ _______ _______ _____ _____    ______ ____
ROOT
ATOM      1  C   UNL     1       5.277   0.021   3.591  0.00  0.00    +0.055 A 
ATOM      2  C   UNL     1       5.912   1.069   4.275  0.00  0.00    +0.018 A 
ATOM      3  C   UNL     1       6.148   0.925   5.615  0.00  0.00    +0.044 A 
ATOM      4  C   UNL     1       5.753  -0.248   6.257  0.00  0.00    +0.121 A 
ATOM      5  N   UNL     1       5.155  -1.223   5.587  0.00  0.00    -0.240 NA
ATOM      6  C   UNL     1       4.904  -1.123   4.298  0.00  0.00    +0.126 A 
ATOM      7  N   UNL     1       5.990  -0.397   7.613  0.00  0.00    -0.318 N 
ATOM      8  C   UNL     1       5.797  -1.696   8.277  0.00  0.00    +0.087 C 
ATOM      9  C   UNL     1       7.057  -2.019   9.087  0.00  0.00    -0.062 C 
ATOM     10  N   UNL     1       7.347  -0.908  10.002  0.00  0.00    +0.386 N 
ATOM     11  C   UNL     1       7.670   0.301   9.235  0.00  0.00    -0.023 C 
ATOM     12  C   UNL     1       6.447   0.738   8.430  0.00  0.00    +0.095 C 
ATOM     13  H   UNL     1       6.540  -0.731  10.581  0.00  0.00    -0.085 HD
ATOM     14  H   UNL     1       8.131  -1.153  10.588  0.00  0.00    -0.085 HD
ENDROOT
BRANCH  11  15
ATOM     15  C   UNL     1       8.072   1.404  10.180  0.00  0.00    -0.060 A 
ATOM     16  C   UNL     1       7.399   1.569  11.375  0.00  0.00    +0.002 A 
ATOM     17  C   UNL     1       7.768   2.581  12.242  0.00  0.00    +0.000 A 
ATOM     18  C   UNL     1       8.810   3.427  11.914  0.00  0.00    +0.000 A 
ATOM     19  C   UNL     1       9.484   3.261  10.718  0.00  0.00    +0.000 A 
ATOM     20  C   UNL     1       9.118   2.247   9.853  0.00  0.00    +0.002 A 
ENDBRANCH  11  15
BRANCH   1  22
ATOM     21  N   UNL     1       3.860  -0.374   1.637  0.00  0.00    -0.293 N 
ATOM     22  C   UNL     1       5.002   0.129   2.145  0.00  0.00    +0.248 C 
ATOM     23  O   UNL     1       5.806   0.673   1.412  0.00  0.00    -0.270 OA
BRANCH  21  24
ATOM     24  C   UNL     1       3.614  -0.320   0.194  0.00  0.00    +0.143 C 
BRANCH  24  28
ATOM     25  C   UNL     1       1.597   3.320  -0.771  0.00  0.00    +0.000 A 
ATOM     26  C   UNL     1       2.978   3.274  -0.774  0.00  0.00    +0.000 A 
ATOM     27  C   UNL     1       3.631   2.096  -0.461  0.00  0.00    +0.005 A 
ATOM     28  C   UNL     1       2.902   0.965  -0.146  0.00  0.00    -0.030 A 
ATOM     29  C   UNL     1       1.521   1.011  -0.143  0.00  0.00    +0.005 A 
ATOM     30  C   UNL     1       0.868   2.189  -0.457  0.00  0.00    +0.000 A 
ENDBRANCH  24  28
ENDBRANCH  21  24
BRANCH  21  31
ATOM     31  C   UNL     1       2.865  -0.977   2.527  0.00  0.00    +0.114 C 
BRANCH  31  32
ATOM     32  C   UNL     1       2.951  -2.501   2.432  0.00  0.00    +0.035 C 
ATOM     33  C   UNL     1       2.428  -2.975   1.060  0.00  0.00    +0.007 C 
ATOM     34  C   UNL     1       1.684  -4.297   1.373  0.00  0.00    +0.003 C 
ATOM     35  C   UNL     1       1.005  -3.993   2.732  0.00  0.00    +0.031 C 
ATOM     36  C   UNL     1       2.047  -3.148   3.496  0.00  0.00    +0.119 C 
BRANCH  36  37
ATOM     37  O   UNL     1       1.391  -2.136   4.262  0.00  0.00    -0.391 OA
ATOM     38  H   UNL     1       0.806  -2.481   4.950  0.00  0.00    +0.210 HD
ENDBRANCH  36  37
ENDBRANCH  31  32
ENDBRANCH  21  31
ENDBRANCH   1  22
TORSDOF 7
