REMARK  Name = ZINC20285839
REMARK  11 active torsions:
REMARK  status: ('A' for Active; 'I' for Inactive)
REMARK    1  A    between atoms: C_1  and  C_2
REMARK    2  A    between atoms: C_2  and  C_4
REMARK    3  A    between atoms: C_2  and  N_18
REMARK    4  A    between atoms: C_4  and  N_5
REMARK    5  A    between atoms: C_8  and  N_10
REMARK    6  A    between atoms: N_10  and  C_11
REMARK    7  A    between atoms: N_18  and  C_19
REMARK    8  A    between atoms: C_21  and  C_27
REMARK    9  A    between atoms: C_21  and  C_28
REMARK   10  A    between atoms: C_23  and  C_25
REMARK   11  A    between atoms: C_23  and  C_26
REMARK                            x       y       z     vdW  Elec       q    Type
REMARK                         _______ _______ _______ _____ _____    ______ ____
ROOT
ATOM      1  C   UNL     1       1.213   1.541   0.242  0.00  0.00    +0.026 C 
ATOM      2  C   UNL     1       1.178   0.017   0.109  0.00  0.00    +0.072 C 
ENDROOT
BRANCH   2   3
ATOM      3  N   UNL     1      -0.199  -0.460   0.299  0.00  0.00    -0.309 NA
ATOM      4  H   UNL     1      -0.861   0.166  -0.134  0.00  0.00    +0.123 HD
BRANCH   3   5
ATOM      5  C   UNL     1      -0.501  -0.641   1.729  0.00  0.00    +0.051 C 
ATOM      6  C   UNL     1      -0.066  -2.043   2.160  0.00  0.00    +0.006 C 
ATOM      7  C   UNL     1      -0.385  -2.251   3.641  0.00  0.00    -0.072 C 
ATOM      8  N   UNL     1      -1.783  -1.983   3.943  0.00  0.00    +0.386 N 
ATOM      9  C   UNL     1      -2.369  -0.765   3.406  0.00  0.00    -0.072 C 
ATOM     10  C   UNL     1      -2.009  -0.519   1.944  0.00  0.00    +0.006 C 
ATOM     11  C   UNL     1      -2.001   0.460   4.247  0.00  0.00    -0.010 C 
ATOM     12  C   UNL     1      -3.907  -0.918   3.480  0.00  0.00    -0.010 C 
ATOM     13  C   UNL     1       0.562  -1.421   4.507  0.00  0.00    -0.010 C 
ATOM     14  C   UNL     1      -0.115  -3.739   3.962  0.00  0.00    -0.010 C 
ATOM     15  H   UNL     1      -2.340  -2.778   3.620  0.00  0.00    -0.084 HD
ATOM     16  H   UNL     1      -1.895  -1.973   4.960  0.00  0.00    -0.084 HD
ENDBRANCH   3   5
ENDBRANCH   2   3
BRANCH   2  17
ATOM     17  C   UNL     1       1.668  -0.384  -1.284  0.00  0.00    +0.162 C 
BRANCH  17  18
ATOM     18  N   UNL     1       1.523  -1.832  -1.454  0.00  0.00    -0.258 NA
ATOM     19  C   UNL     1       0.696  -2.303  -2.342  0.00  0.00    +0.193 C 
ATOM     20  N   UNL     1       0.239  -3.532  -2.832  0.00  0.00    -0.198 NA
ATOM     21  C   UNL     1      -0.688  -3.468  -3.826  0.00  0.00    +0.188 C 
ATOM     22  S   UNL     1      -0.457  -1.724  -3.565  0.00  0.00    -0.013 S 
BRANCH  21  23
ATOM     23  N   UNL     1      -1.421  -4.308  -4.613  0.00  0.00    -0.190 NA
BRANCH  23  24
ATOM     24  C   UNL     1      -2.168  -3.795  -5.678  0.00  0.00    +0.056 A 
ATOM     25  C   UNL     1      -3.266  -4.497  -6.160  0.00  0.00    +0.026 A 
ATOM     26  C   UNL     1      -4.002  -3.988  -7.211  0.00  0.00    +0.017 A 
ATOM     27  C   UNL     1      -3.648  -2.779  -7.784  0.00  0.00    +0.018 A 
ATOM     28  C   UNL     1      -2.555  -2.078  -7.306  0.00  0.00    +0.017 A 
ATOM     29  C   UNL     1      -1.818  -2.580  -6.252  0.00  0.00    +0.026 A 
ATOM     30 BR   UNL     1      -4.659  -2.085  -9.224  0.00  0.00    -0.050 Br
ENDBRANCH  23  24
ENDBRANCH  21  23
ENDBRANCH  17  18
ENDBRANCH   2  17
TORSDOF 6
