REMARK  Name = ZINC08831067
REMARK  6 active torsions:
REMARK  status: ('A' for Active; 'I' for Inactive)
REMARK    1  A    between atoms: C_1  and  C_2
REMARK    2  A    between atoms: C_3  and  C_11
REMARK    3  A    between atoms: C_7  and  N_8
REMARK    4  A    between atoms: N_13  and  C_14
REMARK    5  A    between atoms: C_14  and  N_16
REMARK    6  A    between atoms: C_21  and  C_23
REMARK                            x       y       z     vdW  Elec       q    Type
REMARK                         _______ _______ _______ _____ _____    ______ ____
ROOT
ATOM      1  C   UNL     1       1.426   3.446   0.371  0.00  0.00    +0.250 C 
ATOM      2  O   UNL     1       2.541   3.926   0.325  0.00  0.00    -0.270 OA
ATOM      3  N   UNL     1       0.358   4.241   0.585  0.00  0.00    -0.264 N 
ATOM      4  H   UNL     1      -0.532   3.858   0.622  0.00  0.00    +0.157 HD
ENDROOT
BRANCH   1   7
ATOM      5  C   UNL     1       3.740   1.718   0.201  0.00  0.00    +0.047 C 
ATOM      6  C   UNL     1       2.349   1.147   0.110  0.00  0.00    -0.008 A 
ATOM      7  C   UNL     1       1.239   1.991   0.193  0.00  0.00    +0.042 A 
ATOM      8  C   UNL     1      -0.046   1.454   0.108  0.00  0.00    +0.013 A 
ATOM      9  C   UNL     1      -0.213   0.095  -0.059  0.00  0.00    +0.003 A 
ATOM     10  C   UNL     1       0.890  -0.736  -0.141  0.00  0.00    +0.033 A 
ATOM     11  C   UNL     1       2.168  -0.210  -0.056  0.00  0.00    +0.130 A 
BRANCH  11  12
ATOM     12  N   UNL     1       3.342  -1.106  -0.145  0.00  0.00    +0.057 N 
ATOM     13  O   UNL     1       3.187  -2.314  -0.160  0.00  0.00    -0.126 OA
ATOM     14  O   UNL     1       4.464  -0.636  -0.202  0.00  0.00    -0.126 OA
ENDBRANCH  11  12
ENDBRANCH   1   7
BRANCH   3  15
ATOM     15  C   UNL     1       0.528   5.568   0.747  0.00  0.00    +0.142 C 
ATOM     16  S   UNL     1       2.100   6.244   0.682  0.00  0.00    -0.018 S 
BRANCH  15  17
ATOM     17  N   UNL     1      -0.539   6.363   0.961  0.00  0.00    -0.282 N 
ATOM     18  C   UNL     1      -0.356   7.719   1.222  0.00  0.00    +0.124 A 
ATOM     19  C   UNL     1      -1.451   8.510   1.555  0.00  0.00    +0.045 A 
ATOM     20  C   UNL     1      -1.255   9.855   1.813  0.00  0.00    +0.019 A 
ATOM     21  C   UNL     1       0.034  10.366   1.729  0.00  0.00    +0.034 A 
ATOM     22  C   UNL     1       1.075   9.522   1.394  0.00  0.00    +0.053 A 
ATOM     23  N   UNL     1       0.858   8.242   1.158  0.00  0.00    -0.236 NA
ATOM     24  C   UNL     1       2.476  10.069   1.301  0.00  0.00    +0.067 C 
ATOM     25  I   UNL     1       0.396  12.394   2.109  0.00  0.00    -0.042 I 
ATOM     26  H   UNL     1      -1.434   5.991   0.932  0.00  0.00    +0.155 HD
ENDBRANCH  15  17
ENDBRANCH   3  15
TORSDOF 4
