REMARK  Name = ZINC03426008
REMARK  7 active torsions:
REMARK  status: ('A' for Active; 'I' for Inactive)
REMARK    1  A    between atoms: C_1  and  C_2
REMARK    2  A    between atoms: C_2  and  C_3
REMARK    3  A    between atoms: C_2  and  C_4
REMARK    4  A    between atoms: C_4  and  N_5
REMARK    5  A    between atoms: C_13  and  N_17
REMARK    6  A    between atoms: C_18  and  C_20
REMARK    7  A    between atoms: N_29  and  C_32
REMARK                            x       y       z     vdW  Elec       q    Type
REMARK                         _______ _______ _______ _____ _____    ______ ____
ROOT
ATOM      1  N   UNL     1       4.699   2.630  -0.083  0.00  0.00    -0.279 N 
ATOM      2  C   UNL     1       3.332   2.481  -0.060  0.00  0.00    +0.132 A 
ATOM      3  C   UNL     1       2.536   3.629  -0.045  0.00  0.00    +0.124 A 
ATOM      4  C   UNL     1       1.149   3.182  -0.024  0.00  0.00    +0.171 A 
ATOM      5  C   UNL     1       1.190   1.793  -0.026  0.00  0.00    +0.087 A 
ATOM      6  N   UNL     1       2.518   1.396  -0.049  0.00  0.00    -0.338 N 
ATOM      7  H   UNL     1       2.822   0.475  -0.055  0.00  0.00    +0.167 HD
ATOM      8  C   UNL     1      -0.013   1.067  -0.008  0.00  0.00    +0.060 A 
ATOM      9  C   UNL     1      -1.208   1.756   0.006  0.00  0.00    +0.121 A 
ATOM     10  C   UNL     1      -1.194   3.166   0.014  0.00  0.00    +0.359 A 
ATOM     11  O   UNL     1      -2.247   3.782   0.032  0.00  0.00    -0.243 OA
ATOM     12  O   UNL     1      -0.029   3.835  -0.004  0.00  0.00    -0.418 OA
ATOM     13  C   UNL     1       3.188   4.937  -0.054  0.00  0.00    +0.269 A 
ATOM     14  O   UNL     1       2.531   5.962  -0.041  0.00  0.00    -0.267 OA
ATOM     15  N   UNL     1       4.539   4.981  -0.076  0.00  0.00    -0.263 N 
ATOM     16  C   UNL     1       5.262   3.849  -0.090  0.00  0.00    +0.333 A 
ATOM     17  O   UNL     1       6.475   3.932  -0.110  0.00  0.00    -0.246 OA
ATOM     18  C   UNL     1       5.221   6.277  -0.085  0.00  0.00    +0.157 C 
ENDROOT
BRANCH   9  19
ATOM     19  N   UNL     1      -2.425   1.060   0.019  0.00  0.00    -0.276 N 
ATOM     20  C   UNL     1      -2.478  -0.196   0.506  0.00  0.00    +0.248 C 
ATOM     21  O   UNL     1      -1.496  -0.688   1.026  0.00  0.00    -0.270 OA
ATOM     22  H   UNL     1      -3.229   1.482  -0.322  0.00  0.00    +0.155 HD
BRANCH  20  23
ATOM     23  C   UNL     1      -3.730  -0.973   0.407  0.00  0.00    +0.037 A 
ATOM     24  C   UNL     1      -4.862  -0.408  -0.184  0.00  0.00    +0.016 A 
ATOM     25  C   UNL     1      -6.026  -1.140  -0.279  0.00  0.00    +0.039 A 
ATOM     26  C   UNL     1      -6.078  -2.432   0.223  0.00  0.00    +0.123 A 
ATOM     27  C   UNL     1      -4.959  -2.996   0.816  0.00  0.00    +0.039 A 
ATOM     28  C   UNL     1      -3.788  -2.275   0.911  0.00  0.00    +0.016 A 
ATOM     29  F   UNL     1      -7.223  -3.143   0.132  0.00  0.00    -0.205 F 
ENDBRANCH  20  23
ENDBRANCH   9  19
BRANCH   1  30
ATOM     30  C   UNL     1       5.554   1.440  -0.099  0.00  0.00    +0.131 C 
BRANCH  30  32
ATOM     31  C   UNL     1       6.664  -0.288   1.324  0.00  0.00    +0.009 C 
ATOM     32  C   UNL     1       5.876   1.024   1.337  0.00  0.00    +0.003 C 
ATOM     33  C   UNL     1       6.712   2.114   2.010  0.00  0.00    +0.009 C 
ENDBRANCH  30  32
ENDBRANCH   1  30
TORSDOF 4
