REMARK  Name = ZINC39355966
REMARK  10 active torsions:
REMARK  status: ('A' for Active; 'I' for Inactive)
REMARK    1  A    between atoms: C_1  and  C_2
REMARK    2  A    between atoms: C_5  and  O_28
REMARK    3  A    between atoms: C_6  and  C_8
REMARK    4  A    between atoms: C_8  and  C_10
REMARK    5  A    between atoms: C_8  and  C_20
REMARK    6  A    between atoms: C_12  and  O_18
REMARK    7  A    between atoms: C_13  and  O_17
REMARK    8  A    between atoms: O_18  and  C_19
REMARK    9  A    between atoms: C_21  and  C_27
REMARK   10  A    between atoms: C_24  and  O_26
REMARK                            x       y       z     vdW  Elec       q    Type
REMARK                         _______ _______ _______ _____ _____    ______ ____
ROOT
ATOM      1  C   UNL     1      -0.014  -0.328  -2.520  0.00  0.00    +0.088 C 
ENDROOT
BRANCH   1   7
ATOM      2  C   UNL     1       2.579  -0.875  -0.861  0.00  0.00    +0.065 C 
ATOM      3  C   UNL     1       1.164  -1.112  -0.399  0.00  0.00    +0.041 A 
ATOM      4  N   UNL     1       0.791  -1.592   0.805  0.00  0.00    -0.278 N 
ATOM      5  N   UNL     1      -0.608  -1.659   0.830  0.00  0.00    -0.136 NA
ATOM      6  C   UNL     1      -1.059  -1.232  -0.324  0.00  0.00    +0.236 A 
ATOM      7  C   UNL     1       0.042  -0.875  -1.117  0.00  0.00    +0.047 A 
ATOM      8  H   UNL     1       1.387  -1.847   1.527  0.00  0.00    +0.189 HD
BRANCH   6  10
ATOM      9  H   UNL     1      -2.800  -0.328  -0.408  0.00  0.00    +0.294 HD
ATOM     10  O   UNL     1      -2.366  -1.146  -0.689  0.00  0.00    -0.491 OA
ENDBRANCH   6  10
ENDBRANCH   1   7
BRANCH   1  11
ATOM     11  C   UNL     1      -1.304  -0.754  -3.173  0.00  0.00    -0.030 A 
ATOM     12  C   UNL     1      -2.112   0.187  -3.784  0.00  0.00    +0.054 A 
ATOM     13  C   UNL     1      -3.298  -0.202  -4.385  0.00  0.00    +0.163 A 
ATOM     14  C   UNL     1      -3.673  -1.542  -4.373  0.00  0.00    +0.177 A 
ATOM     15  C   UNL     1      -2.859  -2.482  -3.760  0.00  0.00    +0.086 A 
ATOM     16  C   UNL     1      -1.673  -2.086  -3.167  0.00  0.00    +0.028 A 
ATOM     17 CL   UNL     1      -3.323  -4.154  -3.743  0.00  0.00    -0.080 Cl
BRANCH  14  18
ATOM     18  O   UNL     1      -4.837  -1.929  -4.961  0.00  0.00    -0.502 OA
ATOM     19  H   UNL     1      -4.746  -2.167  -5.894  0.00  0.00    +0.292 HD
ENDBRANCH  14  18
BRANCH  13  20
ATOM     20  O   UNL     1      -4.094   0.723  -4.984  0.00  0.00    -0.491 OA
ATOM     21  C   UNL     1      -3.646   2.080  -4.957  0.00  0.00    +0.277 C 
ENDBRANCH  13  20
ENDBRANCH   1  11
BRANCH   1  22
ATOM     22  C   UNL     1       1.151  -0.860  -3.314  0.00  0.00    +0.017 C 
ATOM     23  C   UNL     1       2.127  -0.168  -3.905  0.00  0.00    +0.065 C 
ATOM     24  N   UNL     1       2.996  -0.998  -4.525  0.00  0.00    -0.156 NA
ATOM     25  N   UNL     1       2.721  -2.196  -4.424  0.00  0.00    -0.151 NA
ATOM     26  C   UNL     1       1.491  -2.308  -3.621  0.00  0.00    +0.284 C 
ATOM     27  C   UNL     1       2.245   1.334  -3.885  0.00  0.00    +0.067 C 
BRANCH  26  28
ATOM     28  O   UNL     1       0.448  -2.921  -4.382  0.00  0.00    -0.366 OA
ATOM     29  H   UNL     1       0.616  -3.847  -4.605  0.00  0.00    +0.212 HD
ENDBRANCH  26  28
ENDBRANCH   1  22
TORSDOF 7
