REMARK  Name = ZINC29107714
REMARK  10 active torsions:
REMARK  status: ('A' for Active; 'I' for Inactive)
REMARK    1  A    between atoms: C_1  and  C_2
REMARK    2  A    between atoms: C_5  and  S_8
REMARK    3  A    between atoms: S_8  and  N_11
REMARK    4  A    between atoms: N_11  and  C_12
REMARK    5  A    between atoms: C_12  and  C_14
REMARK    6  A    between atoms: C_12  and  C_17
REMARK    7  A    between atoms: C_14  and  C_15
REMARK    8  A    between atoms: C_14  and  C_16
REMARK    9  A    between atoms: N_19  and  C_20
REMARK   10  A    between atoms: C_20  and  C_21
REMARK                            x       y       z     vdW  Elec       q    Type
REMARK                         _______ _______ _______ _____ _____    ______ ____
ROOT
ATOM      1  C   UNL     1      -0.730   1.918   6.105  0.00  0.00    +0.165 C 
ENDROOT
BRANCH   1   2
ATOM      2  C   UNL     1      -0.331   1.118   4.892  0.00  0.00    +0.232 C 
ATOM      3  O   UNL     1       0.769   0.610   4.835  0.00  0.00    -0.274 OA
ATOM      4  N   UNL     1      -1.196   0.968   3.870  0.00  0.00    -0.313 N 
ATOM      5  H   UNL     1      -2.158   1.501   3.881  0.00  0.00    +0.149 HD
BRANCH   4   6
ATOM      6  C   UNL     1      -0.856   0.095   2.744  0.00  0.00    +0.112 C 
BRANCH   6   7
ATOM      7  C   UNL     1      -1.951   0.185   1.679  0.00  0.00    +0.036 C 
ATOM      8  C   UNL     1      -3.263  -0.338   2.260  0.00  0.00    +0.010 C 
ATOM      9  C   UNL     1      -4.288  -0.442   1.125  0.00  0.00    +0.005 C 
ATOM     10  C   UNL     1      -3.869  -1.583   0.200  0.00  0.00    +0.035 C 
ATOM     11  C   UNL     1      -2.427  -1.433  -0.207  0.00  0.00    -0.044 A 
ATOM     12  C   UNL     1      -1.544  -0.627   0.477  0.00  0.00    -0.040 A 
ATOM     13  C   UNL     1      -0.224  -0.539   0.054  0.00  0.00    +0.004 A 
ATOM     14  C   UNL     1       0.209  -1.250  -1.047  0.00  0.00    +0.000 A 
ATOM     15  C   UNL     1      -0.679  -2.055  -1.736  0.00  0.00    +0.000 A 
ATOM     16  C   UNL     1      -1.990  -2.146  -1.316  0.00  0.00    +0.004 A 
ENDBRANCH   6   7
ENDBRANCH   4   6
ENDBRANCH   1   2
BRANCH   1  17
ATOM     17  C   UNL     1      -0.695   3.409   5.767  0.00  0.00    +0.010 C 
ATOM     18  C   UNL     1      -1.202   4.216   6.965  0.00  0.00    +0.009 C 
ATOM     19  C   UNL     1       0.741   3.825   5.443  0.00  0.00    +0.009 C 
ENDBRANCH   1  17
BRANCH   1  20
ATOM     20  N   UNL     1       0.205   1.643   7.200  0.00  0.00    -0.178 NA
ATOM     21  H   UNL     1       1.289   1.700   7.024  0.00  0.00    +0.149 HD
BRANCH  20  22
ATOM     22  S   UNL     1      -0.352   1.010   8.625  0.00  0.00    +0.059 S 
ATOM     23  O   UNL     1       0.782   0.832   9.461  0.00  0.00    -0.153 OA
ATOM     24  O   UNL     1      -1.468   1.800   9.012  0.00  0.00    -0.153 OA
BRANCH  22  29
ATOM     25  C   UNL     1      -2.483  -4.504   7.414  0.00  0.00    +0.044 C 
ATOM     26  C   UNL     1      -1.951  -3.127   7.717  0.00  0.00    -0.050 A 
ATOM     27  C   UNL     1      -0.625  -2.961   8.071  0.00  0.00    +0.005 A 
ATOM     28  C   UNL     1      -0.137  -1.698   8.348  0.00  0.00    +0.029 A 
ATOM     29  C   UNL     1      -0.975  -0.601   8.271  0.00  0.00    +0.105 A 
ATOM     30  C   UNL     1      -2.302  -0.767   7.922  0.00  0.00    +0.029 A 
ATOM     31  C   UNL     1      -2.789  -2.030   7.641  0.00  0.00    +0.005 A 
ENDBRANCH  22  29
ENDBRANCH  20  22
ENDBRANCH   1  20
TORSDOF 7
