REMARK  Name = ZINC56931883
REMARK  12 active torsions:
REMARK  status: ('A' for Active; 'I' for Inactive)
REMARK    1  A    between atoms: C_1  and  C_2
REMARK    2  A    between atoms: C_2  and  N_3
REMARK    3  A    between atoms: N_3  and  C_4
REMARK    4  A    between atoms: N_3  and  C_6
REMARK    5  A    between atoms: C_4  and  C_5
REMARK    6  A    between atoms: C_6  and  C_8
REMARK    7  A    between atoms: C_6  and  C_15
REMARK    8  A    between atoms: C_8  and  C_9
REMARK    9  A    between atoms: C_15  and  N_16
REMARK   10  A    between atoms: C_17  and  C_19
REMARK   11  A    between atoms: C_22  and  S_24
REMARK   12  A    between atoms: S_24  and  N_27
REMARK                            x       y       z     vdW  Elec       q    Type
REMARK                         _______ _______ _______ _____ _____    ______ ____
ROOT
ATOM      1  C   UNL     1       0.015   1.436  -2.804  0.00  0.00    +0.089 C 
ENDROOT
BRANCH   1   2
ATOM      2  N   UNL     1      -0.662   2.188  -1.744  0.00  0.00    -0.310 N 
ATOM      3  C   UNL     1      -0.796   3.525  -1.846  0.00  0.00    +0.279 C 
ATOM      4  O   UNL     1      -0.437   4.097  -2.858  0.00  0.00    -0.267 OA
ATOM      5  H   UNL     1      -1.014   1.722  -0.969  0.00  0.00    +0.149 HD
BRANCH   3   6
ATOM      6  C   UNL     1      -1.375   4.290  -0.737  0.00  0.00    +0.192 A 
ATOM      7  C   UNL     1      -1.658   5.626  -0.746  0.00  0.00    +0.057 A 
ATOM      8  C   UNL     1      -2.196   5.933   0.514  0.00  0.00    +0.072 A 
ATOM      9  C   UNL     1      -2.217   4.786   1.228  0.00  0.00    +0.258 A 
ATOM     10  O   UNL     1      -1.726   3.797   0.469  0.00  0.00    -0.432 OA
BRANCH   9  11
ATOM     11  S   UNL     1      -2.799   4.617   2.882  0.00  0.00    +0.089 S 
ATOM     12  O   UNL     1      -2.156   3.471   3.424  0.00  0.00    -0.150 OA
ATOM     13  O   UNL     1      -2.698   5.901   3.481  0.00  0.00    -0.150 OA
BRANCH  11  14
ATOM     14  N   UNL     1      -4.413   4.258   2.799  0.00  0.00    -0.201 NA
ATOM     15  H   UNL     1      -4.827   3.719   3.491  0.00  0.00    +0.144 HD
ATOM     16  H   UNL     1      -4.946   4.588   2.058  0.00  0.00    +0.144 HD
ENDBRANCH  11  14
ENDBRANCH   9  11
ENDBRANCH   3   6
ENDBRANCH   1   2
BRANCH   1  17
ATOM     17  C   UNL     1      -0.065  -0.061  -2.499  0.00  0.00    -0.047 C 
BRANCH  17  18
ATOM     18  N   UNL     1       0.687  -0.351  -1.271  0.00  0.00    +0.382 N 
ATOM     19  H   UNL     1       1.158  -1.238  -1.367  0.00  0.00    -0.081 HD
BRANCH  18  21
ATOM     20  C   UNL     1       2.798   0.591  -2.078  0.00  0.00    -0.017 C 
ATOM     21  C   UNL     1       1.679   0.708  -1.042  0.00  0.00    -0.082 C 
ENDBRANCH  18  21
BRANCH  18  22
ATOM     22  C   UNL     1      -0.239  -0.409  -0.132  0.00  0.00    -0.082 C 
ATOM     23  C   UNL     1      -1.172  -1.611  -0.293  0.00  0.00    -0.017 C 
ENDBRANCH  18  22
ENDBRANCH  17  18
BRANCH  17  24
ATOM     24  C   UNL     1       0.535  -0.851  -3.663  0.00  0.00    +0.021 C 
BRANCH  24  25
ATOM     25  C   UNL     1       0.345  -2.326  -3.420  0.00  0.00    -0.049 A 
ATOM     26  C   UNL     1       1.279  -3.031  -2.684  0.00  0.00    +0.003 A 
ATOM     27  C   UNL     1       1.104  -4.384  -2.461  0.00  0.00    +0.000 A 
ATOM     28  C   UNL     1      -0.004  -5.032  -2.973  0.00  0.00    +0.000 A 
ATOM     29  C   UNL     1      -0.938  -4.327  -3.709  0.00  0.00    +0.000 A 
ATOM     30  C   UNL     1      -0.766  -2.973  -3.928  0.00  0.00    +0.003 A 
ENDBRANCH  24  25
ENDBRANCH  17  24
ENDBRANCH   1  17
TORSDOF 10
