REMARK  Name = ZINC09465228
REMARK  10 active torsions:
REMARK  status: ('A' for Active; 'I' for Inactive)
REMARK    1  A    between atoms: C_1  and  C_2
REMARK    2  A    between atoms: C_2  and  C_4
REMARK    3  A    between atoms: C_2  and  N_61
REMARK    4  A    between atoms: C_7  and  S_16
REMARK    5  A    between atoms: N_8  and  C_9
REMARK    6  A    between atoms: S_16  and  C_17
REMARK    7  A    between atoms: C_17  and  C_19
REMARK    8  A    between atoms: C_17  and  C_25
REMARK    9  A    between atoms: C_33  and  N_61
REMARK   10  A    between atoms: C_34  and  N_61
REMARK                            x       y       z     vdW  Elec       q    Type
REMARK                         _______ _______ _______ _____ _____    ______ ____
ROOT
ATOM      1  C   UNL     1       3.942   0.916   4.607  0.00  0.00    +0.125 A 
ATOM      2  N   UNL     1       3.877   0.056   3.630  0.00  0.00    -0.135 NA
ATOM      3  N   UNL     1       3.809   0.670   2.503  0.00  0.00    -0.122 NA
ATOM      4  C   UNL     1       3.835   1.968   2.699  0.00  0.00    +0.197 A 
ATOM      5  N   UNL     1       3.918   2.167   4.050  0.00  0.00    -0.275 N 
ENDROOT
BRANCH   5   6
ATOM      6  C   UNL     1       3.967   3.397   4.724  0.00  0.00    +0.050 A 
ATOM      7  C   UNL     1       5.101   3.751   5.442  0.00  0.00    +0.029 A 
ATOM      8  C   UNL     1       5.150   4.964   6.100  0.00  0.00    +0.040 A 
ATOM      9  C   UNL     1       4.064   5.822   6.054  0.00  0.00    +0.124 A 
ATOM     10  C   UNL     1       2.930   5.468   5.343  0.00  0.00    +0.040 A 
ATOM     11  C   UNL     1       2.880   4.258   4.679  0.00  0.00    +0.029 A 
ATOM     12  F   UNL     1       4.112   7.006   6.703  0.00  0.00    -0.205 F 
ENDBRANCH   5   6
BRANCH   1  14
ATOM     13  C   UNL     1       2.660   0.131   6.578  0.00  0.00    -0.005 C 
ATOM     14  C   UNL     1       4.029   0.595   6.076  0.00  0.00    -0.003 C 
BRANCH  14  17
ATOM     15  C   UNL     1       5.213  -0.733   7.719  0.00  0.00    -0.096 C 
ATOM     16  C   UNL     1       4.621  -1.700   5.579  0.00  0.00    -0.096 C 
ATOM     17  N   UNL     1       5.040  -0.465   6.276  0.00  0.00    +0.382 N 
ATOM     18  H   UNL     1       5.935  -0.149   5.885  0.00  0.00    -0.082 HD
ENDBRANCH  14  17
ENDBRANCH   1  14
BRANCH   4  19
ATOM     19  S   UNL     1       3.768   3.217   1.458  0.00  0.00    -0.068 S 
BRANCH  19  20
ATOM     20  C   UNL     1       3.672   2.182  -0.024  0.00  0.00    +0.170 C 
BRANCH  20  21
ATOM     21  C   UNL     1       3.728   3.055  -1.251  0.00  0.00    +0.233 C 
ATOM     22  O   UNL     1       3.461   4.235  -1.168  0.00  0.00    -0.274 OA
ATOM     23  N   UNL     1       4.074   2.525  -2.441  0.00  0.00    -0.296 N 
ATOM     24  C   UNL     1       4.408   1.097  -2.565  0.00  0.00    +0.136 C 
ATOM     25  C   UNL     1       3.586   0.511  -3.724  0.00  0.00    +0.179 C 
ATOM     26  O   UNL     1       3.784   1.313  -4.891  0.00  0.00    -0.377 OA
ATOM     27  C   UNL     1       3.332   2.663  -4.758  0.00  0.00    +0.179 C 
ATOM     28  C   UNL     1       4.136   3.357  -3.652  0.00  0.00    +0.136 C 
ENDBRANCH  20  21
BRANCH  20  29
ATOM     29  C   UNL     1       2.377   1.411  -0.015  0.00  0.00    -0.025 A 
ATOM     30  C   UNL     1       1.171   2.086   0.002  0.00  0.00    +0.005 A 
ATOM     31  C   UNL     1      -0.017   1.378   0.010  0.00  0.00    +0.000 A 
ATOM     32  C   UNL     1       0.002  -0.004   0.002  0.00  0.00    +0.000 A 
ATOM     33  C   UNL     1       1.208  -0.679  -0.013  0.00  0.00    +0.000 A 
ATOM     34  C   UNL     1       2.396   0.029  -0.022  0.00  0.00    +0.005 A 
ENDBRANCH  20  29
ENDBRANCH  19  20
ENDBRANCH   4  19
TORSDOF 7
