REMARK  Name = ZINC63807570
REMARK  9 active torsions:
REMARK  status: ('A' for Active; 'I' for Inactive)
REMARK    1  A    between atoms: C_4  and  C_7
REMARK    2  A    between atoms: C_7  and  N_8
REMARK    3  A    between atoms: C_9  and  N_39
REMARK    4  A    between atoms: C_11  and  N_18
REMARK    5  A    between atoms: N_18  and  C_19
REMARK    6  A    between atoms: C_19  and  C_20
REMARK    7  A    between atoms: C_20  and  C_21
REMARK    8  A    between atoms: C_27  and  C_29
REMARK    9  A    between atoms: C_29  and  C_30
REMARK                            x       y       z     vdW  Elec       q    Type
REMARK                         _______ _______ _______ _____ _____    ______ ____
ROOT
ATOM      1  N   UNL     1       3.081   0.663   3.829  0.00  0.00    -0.286 N 
ATOM      2  C   UNL     1       1.842   0.346   3.401  0.00  0.00    +0.220 C 
ATOM      3  O   UNL     1       1.601  -0.782   3.026  0.00  0.00    -0.275 OA
ENDROOT
BRANCH   1   6
ATOM      4  N   UNL     1       5.362   0.352   5.753  0.00  0.00    -0.262 N 
ATOM      5  C   UNL     1       4.597  -0.738   5.142  0.00  0.00    +0.173 C 
ATOM      6  C   UNL     1       4.162  -0.320   3.735  0.00  0.00    +0.199 C 
ATOM      7  C   UNL     1       5.336   0.289   3.012  0.00  0.00    +0.264 C 
ATOM      8  O   UNL     1       5.455   0.134   1.684  0.00  0.00    -0.271 OA
ATOM      9  N   UNL     1       6.237   0.966   3.667  0.00  0.00    -0.126 NA
ATOM     10  C   UNL     1       6.171   1.118   5.000  0.00  0.00    +0.330 C 
ATOM     11  O   UNL     1       6.862   1.963   5.538  0.00  0.00    -0.250 OA
BRANCH   5  12
ATOM     12  N   UNL     1       3.410  -1.023   5.959  0.00  0.00    -0.311 NA
ATOM     13  H   UNL     1       3.672  -1.297   6.894  0.00  0.00    +0.120 HD
ATOM     14  H   UNL     1       2.784  -0.232   5.976  0.00  0.00    +0.120 HD
ENDBRANCH   5  12
BRANCH   4  15
ATOM     15  C   UNL     1       5.241   0.612   7.190  0.00  0.00    +0.146 C 
BRANCH  15  19
ATOM     16  C   UNL     1       2.375   3.712   7.841  0.00  0.00    +0.000 A 
ATOM     17  C   UNL     1       1.982   2.387   7.883  0.00  0.00    +0.000 A 
ATOM     18  C   UNL     1       2.910   1.384   7.673  0.00  0.00    +0.005 A 
ATOM     19  C   UNL     1       4.230   1.706   7.418  0.00  0.00    -0.030 A 
ATOM     20  C   UNL     1       4.622   3.030   7.375  0.00  0.00    +0.005 A 
ATOM     21  C   UNL     1       3.695   4.033   7.587  0.00  0.00    +0.000 A 
ENDBRANCH  15  19
ENDBRANCH   4  15
ENDBRANCH   1   6
BRANCH   1  22
ATOM     22  C   UNL     1       3.345   1.991   4.388  0.00  0.00    +0.113 C 
BRANCH  22  23
ATOM     23  C   UNL     1       3.632   2.975   3.251  0.00  0.00    +0.049 C 
BRANCH  23  24
ATOM     24  C   UNL     1       3.818   4.358   3.819  0.00  0.00    -0.072 C 
ATOM     25  C   UNL     1       5.024   4.754   4.071  0.00  0.00    -0.028 C 
ATOM     26  C   UNL     1       5.366   6.097   4.647  0.00  0.00    +0.027 C 
ATOM     27  C   UNL     1       4.182   7.054   4.491  0.00  0.00    +0.004 C 
ATOM     28  C   UNL     1       2.919   6.349   5.003  0.00  0.00    +0.005 C 
ATOM     29  C   UNL     1       2.593   5.194   4.052  0.00  0.00    +0.030 C 
ENDBRANCH  23  24
ENDBRANCH  22  23
ENDBRANCH   1  22
BRANCH   2  30
ATOM     30  C   UNL     1       0.758   1.392   3.390  0.00  0.00    +0.129 C 
BRANCH  30  31
ATOM     31  C   UNL     1      -0.545   0.761   2.973  0.00  0.00    -0.033 C 
ATOM     32  C   UNL     1      -1.512   0.279   3.787  0.00  0.00    -0.001 A 
ATOM     33  C   UNL     1      -1.634   0.200   5.248  0.00  0.00    +0.010 A 
ATOM     34  C   UNL     1      -2.747  -0.351   5.785  0.00  0.00    +0.001 A 
ATOM     35  C   UNL     1      -3.783  -0.848   4.983  0.00  0.00    +0.002 A 
ATOM     36  C   UNL     1      -3.744  -0.811   3.634  0.00  0.00    +0.026 A 
ATOM     37  C   UNL     1      -2.621  -0.253   2.963  0.00  0.00    +0.043 A 
ATOM     38  N   UNL     1      -2.350  -0.105   1.689  0.00  0.00    -0.380 N 
ATOM     39  C   UNL     1      -1.040   0.543   1.561  0.00  0.00    +0.145 C 
ATOM     40  H   UNL     1      -2.922  -0.375   0.953  0.00  0.00    +0.160 HD
ENDBRANCH  30  31
ENDBRANCH   2  30
TORSDOF 9
