REMARK  Name = ZINC36028070
REMARK  9 active torsions:
REMARK  status: ('A' for Active; 'I' for Inactive)
REMARK    1  A    between atoms: C_1  and  C_2
REMARK    2  A    between atoms: C_2  and  C_3
REMARK    3  A    between atoms: C_3  and  C_5
REMARK    4  A    between atoms: C_3  and  C_6
REMARK    5  A    between atoms: N_10  and  C_31
REMARK    6  A    between atoms: N_15  and  S_18
REMARK    7  A    between atoms: S_18  and  C_21
REMARK    8  A    between atoms: C_25  and  C_27
REMARK    9  A    between atoms: C_31  and  C_32
REMARK                            x       y       z     vdW  Elec       q    Type
REMARK                         _______ _______ _______ _____ _____    ______ ____
ROOT
ATOM      1  C   UNL     1      -1.500  -2.010   0.075  0.00  0.00    +0.022 C 
ATOM      2  C   UNL     1      -0.858  -2.573  -1.174  0.00  0.00    +0.201 C 
ATOM      3  O   UNL     1       0.061  -2.071  -1.787  0.00  0.00    -0.277 OA
ATOM      4  N   UNL     1      -1.480  -3.727  -1.492  0.00  0.00    -0.306 N 
ATOM      5  C   UNL     1      -2.533  -4.002  -0.510  0.00  0.00    +0.006 C 
ATOM      6  N   UNL     1      -2.792  -2.727   0.196  0.00  0.00    +0.401 N 
ATOM      7  C   UNL     1      -2.061  -5.056   0.490  0.00  0.00    +0.023 C 
ATOM      8  C   UNL     1      -1.756  -6.360  -0.254  0.00  0.00    +0.109 C 
ATOM      9  N   UNL     1      -2.938  -6.745  -1.037  0.00  0.00    -0.177 NA
ATOM     10  C   UNL     1      -3.514  -5.771  -1.973  0.00  0.00    +0.109 C 
ATOM     11  C   UNL     1      -3.804  -4.471  -1.215  0.00  0.00    +0.023 C 
ATOM     12  H   UNL     1      -3.018  -2.894   1.165  0.00  0.00    -0.082 HD
ATOM     13  H   UNL     1      -3.530  -2.212  -0.260  0.00  0.00    -0.082 HD
ENDROOT
BRANCH   9  14
ATOM     14  S   UNL     1      -3.608  -8.250  -0.867  0.00  0.00    +0.061 S 
ATOM     15  O   UNL     1      -4.312  -8.519  -2.072  0.00  0.00    -0.153 OA
ATOM     16  O   UNL     1      -2.579  -9.100  -0.379  0.00  0.00    -0.153 OA
BRANCH  14  17
ATOM     17  C   UNL     1      -4.818  -8.140   0.409  0.00  0.00    +0.106 A 
ATOM     18  C   UNL     1      -4.459  -8.371   1.724  0.00  0.00    +0.028 A 
ATOM     19  C   UNL     1      -5.409  -8.285   2.725  0.00  0.00    +0.002 A 
ATOM     20  C   UNL     1      -6.717  -7.968   2.411  0.00  0.00    +0.012 A 
ATOM     21  C   UNL     1      -7.076  -7.737   1.096  0.00  0.00    +0.057 A 
ATOM     22  C   UNL     1      -6.125  -7.818   0.096  0.00  0.00    +0.041 A 
BRANCH  21  23
ATOM     23  C   UNL     1      -8.502  -7.391   0.754  0.00  0.00    +0.417 C 
ATOM     24  F   UNL     1      -9.269  -7.365   1.924  0.00  0.00    -0.166 F 
ATOM     25  F   UNL     1      -8.544  -6.134   0.141  0.00  0.00    -0.166 F 
ATOM     26  F   UNL     1      -9.018  -8.354  -0.120  0.00  0.00    -0.166 F 
ENDBRANCH  21  23
ENDBRANCH  14  17
ENDBRANCH   9  14
BRANCH   1  27
ATOM     27  C   UNL     1      -1.738  -0.506  -0.080  0.00  0.00    -0.020 C 
ATOM     28  C   UNL     1      -2.604  -0.252  -1.316  0.00  0.00    +0.006 C 
BRANCH  27  30
ATOM     29  C   UNL     1      -0.624   1.722  -0.272  0.00  0.00    +0.004 C 
ATOM     30  C   UNL     1      -0.396   0.209  -0.242  0.00  0.00    -0.001 C 
ENDBRANCH  27  30
ENDBRANCH   1  27
BRANCH   4  31
ATOM     31  C   UNL     1      -1.154  -4.575  -2.641  0.00  0.00    +0.180 C 
BRANCH  31  32
ATOM     32  C   UNL     1      -1.890  -4.077  -3.858  0.00  0.00    +0.122 A 
ATOM     33  C   UNL     1      -1.393  -3.248  -4.793  0.00  0.00    +0.046 A 
ATOM     34  C   UNL     1      -2.417  -3.045  -5.747  0.00  0.00    +0.041 A 
ATOM     35  C   UNL     1      -3.478  -3.762  -5.338  0.00  0.00    +0.195 A 
ATOM     36  O   UNL     1      -3.152  -4.390  -4.196  0.00  0.00    -0.466 OA
ENDBRANCH  31  32
ENDBRANCH   4  31
TORSDOF 7
