REMARK  Name = ZINC00828239
REMARK  7 active torsions:
REMARK  status: ('A' for Active; 'I' for Inactive)
REMARK    1  A    between atoms: C_1  and  C_2
REMARK    2  A    between atoms: C_2  and  C_21
REMARK    3  A    between atoms: N_3  and  N_4
REMARK    4  A    between atoms: N_9  and  C_10
REMARK    5  A    between atoms: C_10  and  C_11
REMARK    6  A    between atoms: N_19  and  C_20
REMARK    7  A    between atoms: C_22  and  C_23
REMARK                            x       y       z     vdW  Elec       q    Type
REMARK                         _______ _______ _______ _____ _____    ______ ____
ROOT
ATOM      1  N   UNL     1       0.461   4.298   1.861  0.00  0.00    -0.206 N 
ATOM      2  C   UNL     1      -0.620   3.453   1.968  0.00  0.00    +0.218 A 
ATOM      3  N   UNL     1      -1.680   3.664   2.723  0.00  0.00    -0.195 NA
ATOM      4  C   UNL     1      -2.535   2.649   2.600  0.00  0.00    +0.170 A 
ATOM      5  C   UNL     1      -1.982   1.740   1.704  0.00  0.00    +0.153 A 
ATOM      6  N   UNL     1      -0.763   2.272   1.310  0.00  0.00    -0.301 N 
ATOM      7  C   UNL     1      -2.689   0.564   1.394  0.00  0.00    +0.280 A 
ATOM      8  O   UNL     1      -2.224  -0.247   0.612  0.00  0.00    -0.265 OA
ATOM      9  N   UNL     1      -3.889   0.344   1.972  0.00  0.00    -0.273 N 
ATOM     10  H   UNL     1      -4.394  -0.491   1.753  0.00  0.00    +0.173 HD
ATOM     11  C   UNL     1      -4.414   1.229   2.836  0.00  0.00    +0.331 A 
ATOM     12  O   UNL     1      -5.497   0.996   3.337  0.00  0.00    -0.246 OA
ATOM     13  N   UNL     1      -3.771   2.366   3.160  0.00  0.00    -0.280 N 
ATOM     14  C   UNL     1      -4.377   3.305   4.107  0.00  0.00    +0.155 C 
ATOM     15  H   UNL     1       1.233   4.034   1.336  0.00  0.00    +0.177 HD
ENDROOT
BRANCH   1  18
ATOM     16  C   UNL     1       1.472   7.664   3.117  0.00  0.00    +0.067 C 
ATOM     17  C   UNL     1       1.424   6.382   2.326  0.00  0.00    +0.056 C 
ATOM     18  N   UNL     1       0.447   5.540   2.510  0.00  0.00    -0.185 NA
BRANCH  17  19
ATOM     19  C   UNL     1       2.442   6.092   1.383  0.00  0.00    +0.025 C 
ATOM     20  C   UNL     1       3.511   6.907   1.273  0.00  0.00    +0.010 C 
BRANCH  20  21
ATOM     21  C   UNL     1       4.509   6.673   0.217  0.00  0.00    -0.025 A 
ATOM     22  C   UNL     1       4.300   5.673  -0.739  0.00  0.00    +0.008 A 
ATOM     23  C   UNL     1       5.237   5.465  -1.729  0.00  0.00    +0.001 A 
ATOM     24  C   UNL     1       6.387   6.233  -1.772  0.00  0.00    +0.000 A 
ATOM     25  C   UNL     1       6.604   7.221  -0.826  0.00  0.00    +0.001 A 
ATOM     26  C   UNL     1       5.674   7.446   0.167  0.00  0.00    +0.008 A 
ENDBRANCH  20  21
ENDBRANCH  17  19
ENDBRANCH   1  18
BRANCH   6  27
ATOM     27  C   UNL     1       0.189   1.674   0.370  0.00  0.00    +0.152 C 
BRANCH  27  28
ATOM     28  C   UNL     1      -0.049   2.231  -1.010  0.00  0.00    -0.013 C 
ATOM     29  C   UNL     1       0.910   2.870  -1.633  0.00  0.00    +0.005 C 
ENDBRANCH  27  28
ENDBRANCH   6  27
TORSDOF 5
