REMARK  Name = ZINC63350815
REMARK  13 active torsions:
REMARK  status: ('A' for Active; 'I' for Inactive)
REMARK    1  A    between atoms: C_1  and  C_2
REMARK    2  A    between atoms: C_11  and  O_14
REMARK    3  A    between atoms: C_12  and  C_13
REMARK    4  A    between atoms: O_14  and  C_15
REMARK    5  A    between atoms: C_15  and  C_17
REMARK    6  A    between atoms: C_17  and  C_19
REMARK    7  A    between atoms: C_17  and  N_29
REMARK    8  A    between atoms: C_19  and  C_20
REMARK    9  A    between atoms: C_30  and  O_32
REMARK   10  A    between atoms: O_32  and  C_33
REMARK   11  A    between atoms: C_33  and  C_34
REMARK   12  A    between atoms: C_33  and  C_35
REMARK   13  A    between atoms: C_33  and  C_36
REMARK                            x       y       z     vdW  Elec       q    Type
REMARK                         _______ _______ _______ _____ _____    ______ ____
ROOT
ATOM      1  C   UNL     1       0.332  -3.023   7.208  0.00  0.00    +0.189 C 
ENDROOT
BRANCH   1   2
ATOM      2  N   UNL     1       0.895  -2.133   8.226  0.00  0.00    -0.268 N 
ATOM      3  C   UNL     1       0.243  -1.004   8.570  0.00  0.00    +0.401 C 
ATOM      4  O   UNL     1      -0.811  -0.725   8.035  0.00  0.00    -0.226 OA
ATOM      5  H   UNL     1       1.737  -2.355   8.653  0.00  0.00    +0.153 HD
BRANCH   3   6
ATOM      6  O   UNL     1       0.761  -0.186   9.506  0.00  0.00    -0.445 OA
BRANCH   6   7
ATOM      7  C   UNL     1       0.016   0.992   9.820  0.00  0.00    +0.107 C 
ATOM      8  C   UNL     1      -1.368   0.598  10.339  0.00  0.00    +0.055 C 
ATOM      9  C   UNL     1       0.756   1.790  10.896  0.00  0.00    +0.055 C 
ATOM     10  C   UNL     1      -0.136   1.851   8.563  0.00  0.00    +0.055 C 
ENDBRANCH   6   7
ENDBRANCH   3   6
ENDBRANCH   1   2
BRANCH   1  11
ATOM     11  C   UNL     1       0.192  -2.273   5.908  0.00  0.00    +0.333 C 
ATOM     12  O   UNL     1       0.173  -1.065   5.906  0.00  0.00    -0.248 OA
BRANCH  11  13
ATOM     13  O   UNL     1       0.086  -2.948   4.752  0.00  0.00    -0.424 OA
BRANCH  13  24
ATOM     14  C   UNL     1      -1.250   0.333  -0.703  0.00  0.00    +0.045 C 
ATOM     15  C   UNL     1       0.039  -0.014  -0.004  0.00  0.00    -0.033 A 
ATOM     16  C   UNL     1       1.235   0.384  -0.511  0.00  0.00    +0.096 A 
ATOM     17  C   UNL     1       2.428   0.047   0.162  0.00  0.00    +0.337 A 
ATOM     18  O   UNL     1       3.494   0.410  -0.303  0.00  0.00    -0.245 OA
ATOM     19  O   UNL     1       2.420  -0.663   1.300  0.00  0.00    -0.422 OA
ATOM     20  C   UNL     1       1.265  -1.089   1.857  0.00  0.00    +0.146 A 
ATOM     21  C   UNL     1       0.037  -0.783   1.242  0.00  0.00    +0.021 A 
ATOM     22  C   UNL     1      -1.162  -1.218   1.818  0.00  0.00    +0.015 A 
ATOM     23  C   UNL     1      -1.136  -1.934   2.980  0.00  0.00    +0.047 A 
ATOM     24  C   UNL     1       0.077  -2.235   3.596  0.00  0.00    +0.138 A 
ATOM     25  C   UNL     1       1.274  -1.822   3.034  0.00  0.00    +0.035 A 
ATOM     26  C   UNL     1       2.580  -2.153   3.709  0.00  0.00    +0.051 C 
ENDBRANCH  13  24
ENDBRANCH  11  13
ENDBRANCH   1  11
BRANCH   1  27
ATOM     27  C   UNL     1      -1.043  -3.514   7.664  0.00  0.00    +0.067 C 
BRANCH  27  28
ATOM     28  C   UNL     1      -0.887  -4.367   8.897  0.00  0.00    -0.039 C 
ATOM     29  C   UNL     1      -1.010  -3.967  10.183  0.00  0.00    -0.001 A 
ATOM     30  C   UNL     1      -1.311  -2.668  10.796  0.00  0.00    +0.010 A 
ATOM     31  C   UNL     1      -1.367  -2.575  12.144  0.00  0.00    +0.001 A 
ATOM     32  C   UNL     1      -1.144  -3.687  12.969  0.00  0.00    +0.002 A 
ATOM     33  C   UNL     1      -0.862  -4.913  12.480  0.00  0.00    +0.026 A 
ATOM     34  C   UNL     1      -0.779  -5.125  11.076  0.00  0.00    +0.043 A 
ATOM     35  N   UNL     1      -0.523  -6.199  10.369  0.00  0.00    -0.380 N 
ATOM     36  C   UNL     1      -0.570  -5.845   8.946  0.00  0.00    +0.144 C 
ATOM     37  H   UNL     1      -0.339  -7.082  10.727  0.00  0.00    +0.160 HD
ENDBRANCH  27  28
ENDBRANCH   1  27
TORSDOF 8
