REMARK  Name = ZINC09836173
REMARK  9 active torsions:
REMARK  status: ('A' for Active; 'I' for Inactive)
REMARK    1  A    between atoms: C_1  and  C_2
REMARK    2  A    between atoms: C_7  and  C_35
REMARK    3  A    between atoms: C_9  and  C_10
REMARK    4  A    between atoms: C_9  and  N_64
REMARK    5  A    between atoms: C_10  and  C_11
REMARK    6  A    between atoms: C_11  and  N_12
REMARK    7  A    between atoms: C_13  and  C_15
REMARK    8  A    between atoms: C_15  and  O_34
REMARK    9  A    between atoms: N_25  and  C_26
REMARK                            x       y       z     vdW  Elec       q    Type
REMARK                         _______ _______ _______ _____ _____    ______ ____
ROOT
ATOM      1  C   UNL     1       2.250   2.575  -0.429  0.00  0.00    +0.247 C 
ATOM      2  C   UNL     1       0.905   3.248  -0.576  0.00  0.00    +0.033 A 
ATOM      3  C   UNL     1      -0.264   2.524  -0.549  0.00  0.00    +0.010 A 
ATOM      4  C   UNL     1      -1.478   3.175  -0.693  0.00  0.00    +0.001 A 
ATOM      5  C   UNL     1      -1.513   4.548  -0.851  0.00  0.00    +0.002 A 
ATOM      6  C   UNL     1      -0.340   5.277  -0.879  0.00  0.00    +0.024 A 
ATOM      7  C   UNL     1       0.880   4.629  -0.741  0.00  0.00    +0.043 A 
ATOM      8  N   UNL     1       2.075   5.348  -0.767  0.00  0.00    -0.269 N 
ATOM      9  C   UNL     1       3.276   4.769  -0.639  0.00  0.00    +0.314 C 
ATOM     10  O   UNL     1       4.266   5.474  -0.673  0.00  0.00    -0.252 OA
ATOM     11  N   UNL     1       3.439   3.444  -0.473  0.00  0.00    -0.214 N 
ATOM     12  H   UNL     1       2.035   6.310  -0.882  0.00  0.00    +0.156 HD
ENDROOT
BRANCH  11  13
ATOM     13  C   UNL     1       4.721   2.897  -0.345  0.00  0.00    +0.043 A 
ATOM     14  C   UNL     1       5.580   2.875  -1.436  0.00  0.00    +0.025 A 
ATOM     15  C   UNL     1       6.847   2.341  -1.306  0.00  0.00    +0.023 A 
ATOM     16  C   UNL     1       7.258   1.817  -0.093  0.00  0.00    +0.059 A 
ATOM     17  C   UNL     1       6.401   1.833   0.995  0.00  0.00    +0.061 A 
ATOM     18  C   UNL     1       5.134   2.372   0.872  0.00  0.00    +0.045 A 
ATOM     19 CL   UNL     1       6.920   1.175   2.516  0.00  0.00    -0.082 Cl
ATOM     20 CL   UNL     1       8.848   1.141   0.065  0.00  0.00    -0.082 Cl
ENDBRANCH  11  13
BRANCH   1  22
ATOM     21  N   UNL     1       2.426   1.950  -2.816  0.00  0.00    -0.311 N 
ATOM     22  C   UNL     1       2.381   1.552  -1.529  0.00  0.00    +0.269 C 
ATOM     23  O   UNL     1       2.445   0.373  -1.255  0.00  0.00    -0.270 OA
ATOM     24  H   UNL     1       2.375   2.893  -3.035  0.00  0.00    +0.149 HD
BRANCH  21  25
ATOM     25  C   UNL     1       2.553   0.956  -3.885  0.00  0.00    +0.102 C 
BRANCH  25  26
ATOM     26  C   UNL     1       2.582   1.665  -5.240  0.00  0.00    +0.000 C 
BRANCH  26  27
ATOM     27  C   UNL     1       2.714   0.627  -6.356  0.00  0.00    -0.077 C 
BRANCH  27  35
ATOM     28  C   UNL     1       1.302  -0.593  -8.463  0.00  0.00    -0.013 C 
ATOM     29  C   UNL     1       2.495   0.321  -8.748  0.00  0.00    -0.071 C 
ATOM     30  C   UNL     1       2.270   1.056 -10.071  0.00  0.00    -0.016 C 
ATOM     31  C   UNL     1       3.457   1.984 -10.342  0.00  0.00    -0.003 C 
ATOM     32  C   UNL     1       3.609   2.961  -9.173  0.00  0.00    -0.016 C 
ATOM     33  C   UNL     1       3.796   2.171  -7.876  0.00  0.00    -0.071 C 
ATOM     34  C   UNL     1       5.062   1.317  -7.977  0.00  0.00    -0.013 C 
ATOM     35  N   UNL     1       2.610   1.315  -7.660  0.00  0.00    +0.383 N 
ATOM     36  H   UNL     1       1.769   1.906  -7.659  0.00  0.00    -0.081 HD
ENDBRANCH  27  35
ENDBRANCH  26  27
ENDBRANCH  25  26
ENDBRANCH  21  25
ENDBRANCH   1  22
BRANCH   1  37
ATOM     37  O   UNL     1       2.260   1.878   0.818  0.00  0.00    -0.360 OA
ATOM     38  H   UNL     1       1.576   1.199   0.895  0.00  0.00    +0.213 HD
ENDBRANCH   1  37
TORSDOF 7
