REMARK  Name = ZINC12246936
REMARK  11 active torsions:
REMARK  status: ('A' for Active; 'I' for Inactive)
REMARK    1  A    between atoms: C_1  and  C_2
REMARK    2  A    between atoms: C_6  and  N_9
REMARK    3  A    between atoms: C_7  and  C_8
REMARK    4  A    between atoms: C_15  and  C_17
REMARK    5  A    between atoms: C_17  and  C_18
REMARK    6  A    between atoms: C_18  and  C_29
REMARK    7  A    between atoms: N_22  and  C_25
REMARK    8  A    between atoms: C_25  and  C_26
REMARK    9  A    between atoms: C_26  and  N_71
REMARK   10  A    between atoms: C_27  and  N_71
REMARK   11  A    between atoms: C_28  and  N_71
REMARK                            x       y       z     vdW  Elec       q    Type
REMARK                         _______ _______ _______ _____ _____    ______ ____
ROOT
ATOM      1  C   UNL     1       1.281   1.864  -0.210  0.00  0.00    +0.091 C 
ATOM      2  C   UNL     1      -0.198   1.440  -0.321  0.00  0.00    +0.117 C 
ATOM      3  C   UNL     1      -0.136  -0.072  -0.300  0.00  0.00    +0.223 C 
ATOM      4  O   UNL     1      -1.092  -0.815  -0.368  0.00  0.00    -0.275 OA
ATOM      5  N   UNL     1       1.141  -0.459  -0.195  0.00  0.00    -0.243 N 
ATOM      6  C   UNL     1       2.023   0.547  -0.137  0.00  0.00    +0.233 C 
ATOM      7  O   UNL     1       3.225   0.422  -0.041  0.00  0.00    -0.274 OA
ENDROOT
BRANCH   1   8
ATOM      8  C   UNL     1       1.508   2.670   1.043  0.00  0.00    +0.004 A 
ATOM      9  C   UNL     1       2.000   3.959   0.955  0.00  0.00    +0.007 A 
ATOM     10  C   UNL     1       2.204   4.701   2.104  0.00  0.00    +0.000 A 
ATOM     11  C   UNL     1       1.925   4.152   3.342  0.00  0.00    +0.003 A 
ATOM     12  C   UNL     1       1.438   2.862   3.432  0.00  0.00    +0.038 A 
ATOM     13  C   UNL     1       1.229   2.119   2.282  0.00  0.00    +0.128 A 
ATOM     14  F   UNL     1       0.752   0.858   2.369  0.00  0.00    -0.205 F 
ENDBRANCH   1   8
BRANCH   1  15
ATOM     15  C   UNL     1       1.709   2.655  -1.447  0.00  0.00    +0.117 C 
BRANCH  15  22
ATOM     16  N   UNL     1       4.631   5.981  -3.733  0.00  0.00    -0.327 N 
ATOM     17  C   UNL     1       5.264   5.673  -2.443  0.00  0.00    +0.124 C 
ATOM     18  C   UNL     1       5.163   4.167  -2.176  0.00  0.00    +0.126 C 
ATOM     19  N   UNL     1       3.753   3.766  -2.289  0.00  0.00    -0.298 N 
ATOM     20  C   UNL     1       3.013   4.155  -3.499  0.00  0.00    +0.126 C 
ATOM     21  C   UNL     1       3.196   5.666  -3.711  0.00  0.00    +0.124 C 
ATOM     22  C   UNL     1       3.155   3.056  -1.311  0.00  0.00    +0.217 C 
ATOM     23  O   UNL     1       3.782   2.740  -0.322  0.00  0.00    -0.276 OA
BRANCH  16  29
ATOM     24  C   UNL     1       6.618   9.277  -6.790  0.00  0.00    +0.044 C 
ATOM     25  C   UNL     1       5.804   8.942  -5.566  0.00  0.00    -0.046 A 
ATOM     26  C   UNL     1       5.270   9.957  -4.793  0.00  0.00    +0.004 A 
ATOM     27  C   UNL     1       4.524   9.654  -3.669  0.00  0.00    +0.002 A 
ATOM     28  C   UNL     1       4.310   8.337  -3.315  0.00  0.00    +0.023 A 
ATOM     29  C   UNL     1       4.845   7.315  -4.089  0.00  0.00    +0.033 A 
ATOM     30  C   UNL     1       5.598   7.623  -5.215  0.00  0.00    -0.027 A 
ATOM     31  C   UNL     1       6.186   6.518  -6.054  0.00  0.00    +0.046 C 
ENDBRANCH  16  29
ENDBRANCH  15  22
ENDBRANCH   1  15
BRANCH   5  32
ATOM     32  C   UNL     1       1.541  -1.868  -0.148  0.00  0.00    +0.098 C 
BRANCH  32  33
ATOM     33  C   UNL     1       1.793  -2.374  -1.570  0.00  0.00    -0.060 C 
BRANCH  33  36
ATOM     34  C   UNL     1       1.093  -4.631  -1.042  0.00  0.00    -0.097 C 
ATOM     35  C   UNL     1       2.672  -4.242  -2.836  0.00  0.00    -0.097 C 
ATOM     36  N   UNL     1       2.216  -3.788  -1.504  0.00  0.00    +0.377 N 
ATOM     37  H   UNL     1       2.994  -3.874  -0.839  0.00  0.00    -0.083 HD
ENDBRANCH  33  36
ENDBRANCH  32  33
ENDBRANCH   5  32
TORSDOF 7
