REMARK  Name = ZINC49096430
REMARK  9 active torsions:
REMARK  status: ('A' for Active; 'I' for Inactive)
REMARK    1  A    between atoms: C_1  and  C_2
REMARK    2  A    between atoms: C_2  and  O_3
REMARK    3  A    between atoms: O_3  and  C_4
REMARK    4  A    between atoms: C_5  and  C_12
REMARK    5  A    between atoms: C_12  and  N_13
REMARK    6  A    between atoms: N_13  and  C_14
REMARK    7  A    between atoms: C_14  and  C_16
REMARK    8  A    between atoms: C_14  and  C_17
REMARK    9  A    between atoms: N_19  and  C_20
REMARK                            x       y       z     vdW  Elec       q    Type
REMARK                         _______ _______ _______ _____ _____    ______ ____
ROOT
ATOM      1  C   UNL     1       0.787  -1.417   1.193  0.00  0.00    +0.136 A 
ATOM      2  C   UNL     1       0.013  -2.382   1.820  0.00  0.00    -0.021 A 
ATOM      3  C   UNL     1       0.463  -3.687   1.892  0.00  0.00    +0.020 A 
ATOM      4  C   UNL     1       1.683  -4.030   1.339  0.00  0.00    +0.019 A 
ATOM      5  C   UNL     1       2.457  -3.070   0.713  0.00  0.00    +0.034 A 
ATOM      6  C   UNL     1       2.009  -1.764   0.634  0.00  0.00    +0.061 A 
ATOM      7 BR   UNL     1       3.062  -0.452  -0.229  0.00  0.00    -0.046 Br
ATOM      8 BR   UNL     1       2.295  -5.817   1.438  0.00  0.00    -0.050 Br
ENDROOT
BRANCH   1   9
ATOM      9  O   UNL     1       0.346  -0.133   1.121  0.00  0.00    -0.491 OA
BRANCH   9  11
ATOM     10  C   UNL     1       0.253   2.165   1.865  0.00  0.00    +0.048 C 
ATOM     11  C   UNL     1       0.737   0.747   2.178  0.00  0.00    +0.226 C 
ENDBRANCH   9  11
ENDBRANCH   1   9
BRANCH   2  12
ATOM     12  C   UNL     1      -1.316  -2.009   2.424  0.00  0.00    -0.042 C 
BRANCH  12  13
ATOM     13  N   UNL     1      -2.317  -1.874   1.357  0.00  0.00    +0.389 N 
ATOM     14  H   UNL     1      -1.986  -1.217   0.666  0.00  0.00    -0.084 HD
ATOM     15  H   UNL     1      -2.469  -2.772   0.923  0.00  0.00    -0.084 HD
BRANCH  13  16
ATOM     16  C   UNL     1      -3.580  -1.387   1.929  0.00  0.00    +0.013 C 
ATOM     17  C   UNL     1      -4.146  -2.439   2.885  0.00  0.00    -0.004 C 
BRANCH  16  18
ATOM     18  C   UNL     1      -4.568  -1.132   0.821  0.00  0.00    +0.199 C 
ATOM     19  O   UNL     1      -4.252  -1.335  -0.332  0.00  0.00    -0.278 OA
ATOM     20  N   UNL     1      -5.803  -0.678   1.111  0.00  0.00    -0.320 N 
ATOM     21  C   UNL     1      -6.764  -0.429   0.033  0.00  0.00    +0.128 C 
ATOM     22  H   UNL     1      -6.056  -0.515   2.033  0.00  0.00    +0.148 HD
ENDBRANCH  16  18
ENDBRANCH  13  16
ENDBRANCH  12  13
ENDBRANCH   2  12
TORSDOF 6
