REMARK  Name = ZINC63526362
REMARK  6 active torsions:
REMARK  status: ('A' for Active; 'I' for Inactive)
REMARK    1  A    between atoms: C_1  and  C_2
REMARK    2  A    between atoms: N_6  and  C_7
REMARK    3  A    between atoms: C_7  and  C_9
REMARK    4  A    between atoms: C_7  and  C_10
REMARK    5  A    between atoms: N_12  and  C_13
REMARK    6  A    between atoms: C_13  and  C_14
REMARK                            x       y       z     vdW  Elec       q    Type
REMARK                         _______ _______ _______ _____ _____    ______ ____
ROOT
ATOM      1  C   UNL     1       1.274  -0.874   3.166  0.00  0.00    +0.237 C 
ATOM      2  O   UNL     1       2.076  -1.540   2.546  0.00  0.00    -0.273 OA
ATOM      3  N   UNL     1       1.496  -0.590   4.465  0.00  0.00    -0.310 N 
ATOM      4  H   UNL     1       0.855  -0.057   4.961  0.00  0.00    +0.149 HD
ENDROOT
BRANCH   1   5
ATOM      5  C   UNL     1       0.030  -0.365   2.485  0.00  0.00    +0.190 C 
ATOM      6  C   UNL     1      -1.205  -0.916   3.200  0.00  0.00    +0.042 C 
BRANCH   5  12
ATOM      7  C   UNL     1      -0.018   1.503   0.010  0.00  0.00    +0.066 C 
ATOM      8  C   UNL     1       0.002  -0.004   0.002  0.00  0.00    +0.053 A 
ATOM      9  C   UNL     1       0.008  -0.796  -1.096  0.00  0.00    +0.089 A 
ATOM     10  C   UNL     1       0.028  -2.127  -0.665  0.00  0.00    +0.249 A 
ATOM     11  N   UNL     1       0.034  -2.134   0.643  0.00  0.00    -0.145 NA
ATOM     12  N   UNL     1       0.023  -0.806   1.088  0.00  0.00    -0.254 N 
ATOM     13  N   UNL     1       0.040  -3.322  -1.540  0.00  0.00    +0.078 N 
ATOM     14  O   UNL     1       0.033  -3.192  -2.741  0.00  0.00    -0.125 OA
ATOM     15  O   UNL     1       0.058  -4.428  -1.052  0.00  0.00    -0.125 OA
ATOM     16 BR   UNL     1      -0.008  -0.208  -2.893  0.00  0.00    -0.044 Br
ENDBRANCH   5  12
ENDBRANCH   1   5
BRANCH   3  17
ATOM     17  C   UNL     1       2.706  -1.085   5.127  0.00  0.00    +0.151 C 
BRANCH  17  18
ATOM     18  C   UNL     1       2.713  -0.625   6.586  0.00  0.00    +0.191 C 
ATOM     19  N   UNL     1       1.496  -1.085   7.266  0.00  0.00    -0.362 N 
ATOM     20  C   UNL     1       0.853  -0.030   7.674  0.00  0.00    +0.060 A 
ATOM     21  C   UNL     1      -0.409   0.151   8.404  0.00  0.00    +0.027 A 
ATOM     22  C   UNL     1      -0.837   1.396   8.696  0.00  0.00    +0.002 A 
ATOM     23  C   UNL     1      -0.121   2.549   8.328  0.00  0.00    +0.002 A 
ATOM     24  C   UNL     1       1.047   2.496   7.656  0.00  0.00    +0.027 A 
ATOM     25  C   UNL     1       1.611   1.191   7.285  0.00  0.00    +0.060 A 
ATOM     26  N   UNL     1       2.694   0.842   6.652  0.00  0.00    -0.362 N 
ATOM     27  H   UNL     1       1.222  -2.008   7.389  0.00  0.00    +0.162 HD
ATOM     28  H   UNL     1       3.365   1.442   6.290  0.00  0.00    +0.162 HD
ENDBRANCH  17  18
ENDBRANCH   3  17
TORSDOF 4
