REMARK  Name = ZINC12402271
REMARK  9 active torsions:
REMARK  status: ('A' for Active; 'I' for Inactive)
REMARK    1  A    between atoms: C_1  and  C_2
REMARK    2  A    between atoms: C_2  and  C_36
REMARK    3  A    between atoms: N_16  and  C_19
REMARK    4  A    between atoms: C_19  and  C_20
REMARK    5  A    between atoms: C_27  and  C_34
REMARK    6  A    between atoms: C_28  and  N_33
REMARK    7  A    between atoms: N_29  and  N_30
REMARK    8  A    between atoms: N_30  and  C_31
REMARK    9  A    between atoms: N_30  and  C_32
REMARK                            x       y       z     vdW  Elec       q    Type
REMARK                         _______ _______ _______ _____ _____    ______ ____
ROOT
ATOM      1  C   UNL     1       0.990   0.930   2.820  0.00  0.00    +0.011 C 
ATOM      2  C   UNL     1       0.944   0.042   1.575  0.00  0.00    -0.023 C 
ATOM      3  C   UNL     1       2.200   0.273   0.732  0.00  0.00    +0.059 C 
ATOM      4  C   UNL     1       2.249   1.712   0.281  0.00  0.00    +0.038 C 
ATOM      5  C   UNL     1       1.114   2.409   0.056  0.00  0.00    +0.038 C 
ATOM      6  C   UNL     1      -0.147   1.823   0.252  0.00  0.00    +0.163 C 
ATOM      7  O   UNL     1      -1.149   2.473   0.026  0.00  0.00    -0.292 OA
ATOM      8  C   UNL     1      -0.282   0.403   0.729  0.00  0.00    +0.086 C 
ATOM      9  C   UNL     1       1.171   3.838  -0.416  0.00  0.00    +0.141 C 
ATOM     10  C   UNL     1       0.816   3.923  -1.869  0.00  0.00    -0.001 A 
ATOM     11  C   UNL     1       1.420   3.389  -2.987  0.00  0.00    +0.007 A 
ATOM     12  C   UNL     1       0.826   3.661  -4.215  0.00  0.00    +0.000 A 
ATOM     13  C   UNL     1      -0.316   4.431  -4.306  0.00  0.00    +0.002 A 
ATOM     14  C   UNL     1      -0.928   4.972  -3.186  0.00  0.00    +0.024 A 
ATOM     15  C   UNL     1      -0.341   4.706  -1.947  0.00  0.00    +0.041 A 
ATOM     16  N   UNL     1      -0.734   5.110  -0.683  0.00  0.00    -0.265 N 
ATOM     17  C   UNL     1       0.093   4.648   0.276  0.00  0.00    +0.240 C 
ATOM     18  O   UNL     1      -0.006   4.843   1.469  0.00  0.00    -0.274 OA
ATOM     19  C   UNL     1       2.516   4.449  -0.159  0.00  0.00    +0.090 C 
ATOM     20  C   UNL     1       3.601   3.667   0.087  0.00  0.00    +0.117 C 
ATOM     21  N   UNL     1       3.473   2.299   0.107  0.00  0.00    -0.223 N 
ATOM     22  C   UNL     1       0.865  -1.427   1.994  0.00  0.00    +0.011 C 
ENDROOT
BRANCH  21  23
ATOM     23  N   UNL     1       4.581   1.515  -0.049  0.00  0.00    -0.227 NA
ATOM     24  C   UNL     1       5.314   1.877  -1.270  0.00  0.00    +0.128 C 
ATOM     25  C   UNL     1       5.452   1.594   1.131  0.00  0.00    +0.128 C 
ENDBRANCH  21  23
BRANCH  20  26
ATOM     26  N   UNL     1       4.826   4.245   0.315  0.00  0.00    -0.344 N 
ATOM     27  H   UNL     1       5.632   3.708   0.269  0.00  0.00    +0.144 HD
ATOM     28  H   UNL     1       4.885   5.191   0.523  0.00  0.00    +0.144 HD
ENDBRANCH  20  26
BRANCH  19  29
ATOM     29  C   UNL     1       2.660   5.874  -0.171  0.00  0.00    +0.100 C 
ATOM     30  N   UNL     1       2.774   7.004  -0.180  0.00  0.00    -0.191 NA
ENDBRANCH  19  29
BRANCH  16  31
ATOM     31  C   UNL     1      -1.910   5.942  -0.419  0.00  0.00    +0.151 C 
BRANCH  31  32
ATOM     32  C   UNL     1      -3.112   5.059  -0.202  0.00  0.00    +0.005 A 
ATOM     33  C   UNL     1      -3.610   4.870   1.073  0.00  0.00    +0.008 A 
ATOM     34  C   UNL     1      -4.712   4.060   1.272  0.00  0.00    +0.000 A 
ATOM     35  C   UNL     1      -5.319   3.439   0.196  0.00  0.00    +0.003 A 
ATOM     36  C   UNL     1      -4.822   3.627  -1.080  0.00  0.00    +0.038 A 
ATOM     37  C   UNL     1      -3.721   4.442  -1.281  0.00  0.00    +0.128 A 
ATOM     38  F   UNL     1      -3.239   4.631  -2.529  0.00  0.00    -0.205 F 
ENDBRANCH  31  32
ENDBRANCH  16  31
TORSDOF 5
