REMARK  Name = ZINC39486226
REMARK  6 active torsions:
REMARK  status: ('A' for Active; 'I' for Inactive)
REMARK    1  A    between atoms: C_1  and  O_2
REMARK    2  A    between atoms: O_2  and  C_3
REMARK    3  A    between atoms: C_5  and  C_27
REMARK    4  A    between atoms: C_7  and  C_20
REMARK    5  A    between atoms: C_27  and  C_29
REMARK    6  A    between atoms: C_34  and  O_35
REMARK                            x       y       z     vdW  Elec       q    Type
REMARK                         _______ _______ _______ _____ _____    ______ ____
ROOT
ATOM      1  C   UNL     1       0.652  -0.570  -1.138  0.00  0.00    +0.200 C 
ATOM      2  C   UNL     1       1.261  -1.929  -0.769  0.00  0.00    +0.108 C 
ATOM      3  C   UNL     1       0.174  -2.832  -0.194  0.00  0.00    +0.063 C 
ATOM      4  C   UNL     1      -0.993  -2.950  -1.137  0.00  0.00    -0.025 A 
ATOM      5  C   UNL     1      -1.829  -4.044  -1.035  0.00  0.00    +0.054 A 
ATOM      6  C   UNL     1      -2.917  -4.181  -1.887  0.00  0.00    +0.167 A 
ATOM      7  C   UNL     1      -3.175  -3.210  -2.857  0.00  0.00    +0.167 A 
ATOM      8  C   UNL     1      -2.345  -2.113  -2.969  0.00  0.00    +0.061 A 
ATOM      9  C   UNL     1      -1.248  -1.979  -2.110  0.00  0.00    +0.028 A 
ATOM     10  C   UNL     1      -0.359  -0.810  -2.240  0.00  0.00    +0.193 C 
ATOM     11  O   UNL     1      -0.432  -0.067  -3.196  0.00  0.00    -0.289 OA
ATOM     12  O   UNL     1      -4.288  -3.577  -3.556  0.00  0.00    -0.453 OA
ATOM     13  C   UNL     1      -4.470  -4.978  -3.278  0.00  0.00    +0.466 C 
ATOM     14  O   UNL     1      -3.869  -5.152  -1.981  0.00  0.00    -0.453 OA
ENDROOT
BRANCH   3  15
ATOM     15  C   UNL     1       0.749  -4.203   0.051  0.00  0.00    -0.038 A 
ATOM     16  C   UNL     1       1.278  -4.929  -1.000  0.00  0.00    +0.004 A 
ATOM     17  C   UNL     1       1.806  -6.187  -0.775  0.00  0.00    +0.001 A 
ATOM     18  C   UNL     1       1.805  -6.720   0.500  0.00  0.00    +0.015 A 
ATOM     19  C   UNL     1       1.276  -5.994   1.552  0.00  0.00    +0.018 A 
ATOM     20  C   UNL     1       0.753  -4.733   1.328  0.00  0.00    +0.019 A 
ATOM     21 BR   UNL     1       1.274  -6.722   3.297  0.00  0.00    -0.050 Br
ENDBRANCH   3  15
BRANCH   1  23
ATOM     22  C   UNL     1      -0.017   1.425   0.010  0.00  0.00    +0.195 C 
ATOM     23  O   UNL     1       0.002  -0.004   0.002  0.00  0.00    -0.371 OA
ENDBRANCH   1  23
BRANCH   2  24
ATOM     24  C   UNL     1       2.347  -1.732   0.258  0.00  0.00    +0.173 C 
ATOM     25  O   UNL     1       2.094  -1.851   1.438  0.00  0.00    -0.292 OA
BRANCH  24  26
ATOM     26  C   UNL     1       3.710  -1.395  -0.171  0.00  0.00    +0.059 A 
ATOM     27  C   UNL     1       4.005  -1.250  -1.532  0.00  0.00    +0.015 A 
ATOM     28  C   UNL     1       5.286  -0.934  -1.926  0.00  0.00    +0.001 A 
ATOM     29  C   UNL     1       6.286  -0.758  -0.981  0.00  0.00    +0.004 A 
ATOM     30  C   UNL     1       6.010  -0.897   0.364  0.00  0.00    +0.046 A 
ATOM     31  C   UNL     1       4.725  -1.210   0.782  0.00  0.00    +0.127 A 
BRANCH  31  32
ATOM     32  O   UNL     1       4.451  -1.341   2.104  0.00  0.00    -0.506 OA
ATOM     33  H   UNL     1       4.570  -2.239   2.443  0.00  0.00    +0.292 HD
ENDBRANCH  31  32
ENDBRANCH  24  26
ENDBRANCH   2  24
TORSDOF 5
