REMARK  Name = ZINC66738752
REMARK  0 active torsions:
REMARK  status: ('A' for Active; 'I' for Inactive)
REMARK                            x       y       z     vdW  Elec       q    Type
REMARK                         _______ _______ _______ _____ _____    ______ ____
ROOT
ATOM      1  C   UNL     1      -0.017   1.379   0.010  0.00  0.00    +0.002 A 
ATOM      2  C   UNL     1       1.147   2.128   0.003  0.00  0.00    +0.002 A 
ATOM      3  C   UNL     1       2.401   1.538  -0.013  0.00  0.00    +0.028 A 
ATOM      4  C   UNL     1       2.448   0.149  -0.021  0.00  0.00    +0.071 A 
ATOM      5  C   UNL     1       1.258  -0.623  -0.014  0.00  0.00    +0.066 A 
ATOM      6  C   UNL     1       0.002  -0.004   0.002  0.00  0.00    +0.028 A 
ATOM      7  N   UNL     1       1.615  -1.922  -0.024  0.00  0.00    -0.324 N 
ATOM      8  C   UNL     1       2.924  -2.016  -0.029  0.00  0.00    +0.214 A 
ATOM      9  N   UNL     1       3.478  -0.743  -0.040  0.00  0.00    -0.276 N 
ATOM     10  C   UNL     1       4.925  -0.546  -0.075  0.00  0.00    +0.221 C 
ATOM     11  C   UNL     1       5.403  -0.197  -1.446  0.00  0.00    +0.030 A 
ATOM     12  C   UNL     1       5.331  -0.878  -2.643  0.00  0.00    +0.013 A 
ATOM     13  C   UNL     1       5.885  -0.259  -3.758  0.00  0.00    +0.042 A 
ATOM     14  C   UNL     1       6.481   0.985  -3.668  0.00  0.00    +0.160 A 
ATOM     15  C   UNL     1       6.557   1.677  -2.466  0.00  0.00    +0.180 A 
ATOM     16  C   UNL     1       6.003   1.064  -1.340  0.00  0.00    +0.080 A 
ATOM     17  N   UNL     1       5.939   1.520  -0.033  0.00  0.00    -0.279 N 
ATOM     18  C   UNL     1       5.321   0.637   0.780  0.00  0.00    +0.267 C 
ATOM     19  O   UNL     1       5.120   0.767   1.969  0.00  0.00    -0.271 OA
ATOM     20  F   UNL     1       7.143   2.892  -2.389  0.00  0.00    -0.201 F 
ATOM     21  F   UNL     1       7.005   1.543  -4.782  0.00  0.00    -0.202 F 
ATOM     22  N   UNL     1       5.564  -1.769   0.423  0.00  0.00    -0.283 N 
ATOM     23  C   UNL     1       5.003  -2.990   0.153  0.00  0.00    +0.183 C 
ATOM     24  N   UNL     1       3.702  -3.122  -0.038  0.00  0.00    -0.184 NA
ATOM     25  N   UNL     1       5.806  -4.095   0.080  0.00  0.00    -0.331 N 
ATOM     26  H   UNL     1       6.296   2.371   0.263  0.00  0.00    +0.155 HD
ATOM     27  H   UNL     1       6.382  -1.714   0.942  0.00  0.00    +0.152 HD
ATOM     28  H   UNL     1       6.762  -4.010   0.219  0.00  0.00    +0.145 HD
ATOM     29  H   UNL     1       5.419  -4.964  -0.110  0.00  0.00    +0.145 HD
ATOM     30  H   UNL     1       1.000  -2.672  -0.028  0.00  0.00    +0.169 HD
ENDROOT
TORSDOF 0
