REMARK  Name = ZINC08857555
REMARK  6 active torsions:
REMARK  status: ('A' for Active; 'I' for Inactive)
REMARK    1  A    between atoms: C_9  and  O_31
REMARK    2  A    between atoms: C_10  and  C_11
REMARK    3  A    between atoms: C_13  and  N_22
REMARK    4  A    between atoms: C_20  and  O_21
REMARK    5  A    between atoms: N_22  and  S_23
REMARK    6  A    between atoms: S_23  and  C_26
REMARK                            x       y       z     vdW  Elec       q    Type
REMARK                         _______ _______ _______ _____ _____    ______ ____
ROOT
ATOM      1  C   UNL     1      -2.336   4.968   0.459  0.00  0.00    +0.030 A 
ATOM      2  C   UNL     1      -1.185   5.754   0.282  0.00  0.00    +0.037 A 
ATOM      3  C   UNL     1       0.048   5.178   0.196  0.00  0.00    +0.057 A 
ATOM      4  C   UNL     1       0.179   3.774   0.285  0.00  0.00    +0.008 A 
ATOM      5  C   UNL     1       1.437   3.158   0.199  0.00  0.00    +0.010 A 
ATOM      6  C   UNL     1       1.533   1.802   0.288  0.00  0.00    +0.001 A 
ATOM      7  C   UNL     1       0.398   1.013   0.463  0.00  0.00    +0.001 A 
ATOM      8  C   UNL     1      -0.839   1.576   0.545  0.00  0.00    +0.012 A 
ATOM      9  C   UNL     1      -0.976   2.972   0.463  0.00  0.00    +0.026 A 
ATOM     10  C   UNL     1      -2.239   3.586   0.549  0.00  0.00    +0.132 A 
ENDROOT
BRANCH   1  20
ATOM     11  C   UNL     1      -5.229   6.827   4.239  0.00  0.00    +0.001 A 
ATOM     12  C   UNL     1      -3.979   6.216   4.178  0.00  0.00    +0.001 A 
ATOM     13  C   UNL     1      -3.453   5.816   2.986  0.00  0.00    +0.009 A 
ATOM     14  C   UNL     1      -4.180   6.016   1.804  0.00  0.00    -0.007 A 
ATOM     15  C   UNL     1      -5.450   6.642   1.864  0.00  0.00    -0.017 A 
ATOM     16  C   UNL     1      -5.961   7.041   3.111  0.00  0.00    +0.008 A 
ATOM     17  C   UNL     1      -6.179   6.848   0.680  0.00  0.00    +0.012 A 
ATOM     18  C   UNL     1      -5.665   6.454  -0.517  0.00  0.00    +0.046 A 
ATOM     19  C   UNL     1      -4.415   5.841  -0.598  0.00  0.00    +0.125 A 
ATOM     20  C   UNL     1      -3.662   5.619   0.549  0.00  0.00    +0.035 A 
BRANCH  19  21
ATOM     21  O   UNL     1      -3.929   5.459  -1.807  0.00  0.00    -0.506 OA
ATOM     22  H   UNL     1      -4.169   4.557  -2.061  0.00  0.00    +0.292 HD
ENDBRANCH  19  21
ENDBRANCH   1  20
BRANCH  10  23
ATOM     23  O   UNL     1      -3.357   2.831   0.719  0.00  0.00    -0.506 OA
ATOM     24  H   UNL     1      -3.771   2.549  -0.108  0.00  0.00    +0.292 HD
ENDBRANCH  10  23
BRANCH   3  25
ATOM     25  N   UNL     1       1.181   5.976   0.020  0.00  0.00    -0.215 N 
ATOM     26  H   UNL     1       1.918   5.658  -0.525  0.00  0.00    +0.174 HD
BRANCH  25  27
ATOM     27  S   UNL     1       1.267   7.463   0.743  0.00  0.00    +0.079 S 
ATOM     28  O   UNL     1       2.573   7.963   0.489  0.00  0.00    -0.149 OA
ATOM     29  O   UNL     1       0.094   8.168   0.361  0.00  0.00    -0.149 OA
BRANCH  27  30
ATOM     30  C   UNL     1       1.156   7.205   2.482  0.00  0.00    +0.146 A 
ATOM     31  C   UNL     1       2.150   6.992   3.379  0.00  0.00    +0.036 A 
ATOM     32  C   UNL     1       1.824   6.813   4.710  0.00  0.00    +0.010 A 
ATOM     33  C   UNL     1       0.520   6.855   5.080  0.00  0.00    +0.047 A 
ATOM     34  S   UNL     1      -0.295   7.162   3.522  0.00  0.00    -0.077 S 
ENDBRANCH  27  30
ENDBRANCH  25  27
ENDBRANCH   3  25
TORSDOF 6
