REMARK  Name = ZINC38774630
REMARK  9 active torsions:
REMARK  status: ('A' for Active; 'I' for Inactive)
REMARK    1  A    between atoms: C_1  and  C_2
REMARK    2  A    between atoms: C_2  and  C_3
REMARK    3  A    between atoms: N_15  and  C_18
REMARK    4  A    between atoms: C_18  and  C_19
REMARK    5  A    between atoms: C_19  and  N_20
REMARK    6  A    between atoms: C_21  and  C_23
REMARK    7  A    between atoms: C_23  and  C_24
REMARK    8  A    between atoms: C_24  and  S_25
REMARK    9  A    between atoms: S_25  and  C_28
REMARK                            x       y       z     vdW  Elec       q    Type
REMARK                         _______ _______ _______ _____ _____    ______ ____
ROOT
ATOM      1  C   UNL     1       0.707  -0.490  -1.238  0.00  0.00    -0.021 A 
ATOM      2  C   UNL     1      -0.024  -0.812  -2.352  0.00  0.00    +0.006 A 
ATOM      3  C   UNL     1       0.585  -1.263  -3.513  0.00  0.00    +0.001 A 
ATOM      4  C   UNL     1       1.962  -1.390  -3.550  0.00  0.00    +0.017 A 
ATOM      5  C   UNL     1       2.702  -1.070  -2.440  0.00  0.00    +0.041 A 
ATOM      6  C   UNL     1       2.116  -0.603  -1.242  0.00  0.00    +0.083 A 
ATOM      7  N   UNL     1       2.978  -0.324  -0.239  0.00  0.00    -0.224 NA
ATOM      8  C   UNL     1       4.278  -0.470  -0.365  0.00  0.00    +0.162 A 
ATOM      9  S   UNL     1       4.433  -1.077  -2.039  0.00  0.00    -0.052 S 
ATOM     10  N   UNL     1       5.270  -0.227   0.563  0.00  0.00    -0.313 N 
ATOM     11  C   UNL     1       4.941   0.261   1.911  0.00  0.00    +0.088 C 
ATOM     12  C   UNL     1       5.653  -0.629   2.936  0.00  0.00    -0.059 C 
ATOM     13  N   UNL     1       7.090  -0.664   2.638  0.00  0.00    +0.383 N 
ATOM     14  C   UNL     1       7.315  -1.304   1.336  0.00  0.00    -0.059 C 
ATOM     15  C   UNL     1       6.686  -0.453   0.234  0.00  0.00    +0.088 C 
ATOM     16  H   UNL     1       7.451   0.278   2.615  0.00  0.00    -0.082 HD
ENDROOT
BRANCH   1  18
ATOM     17  C   UNL     1      -0.019   1.526   0.010  0.00  0.00    +0.009 C 
ATOM     18  C   UNL     1       0.002  -0.004   0.002  0.00  0.00    +0.034 C 
ENDBRANCH   1  18
BRANCH  13  19
ATOM     19  C   UNL     1       7.787  -1.426   3.683  0.00  0.00    -0.060 C 
BRANCH  19  20
ATOM     20  C   UNL     1       9.296  -1.359   3.443  0.00  0.00    +0.085 C 
BRANCH  20  21
ATOM     21  N   UNL     1       9.991  -2.119   4.485  0.00  0.00    -0.317 N 
ATOM     22  C   UNL     1      11.336  -2.200   4.476  0.00  0.00    +0.215 C 
ATOM     23  O   UNL     1      11.972  -1.644   3.605  0.00  0.00    -0.276 OA
ATOM     24  H   UNL     1       9.483  -2.564   5.181  0.00  0.00    +0.149 HD
BRANCH  22  25
ATOM     25  C   UNL     1      12.051  -2.982   5.548  0.00  0.00    +0.119 C 
BRANCH  25  26
ATOM     26  C   UNL     1      13.560  -2.915   5.308  0.00  0.00    +0.181 C 
BRANCH  26  27
ATOM     27  S   UNL     1      14.421  -3.856   6.598  0.00  0.00    -0.003 S 
ATOM     28  O   UNL     1      14.274  -3.210   7.855  0.00  0.00    -0.169 OA
ATOM     29  O   UNL     1      14.143  -5.243   6.460  0.00  0.00    -0.169 OA
BRANCH  27  30
ATOM     30  C   UNL     1      16.132  -3.700   6.208  0.00  0.00    +0.088 A 
ATOM     31  C   UNL     1      16.737  -4.621   5.374  0.00  0.00    +0.030 A 
ATOM     32  C   UNL     1      18.079  -4.499   5.067  0.00  0.00    +0.040 A 
ATOM     33  C   UNL     1      18.817  -3.454   5.595  0.00  0.00    +0.124 A 
ATOM     34  C   UNL     1      18.210  -2.531   6.430  0.00  0.00    +0.040 A 
ATOM     35  C   UNL     1      16.866  -2.652   6.732  0.00  0.00    +0.030 A 
ATOM     36  F   UNL     1      20.129  -3.333   5.296  0.00  0.00    -0.205 F 
ENDBRANCH  27  30
ENDBRANCH  26  27
ENDBRANCH  25  26
ENDBRANCH  22  25
ENDBRANCH  20  21
ENDBRANCH  19  20
ENDBRANCH  13  19
TORSDOF 8
