REMARK  Name = ZINC33299127
REMARK  11 active torsions:
REMARK  status: ('A' for Active; 'I' for Inactive)
REMARK    1  A    between atoms: C_1  and  C_2
REMARK    2  A    between atoms: C_2  and  N_3
REMARK    3  A    between atoms: C_9  and  N_10
REMARK    4  A    between atoms: C_13  and  C_16
REMARK    5  A    between atoms: N_18  and  C_19
REMARK    6  A    between atoms: C_19  and  C_20
REMARK    7  A    between atoms: C_20  and  C_21
REMARK    8  A    between atoms: C_21  and  N_22
REMARK    9  A    between atoms: N_22  and  C_23
REMARK   10  A    between atoms: N_22  and  C_24
REMARK   11  A    between atoms: C_30  and  C_32
REMARK                            x       y       z     vdW  Elec       q    Type
REMARK                         _______ _______ _______ _____ _____    ______ ____
ROOT
ATOM      1  N   UNL     1      -4.355   8.454  -4.841  0.00  0.00    -0.313 N 
ATOM      2  C   UNL     1      -4.963   8.885  -3.576  0.00  0.00    +0.107 C 
ATOM      3  C   UNL     1      -4.088   8.426  -2.407  0.00  0.00    +0.031 C 
ATOM      4  C   UNL     1      -3.959   6.901  -2.439  0.00  0.00    +0.078 C 
ATOM      5  C   UNL     1      -3.369   6.474  -3.787  0.00  0.00    +0.031 C 
ATOM      6  C   UNL     1      -4.264   6.990  -4.916  0.00  0.00    +0.107 C 
ENDROOT
BRANCH   1  13
ATOM      7  N   UNL     1      -3.043   9.414  -7.440  0.00  0.00    -0.260 N 
ATOM      8  C   UNL     1      -4.361   9.383  -7.070  0.00  0.00    +0.109 A 
ATOM      9  C   UNL     1      -5.096   9.892  -8.158  0.00  0.00    +0.027 A 
ATOM     10  C   UNL     1      -6.494   9.967  -8.041  0.00  0.00    +0.031 A 
ATOM     11  C   UNL     1      -7.084   9.542  -6.889  0.00  0.00    +0.113 A 
ATOM     12  N   UNL     1      -6.371   9.062  -5.880  0.00  0.00    -0.238 NA
ATOM     13  C   UNL     1      -5.054   8.966  -5.928  0.00  0.00    +0.147 A 
ATOM     14  C   UNL     1      -4.164  10.226  -9.165  0.00  0.00    +0.068 A 
ATOM     15  N   UNL     1      -2.967   9.943  -8.735  0.00  0.00    -0.175 NA
ATOM     16  C   UNL     1      -4.499  10.813 -10.512  0.00  0.00    +0.068 C 
BRANCH   7  18
ATOM     17  C   UNL     1      -1.423  10.140  -5.759  0.00  0.00    +0.029 C 
ATOM     18  C   UNL     1      -1.909   8.975  -6.622  0.00  0.00    +0.141 C 
ENDBRANCH   7  18
ENDBRANCH   1  13
BRANCH   4  19
ATOM     19  C   UNL     1      -3.049   6.449  -1.326  0.00  0.00    +0.216 C 
ATOM     20  O   UNL     1      -2.555   7.265  -0.577  0.00  0.00    -0.276 OA
ATOM     21  N   UNL     1      -2.786   5.137  -1.162  0.00  0.00    -0.315 N 
ATOM     22  H   UNL     1      -3.235   4.397  -1.841  0.00  0.00    +0.149 HD
BRANCH  21  23
ATOM     23  C   UNL     1      -1.902   4.697  -0.080  0.00  0.00    +0.102 C 
BRANCH  23  24
ATOM     24  C   UNL     1      -1.771   3.173  -0.116  0.00  0.00    +0.000 C 
BRANCH  24  25
ATOM     25  C   UNL     1      -0.848   2.714   1.015  0.00  0.00    -0.077 C 
BRANCH  25  26
ATOM     26  N   UNL     1      -0.722   1.251   0.981  0.00  0.00    +0.380 N 
ATOM     27  C   UNL     1      -0.029   0.810  -0.237  0.00  0.00    -0.096 C 
ATOM     28  H   UNL     1      -1.736   0.824   0.965  0.00  0.00    -0.082 HD
BRANCH  26  29
ATOM     29  C   UNL     1      -0.042   0.752   2.183  0.00  0.00    -0.069 C 
ATOM     30  C   UNL     1       1.400   1.264   2.202  0.00  0.00    -0.015 C 
ATOM     31  C   UNL     1       2.109   0.745   3.454  0.00  0.00    -0.002 C 
ATOM     32  C   UNL     1       2.111  -0.785   3.442  0.00  0.00    -0.000 C 
ATOM     33  C   UNL     1       0.669  -1.297   3.424  0.00  0.00    -0.002 C 
ATOM     34  C   UNL     1      -0.040  -0.778   2.171  0.00  0.00    -0.015 C 
ENDBRANCH  26  29
ENDBRANCH  25  26
ENDBRANCH  24  25
ENDBRANCH  23  24
ENDBRANCH  21  23
ENDBRANCH   4  19
TORSDOF 8
