REMARK  Name = ZINC16100947
REMARK  5 active torsions:
REMARK  status: ('A' for Active; 'I' for Inactive)
REMARK    1  A    between atoms: C_1  and  C_2
REMARK    2  A    between atoms: C_3  and  N_13
REMARK    3  A    between atoms: C_7  and  N_8
REMARK    4  A    between atoms: N_13  and  S_14
REMARK    5  A    between atoms: S_14  and  C_17
REMARK                            x       y       z     vdW  Elec       q    Type
REMARK                         _______ _______ _______ _____ _____    ______ ____
ROOT
ATOM      1  N   UNL     1      -3.814   4.708  -1.761  0.00  0.00    -0.216 N 
ATOM      2  H   UNL     1      -4.071   5.533  -2.201  0.00  0.00    +0.174 HD
ENDROOT
BRANCH   1   5
ATOM      3  C   UNL     1      -2.882   4.849  -4.445  0.00  0.00    +0.048 C 
ATOM      4  C   UNL     1      -3.284   3.544  -3.807  0.00  0.00    -0.003 A 
ATOM      5  C   UNL     1      -3.733   3.521  -2.493  0.00  0.00    +0.053 A 
ATOM      6  C   UNL     1      -4.098   2.316  -1.906  0.00  0.00    +0.025 A 
ATOM      7  C   UNL     1      -4.023   1.143  -2.632  0.00  0.00    +0.004 A 
ATOM      8  C   UNL     1      -3.577   1.163  -3.939  0.00  0.00    +0.028 A 
ATOM      9  C   UNL     1      -3.206   2.364  -4.530  0.00  0.00    +0.073 A 
BRANCH   9  10
ATOM     10  N   UNL     1      -2.752   2.382  -5.857  0.00  0.00    -0.200 N 
ATOM     11  C   UNL     1      -2.720   1.350  -6.728  0.00  0.00    +0.250 A 
ATOM     12  N   UNL     1      -2.229   1.804  -7.851  0.00  0.00    -0.116 NA
ATOM     13  N   UNL     1      -1.939   3.051  -7.747  0.00  0.00    -0.023 NA
ATOM     14  N   UNL     1      -2.228   3.478  -6.564  0.00  0.00    -0.039 NA
ENDBRANCH   9  10
ENDBRANCH   1   5
BRANCH   1  15
ATOM     15  S   UNL     1      -3.469   4.707  -0.141  0.00  0.00    +0.072 S 
ATOM     16  O   UNL     1      -4.260   3.680   0.442  0.00  0.00    -0.150 OA
ATOM     17  O   UNL     1      -3.537   6.059   0.290  0.00  0.00    -0.150 OA
BRANCH  15  18
ATOM     18  C   UNL     1      -1.788   4.207   0.033  0.00  0.00    +0.109 A 
ATOM     19  C   UNL     1      -0.779   5.152   0.029  0.00  0.00    +0.029 A 
ATOM     20  C   UNL     1       0.534   4.753   0.163  0.00  0.00    +0.006 A 
ATOM     21  C   UNL     1       0.853   3.408   0.303  0.00  0.00    -0.044 A 
ATOM     22  C   UNL     1      -0.152   2.467   0.311  0.00  0.00    -0.042 A 
ATOM     23  C   UNL     1      -1.475   2.871   0.179  0.00  0.00    +0.032 A 
ATOM     24  C   UNL     1       0.118   0.993   0.465  0.00  0.00    +0.035 C 
ATOM     25  C   UNL     1       1.584   0.682   0.171  0.00  0.00    +0.005 C 
ATOM     26  C   UNL     1       2.456   1.630   1.004  0.00  0.00    +0.005 C 
ATOM     27  C   UNL     1       2.307   3.042   0.439  0.00  0.00    +0.035 C 
ENDBRANCH  15  18
ENDBRANCH   1  15
TORSDOF 4
