REMARK  Name = ZINC36639742
REMARK  5 active torsions:
REMARK  status: ('A' for Active; 'I' for Inactive)
REMARK    1  A    between atoms: C_3  and  S_28
REMARK    2  A    between atoms: C_6  and  C_7
REMARK    3  A    between atoms: C_7  and  C_8
REMARK    4  A    between atoms: C_14  and  C_16
REMARK    5  A    between atoms: S_28  and  N_31
REMARK                            x       y       z     vdW  Elec       q    Type
REMARK                         _______ _______ _______ _____ _____    ______ ____
ROOT
ATOM      1  C   UNL     1      -1.738  -1.025  -1.407  0.00  0.00    +0.015 A 
ATOM      2  C   UNL     1      -1.464  -2.067  -2.229  0.00  0.00    +0.124 A 
ATOM      3  N   UNL     1      -1.991  -2.033  -3.439  0.00  0.00    -0.233 NA
ATOM      4  C   UNL     1      -2.748  -1.027  -3.822  0.00  0.00    +0.165 A 
ATOM      5  S   UNL     1      -2.779  -0.032  -2.465  0.00  0.00    -0.057 S 
ATOM      6  N   UNL     1      -3.374  -0.836  -5.048  0.00  0.00    -0.261 N 
ATOM      7  C   UNL     1      -3.238  -1.754  -6.025  0.00  0.00    +0.250 C 
ATOM      8  O   UNL     1      -2.569  -2.748  -5.834  0.00  0.00    -0.270 OA
ATOM      9  H   UNL     1      -3.908  -0.041  -5.201  0.00  0.00    +0.157 HD
ENDROOT
BRANCH   7  10
ATOM     10  C   UNL     1      -3.901  -1.551  -7.325  0.00  0.00    +0.041 C 
ATOM     11  C   UNL     1      -3.744  -2.466  -8.231  0.00  0.00    +0.024 C 
ATOM     12  C   UNL     1      -4.328  -2.437  -9.576  0.00  0.00    +0.019 A 
ATOM     13  C   UNL     1      -3.524  -2.918 -10.717  0.00  0.00    +0.031 A 
ATOM     14  C   UNL     1      -4.033  -2.930 -11.929  0.00  0.00    +0.042 A 
ATOM     15  C   UNL     1      -5.411  -2.461 -12.152  0.00  0.00    +0.023 A 
ATOM     16  C   UNL     1      -6.124  -2.020 -11.139  0.00  0.00    +0.048 A 
ATOM     17  C   UNL     1      -5.548  -1.994  -9.780  0.00  0.00    +0.135 A 
ATOM     18  O   UNL     1      -6.281  -1.467  -8.764  0.00  0.00    -0.463 OA
ATOM     19  C   UNL     1      -5.822  -0.343  -8.164  0.00  0.00    +0.196 C 
ATOM     20  C   UNL     1      -4.696  -0.333  -7.500  0.00  0.00    +0.051 C 
ATOM     21 CL   UNL     1      -3.081  -3.497 -13.265  0.00  0.00    -0.084 Cl
ENDBRANCH   7  10
BRANCH   1  22
ATOM     22  C   UNL     1      -1.293  -0.775   0.011  0.00  0.00    +0.079 C 
BRANCH  22  28
ATOM     23  C   UNL     1      -0.017   1.378   0.010  0.00  0.00    +0.006 A 
ATOM     24  C   UNL     1       1.171   2.086   0.002  0.00  0.00    +0.029 A 
ATOM     25  C   UNL     1       2.377   1.411  -0.013  0.00  0.00    +0.105 A 
ATOM     26  C   UNL     1       2.396   0.029  -0.020  0.00  0.00    +0.029 A 
ATOM     27  C   UNL     1       1.208  -0.679  -0.012  0.00  0.00    +0.006 A 
ATOM     28  C   UNL     1       0.002  -0.004   0.002  0.00  0.00    -0.042 A 
BRANCH  25  29
ATOM     29  S   UNL     1       3.891   2.312  -0.024  0.00  0.00    +0.056 S 
ATOM     30  O   UNL     1       4.872   1.453  -0.588  0.00  0.00    -0.153 OA
ATOM     31  O   UNL     1       3.597   3.593  -0.566  0.00  0.00    -0.153 OA
BRANCH  29  32
ATOM     32  N   UNL     1       4.327   2.556   1.555  0.00  0.00    -0.204 NA
ATOM     33  H   UNL     1       5.265   2.623   1.794  0.00  0.00    +0.144 HD
ATOM     34  H   UNL     1       3.645   2.631   2.241  0.00  0.00    +0.144 HD
ENDBRANCH  29  32
ENDBRANCH  25  29
ENDBRANCH  22  28
ENDBRANCH   1  22
TORSDOF 5
