REMARK  Name = ZINC35691357
REMARK  7 active torsions:
REMARK  status: ('A' for Active; 'I' for Inactive)
REMARK    1  A    between atoms: C_1  and  C_2
REMARK    2  A    between atoms: C_3  and  S_9
REMARK    3  A    between atoms: C_4  and  C_8
REMARK    4  A    between atoms: S_9  and  N_12
REMARK    5  A    between atoms: N_12  and  C_13
REMARK    6  A    between atoms: C_13  and  C_15
REMARK    7  A    between atoms: C_13  and  C_16
REMARK                            x       y       z     vdW  Elec       q    Type
REMARK                         _______ _______ _______ _____ _____    ______ ____
ROOT
ATOM      1  N   UNL     1       1.569  -0.072  -3.243  0.00  0.00    -0.187 NA
ATOM      2  H   UNL     1       1.914   0.806  -3.466  0.00  0.00    +0.148 HD
ENDROOT
BRANCH   1   3
ATOM      3  S   UNL     1      -0.008  -0.247  -2.770  0.00  0.00    +0.062 S 
ATOM      4  O   UNL     1      -0.548  -1.312  -3.541  0.00  0.00    -0.153 OA
ATOM      5  O   UNL     1      -0.578   1.055  -2.765  0.00  0.00    -0.153 OA
BRANCH   3   8
ATOM      6  C   UNL     1      -0.018   1.503   0.010  0.00  0.00    +0.067 C 
ATOM      7  C   UNL     1       0.002  -0.004   0.002  0.00  0.00    +0.060 A 
ATOM      8  C   UNL     1       0.008  -0.796  -1.095  0.00  0.00    +0.148 A 
ATOM      9  C   UNL     1       0.028  -2.127  -0.666  0.00  0.00    +0.086 A 
ATOM     10  N   UNL     1       0.035  -2.134   0.643  0.00  0.00    -0.177 NA
ATOM     11  N   UNL     1       0.024  -0.805   1.088  0.00  0.00    -0.280 N 
ATOM     12  H   UNL     1       0.029  -0.513   2.013  0.00  0.00    +0.189 HD
ATOM     13  C   UNL     1       0.040  -3.343  -1.556  0.00  0.00    +0.069 C 
ENDBRANCH   3   8
ENDBRANCH   1   3
BRANCH   1  14
ATOM     14  C   UNL     1       2.444  -1.245  -3.324  0.00  0.00    +0.075 C 
ATOM     15  C   UNL     1       3.232  -1.384  -2.020  0.00  0.00    +0.026 C 
BRANCH  14  16
ATOM     16  C   UNL     1       3.417  -1.075  -4.493  0.00  0.00    -0.010 C 
ATOM     17  C   UNL     1       4.351   0.106  -4.213  0.00  0.00    +0.001 C 
ATOM     18  C   UNL     1       5.370   0.218  -5.351  0.00  0.00    -0.019 C 
ATOM     19  C   UNL     1       6.129  -1.104  -5.481  0.00  0.00    -0.083 C 
ATOM     20  N   UNL     1       5.184  -2.188  -5.774  0.00  0.00    +0.379 N 
ATOM     21  C   UNL     1       4.248  -2.350  -4.655  0.00  0.00    -0.078 C 
ATOM     22  H   UNL     1       4.669  -1.967  -6.612  0.00  0.00    -0.086 HD
ATOM     23  H   UNL     1       5.693  -3.049  -5.911  0.00  0.00    -0.086 HD
ENDBRANCH  14  16
ENDBRANCH   1  14
TORSDOF 4
