REMARK  Name = ZINC04784112
REMARK  8 active torsions:
REMARK  status: ('A' for Active; 'I' for Inactive)
REMARK    1  A    between atoms: C_1  and  C_2
REMARK    2  A    between atoms: C_2  and  O_3
REMARK    3  A    between atoms: O_3  and  C_4
REMARK    4  A    between atoms: C_4  and  C_6
REMARK    5  A    between atoms: C_6  and  C_25
REMARK    6  A    between atoms: C_11  and  C_12
REMARK    7  A    between atoms: C_11  and  N_60
REMARK    8  A    between atoms: C_22  and  C_24
REMARK                            x       y       z     vdW  Elec       q    Type
REMARK                         _______ _______ _______ _____ _____    ______ ____
ROOT
ATOM      1  C   UNL     1      -0.817   1.643   3.667  0.00  0.00    +0.089 C 
ATOM      2  C   UNL     1      -0.830   3.173   3.726  0.00  0.00    +0.004 C 
ATOM      3  C   UNL     1       0.610   3.690   3.730  0.00  0.00    -0.077 C 
ATOM      4  C   UNL     1       1.392   1.678   4.830  0.00  0.00    -0.077 C 
ATOM      5  C   UNL     1      -0.025   1.100   4.859  0.00  0.00    +0.004 C 
ATOM      6  N   UNL     1       1.311   3.151   4.915  0.00  0.00    +0.385 N 
ATOM      7  H   UNL     1       0.785   3.408   5.758  0.00  0.00    -0.081 HD
ENDROOT
BRANCH   1   8
ATOM      8  C   UNL     1      -2.231   1.123   3.723  0.00  0.00    -0.031 A 
ATOM      9  C   UNL     1      -2.618   0.282   4.749  0.00  0.00    +0.005 A 
ATOM     10  C   UNL     1      -3.916  -0.191   4.803  0.00  0.00    +0.000 A 
ATOM     11  C   UNL     1      -4.824   0.170   3.825  0.00  0.00    +0.000 A 
ATOM     12  C   UNL     1      -4.435   1.007   2.796  0.00  0.00    +0.000 A 
ATOM     13  C   UNL     1      -3.139   1.484   2.745  0.00  0.00    +0.005 A 
ENDBRANCH   1   8
BRANCH   1  14
ATOM     14  C   UNL     1      -0.166   1.194   2.384  0.00  0.00    +0.318 C 
ATOM     15  O   UNL     1       0.829   0.510   2.418  0.00  0.00    -0.250 OA
BRANCH  14  16
ATOM     16  O   UNL     1      -0.692   1.554   1.203  0.00  0.00    -0.464 OA
BRANCH  16  18
ATOM     17  C   UNL     1      -0.753   1.593  -1.232  0.00  0.00    +0.048 C 
ATOM     18  C   UNL     1      -0.013   1.086   0.008  0.00  0.00    +0.229 C 
ENDBRANCH  16  18
ENDBRANCH  14  16
ENDBRANCH   1  14
BRANCH   6  19
ATOM     19  C   UNL     1       2.669   3.727   5.003  0.00  0.00    +0.019 C 
BRANCH  19  20
ATOM     20  C   UNL     1       2.553   5.198   5.307  0.00  0.00    +0.203 C 
ATOM     21  O   UNL     1       1.460   5.710   5.419  0.00  0.00    -0.277 OA
ATOM     22  N   UNL     1       3.666   5.945   5.455  0.00  0.00    -0.270 N 
ATOM     23  C   UNL     1       4.974   5.464   5.348  0.00  0.00    +0.040 A 
ATOM     24  C   UNL     1       5.422   4.170   5.079  0.00  0.00    +0.024 A 
ATOM     25  C   UNL     1       6.773   3.901   5.014  0.00  0.00    +0.002 A 
ATOM     26  C   UNL     1       7.694   4.912   5.217  0.00  0.00    +0.000 A 
ATOM     27  C   UNL     1       7.258   6.196   5.485  0.00  0.00    +0.005 A 
ATOM     28  C   UNL     1       5.906   6.470   5.550  0.00  0.00    -0.024 A 
ATOM     29  C   UNL     1       5.168   7.762   5.821  0.00  0.00    +0.059 C 
ATOM     30  C   UNL     1       3.680   7.382   5.746  0.00  0.00    +0.083 C 
ATOM     31  C   UNL     1       2.995   7.659   7.085  0.00  0.00    +0.029 C 
ENDBRANCH  19  20
ENDBRANCH   6  19
TORSDOF 6
