REMARK  Name = ZINC21875775
REMARK  13 active torsions:
REMARK  status: ('A' for Active; 'I' for Inactive)
REMARK    1  A    between atoms: C_1  and  C_2
REMARK    2  A    between atoms: C_2  and  C_4
REMARK    3  A    between atoms: C_2  and  C_28
REMARK    4  A    between atoms: C_4  and  N_5
REMARK    5  A    between atoms: C_6  and  C_8
REMARK    6  A    between atoms: C_14  and  C_19
REMARK    7  A    between atoms: C_14  and  C_20
REMARK    8  A    between atoms: N_15  and  C_18
REMARK    9  A    between atoms: N_22  and  C_23
REMARK   10  A    between atoms: C_23  and  C_24
REMARK   11  A    between atoms: C_24  and  C_25
REMARK   12  A    between atoms: C_25  and  C_26
REMARK   13  A    between atoms: C_25  and  C_27
REMARK                            x       y       z     vdW  Elec       q    Type
REMARK                         _______ _______ _______ _____ _____    ______ ____
ROOT
ATOM      1  C   UNL     1      -0.393  -0.058  -4.864  0.00  0.00    +0.148 A 
ATOM      2  C   UNL     1      -0.058  -0.340  -6.208  0.00  0.00    +0.067 A 
ATOM      3  C   UNL     1      -1.055   0.204  -6.943  0.00  0.00    +0.124 A 
ATOM      4  N   UNL     1      -1.946   0.786  -6.064  0.00  0.00    -0.256 N 
ATOM      5  N   UNL     1      -1.535   0.611  -4.869  0.00  0.00    -0.166 NA
ATOM      6  C   UNL     1      -3.151   1.468  -6.551  0.00  0.00    +0.179 C 
ATOM      7  C   UNL     1      -2.871   2.062  -7.930  0.00  0.00    +0.130 C 
ATOM      8  N   UNL     1      -2.229   1.114  -8.832  0.00  0.00    -0.284 N 
ATOM      9  C   UNL     1      -1.282   0.246  -8.397  0.00  0.00    +0.265 C 
ATOM     10  O   UNL     1      -0.655  -0.458  -9.166  0.00  0.00    -0.268 OA
ATOM     11  C   UNL     1      -2.617   1.097 -10.245  0.00  0.00    +0.133 C 
ATOM     12  C   UNL     1      -4.194   2.516  -8.551  0.00  0.00    +0.044 C 
ENDROOT
BRANCH   1  14
ATOM     13  N   UNL     1      -0.055  -0.114  -2.441  0.00  0.00    -0.309 N 
ATOM     14  C   UNL     1       0.387  -0.445  -3.670  0.00  0.00    +0.264 C 
ATOM     15  O   UNL     1       1.427  -1.062  -3.797  0.00  0.00    -0.268 OA
ATOM     16  H   UNL     1      -0.885   0.378  -2.339  0.00  0.00    +0.149 HD
BRANCH  13  17
ATOM     17  C   UNL     1       0.718  -0.497  -1.257  0.00  0.00    +0.112 C 
BRANCH  17  19
ATOM     18  C   UNL     1      -0.019   1.526   0.010  0.00  0.00    +0.014 C 
ATOM     19  C   UNL     1       0.002  -0.004   0.002  0.00  0.00    +0.033 C 
BRANCH  19  20
ATOM     20  C   UNL     1       0.731  -0.503   1.223  0.00  0.00    -0.043 A 
ATOM     21  C   UNL     1       2.050  -0.148   1.434  0.00  0.00    +0.004 A 
ATOM     22  C   UNL     1       2.719  -0.606   2.554  0.00  0.00    +0.000 A 
ATOM     23  C   UNL     1       2.068  -1.419   3.463  0.00  0.00    +0.000 A 
ATOM     24  C   UNL     1       0.749  -1.773   3.252  0.00  0.00    +0.000 A 
ATOM     25  C   UNL     1       0.079  -1.312   2.135  0.00  0.00    +0.004 A 
ENDBRANCH  19  20
ENDBRANCH  17  19
ENDBRANCH  13  17
ENDBRANCH   1  14
BRANCH   7  26
ATOM     26  C   UNL     1      -1.975   3.263  -7.770  0.00  0.00    +0.238 C 
ATOM     27  O   UNL     1      -1.963   3.875  -6.723  0.00  0.00    -0.273 OA
ATOM     28  N   UNL     1      -1.187   3.658  -8.790  0.00  0.00    -0.313 N 
ATOM     29  H   UNL     1      -1.196   3.168  -9.627  0.00  0.00    +0.149 HD
BRANCH  28  30
ATOM     30  C   UNL     1      -0.316   4.825  -8.634  0.00  0.00    +0.104 C 
BRANCH  30  31
ATOM     31  C   UNL     1       0.466   5.055  -9.929  0.00  0.00    +0.022 C 
BRANCH  31  32
ATOM     32  C   UNL     1       1.375   6.274  -9.766  0.00  0.00    -0.016 C 
ATOM     33  C   UNL     1       2.434   5.982  -8.700  0.00  0.00    +0.007 C 
ATOM     34  C   UNL     1       2.063   6.579 -11.098  0.00  0.00    +0.007 C 
ENDBRANCH  31  32
ENDBRANCH  30  31
ENDBRANCH  28  30
ENDBRANCH   7  26
TORSDOF 8
