REMARK  Name = ZINC01972082
REMARK  6 active torsions:
REMARK  status: ('A' for Active; 'I' for Inactive)
REMARK    1  A    between atoms: C_4  and  C_7
REMARK    2  A    between atoms: N_10  and  C_11
REMARK    3  A    between atoms: C_14  and  O_17
REMARK    4  A    between atoms: O_17  and  C_18
REMARK    5  A    between atoms: C_18  and  C_19
REMARK    6  A    between atoms: C_28  and  O_33
REMARK                            x       y       z     vdW  Elec       q    Type
REMARK                         _______ _______ _______ _____ _____    ______ ____
ROOT
ATOM      1  C   UNL     1      -1.244   3.403   0.052  0.00  0.00    +0.138 A 
ATOM      2  C   UNL     1      -0.134   4.181   0.042  0.00  0.00    +0.073 A 
ATOM      3  C   UNL     1       1.149   3.569   0.014  0.00  0.00    +0.054 A 
ATOM      4  N   UNL     1       2.257   4.292   0.004  0.00  0.00    -0.354 N 
ATOM      5  C   UNL     1       1.195   2.090  -0.003  0.00  0.00    +0.044 A 
ATOM      6  C   UNL     1       2.405   1.405  -0.031  0.00  0.00    +0.059 A 
ATOM      7  C   UNL     1       2.406   0.021  -0.046  0.00  0.00    +0.118 A 
ATOM      8  C   UNL     1       1.204  -0.677  -0.034  0.00  0.00    +0.049 A 
ATOM      9  C   UNL     1       0.001  -0.003  -0.007  0.00  0.00    +0.050 A 
ATOM     10  C   UNL     1      -0.018   1.384   0.009  0.00  0.00    +0.138 A 
ATOM     11  O   UNL     1      -1.188   2.060   0.042  0.00  0.00    -0.455 OA
ATOM     12  H   UNL     1       3.237   3.798   0.072  0.00  0.00    +0.166 HD
ENDROOT
BRANCH   1  16
ATOM     13  C   UNL     1      -5.050   5.284   0.138  0.00  0.00    +0.000 A 
ATOM     14  C   UNL     1      -4.965   3.903   0.121  0.00  0.00    +0.001 A 
ATOM     15  C   UNL     1      -3.732   3.285   0.093  0.00  0.00    +0.011 A 
ATOM     16  C   UNL     1      -2.568   4.057   0.082  0.00  0.00    +0.017 A 
ATOM     17  C   UNL     1      -2.662   5.451   0.105  0.00  0.00    +0.011 A 
ATOM     18  C   UNL     1      -3.901   6.055   0.127  0.00  0.00    +0.001 A 
ENDBRANCH   1  16
BRANCH   4  19
ATOM     19  C   UNL     1       2.183   5.652  -0.091  0.00  0.00    +0.040 A 
ATOM     20  C   UNL     1       2.093   6.263  -1.345  0.00  0.00    +0.029 A 
ATOM     21  C   UNL     1       2.013   7.637  -1.435  0.00  0.00    +0.047 A 
ATOM     22  C   UNL     1       2.035   8.413  -0.284  0.00  0.00    +0.121 A 
ATOM     23  C   UNL     1       2.131   7.811   0.963  0.00  0.00    +0.047 A 
ATOM     24  C   UNL     1       2.204   6.438   1.065  0.00  0.00    +0.029 A 
BRANCH  22  25
ATOM     25  O   UNL     1       1.962   9.767  -0.379  0.00  0.00    -0.487 OA
BRANCH  25  26
ATOM     26  C   UNL     1       1.865  10.321  -1.693  0.00  0.00    +0.264 C 
BRANCH  26  27
ATOM     27  C   UNL     1       1.794  11.824  -1.600  0.00  0.00    -0.010 A 
ATOM     28  C   UNL     1       0.568  12.453  -1.501  0.00  0.00    +0.008 A 
ATOM     29  C   UNL     1       0.502  13.831  -1.410  0.00  0.00    +0.020 A 
ATOM     30  C   UNL     1       1.665  14.581  -1.430  0.00  0.00    +0.041 A 
ATOM     31  C   UNL     1       2.892  13.951  -1.535  0.00  0.00    +0.020 A 
ATOM     32  C   UNL     1       2.956  12.573  -1.620  0.00  0.00    +0.008 A 
ATOM     33 CL   UNL     1       1.583  16.311  -1.323  0.00  0.00    -0.084 Cl
ENDBRANCH  26  27
ENDBRANCH  25  26
ENDBRANCH  22  25
ENDBRANCH   4  19
BRANCH   7  34
ATOM     34  O   UNL     1       3.585  -0.656  -0.074  0.00  0.00    -0.507 OA
ATOM     35  H   UNL     1       3.587  -1.756  -0.086  0.00  0.00    +0.292 HD
ENDBRANCH   7  34
TORSDOF 6
