REMARK  Name = ZINC09044737
REMARK  4 active torsions:
REMARK  status: ('A' for Active; 'I' for Inactive)
REMARK    1  A    between atoms: C_4  and  C_7
REMARK    2  A    between atoms: C_8  and  C_9
REMARK    3  A    between atoms: N_15  and  C_18
REMARK    4  A    between atoms: C_18  and  C_19
REMARK                            x       y       z     vdW  Elec       q    Type
REMARK                         _______ _______ _______ _____ _____    ______ ____
ROOT
ATOM      1  C   UNL     1       4.937  -2.716  -0.062  0.00  0.00    +0.018 C 
ATOM      2  C   UNL     1       4.964  -4.102   0.035  0.00  0.00    +0.101 C 
ATOM      3  C   UNL     1       6.236  -4.845   0.138  0.00  0.00    +0.276 C 
ATOM      4  N   UNL     1       6.188  -6.184   0.229  0.00  0.00    -0.123 NA
ATOM      5  C   UNL     1       5.053  -6.839   0.230  0.00  0.00    +0.336 C 
ATOM      6  O   UNL     1       5.095  -8.182   0.326  0.00  0.00    -0.250 OA
ATOM      7  N   UNL     1       3.838  -6.240   0.140  0.00  0.00    -0.216 N 
ATOM      8  C   UNL     1       3.725  -4.898   0.048  0.00  0.00    +0.259 C 
ATOM      9  O   UNL     1       2.634  -4.363  -0.028  0.00  0.00    -0.269 OA
ATOM     10  O   UNL     1       7.305  -4.257   0.139  0.00  0.00    -0.268 OA
ENDROOT
BRANCH   1  12
ATOM     11  C   UNL     1       3.678  -0.686  -0.161  0.00  0.00    +0.008 C 
ATOM     12  C   UNL     1       3.720  -2.030   0.043  0.00  0.00    +0.001 C 
BRANCH  11  16
ATOM     13  C   UNL     1      -0.005   1.390   0.154  0.00  0.00    +0.000 A 
ATOM     14  C   UNL     1       1.152   2.084  -0.156  0.00  0.00    +0.001 A 
ATOM     15  C   UNL     1       2.354   1.417  -0.261  0.00  0.00    +0.008 A 
ATOM     16  C   UNL     1       2.402   0.033  -0.051  0.00  0.00    -0.025 A 
ATOM     17  C   UNL     1       1.227  -0.661   0.263  0.00  0.00    +0.008 A 
ATOM     18  C   UNL     1       0.034   0.022   0.363  0.00  0.00    +0.001 A 
ENDBRANCH  11  16
ENDBRANCH   1  12
BRANCH   7  19
ATOM     19  C   UNL     1       2.627  -7.065   0.149  0.00  0.00    +0.153 C 
BRANCH  19  20
ATOM     20  C   UNL     1       2.156  -7.250   1.569  0.00  0.00    -0.029 A 
ATOM     21  C   UNL     1       2.617  -8.317   2.316  0.00  0.00    +0.008 A 
ATOM     22  C   UNL     1       2.186  -8.487   3.618  0.00  0.00    +0.038 A 
ATOM     23  C   UNL     1       1.292  -7.588   4.174  0.00  0.00    +0.123 A 
ATOM     24  C   UNL     1       0.831  -6.519   3.424  0.00  0.00    +0.038 A 
ATOM     25  C   UNL     1       1.267  -6.348   2.124  0.00  0.00    +0.008 A 
ATOM     26  F   UNL     1       0.869  -7.753   5.446  0.00  0.00    -0.205 F 
ENDBRANCH  19  20
ENDBRANCH   7  19
TORSDOF 4
