REMARK  Name = ZINC39502898
REMARK  6 active torsions:
REMARK  status: ('A' for Active; 'I' for Inactive)
REMARK    1  A    between atoms: C_4  and  C_7
REMARK    2  A    between atoms: C_7  and  N_8
REMARK    3  A    between atoms: C_10  and  C_28
REMARK    4  A    between atoms: C_16  and  S_19
REMARK    5  A    between atoms: S_19  and  C_22
REMARK    6  A    between atoms: C_33  and  O_34
REMARK                            x       y       z     vdW  Elec       q    Type
REMARK                         _______ _______ _______ _____ _____    ______ ____
ROOT
ATOM      1  N   UNL     1       4.153  -0.953   1.342  0.00  0.00    +0.387 N 
ATOM      2  C   UNL     1       4.577   0.321   1.964  0.00  0.00    -0.069 C 
ATOM      3  C   UNL     1       5.779  -0.060   2.865  0.00  0.00    +0.005 C 
ATOM      4  C   UNL     1       6.481  -1.150   2.011  0.00  0.00    -0.006 C 
ATOM      5  C   UNL     1       5.300  -1.870   1.338  0.00  0.00    -0.063 C 
ATOM      6  C   UNL     1       4.966  -3.163   2.091  0.00  0.00    -0.010 C 
ATOM      7  C   UNL     1       5.150  -4.316   1.079  0.00  0.00    +0.025 C 
ATOM      8  C   UNL     1       4.982  -3.638  -0.304  0.00  0.00    +0.135 C 
ATOM      9  C   UNL     1       5.672  -2.265  -0.100  0.00  0.00    +0.014 C 
ATOM     10  H   UNL     1       3.397  -1.356   1.875  0.00  0.00    -0.081 HD
ENDROOT
BRANCH   3  11
ATOM     11  C   UNL     1       6.687   1.124   3.082  0.00  0.00    -0.005 A 
ATOM     12  C   UNL     1       7.262   1.762   2.000  0.00  0.00    +0.007 A 
ATOM     13  C   UNL     1       8.095   2.847   2.198  0.00  0.00    +0.000 A 
ATOM     14  C   UNL     1       8.355   3.297   3.480  0.00  0.00    +0.004 A 
ATOM     15  C   UNL     1       7.782   2.663   4.565  0.00  0.00    +0.046 A 
ATOM     16  C   UNL     1       6.941   1.577   4.368  0.00  0.00    +0.120 A 
BRANCH  16  17
ATOM     17  O   UNL     1       6.372   0.955   5.434  0.00  0.00    -0.506 OA
ATOM     18  H   UNL     1       6.902   0.232   5.796  0.00  0.00    +0.292 HD
ENDBRANCH  16  17
ENDBRANCH   3  11
BRANCH   8  19
ATOM     19  S   UNL     1       5.820  -4.598  -1.596  0.00  0.00    -0.000 S 
ATOM     20  O   UNL     1       5.538  -4.047  -2.875  0.00  0.00    -0.169 OA
ATOM     21  O   UNL     1       7.157  -4.879  -1.207  0.00  0.00    -0.169 OA
BRANCH  19  22
ATOM     22  C   UNL     1       5.012  -6.164  -1.592  0.00  0.00    +0.088 A 
ATOM     23  C   UNL     1       5.476  -7.179  -0.777  0.00  0.00    +0.027 A 
ATOM     24  C   UNL     1       4.843  -8.408  -0.774  0.00  0.00    +0.002 A 
ATOM     25  C   UNL     1       3.744  -8.620  -1.586  0.00  0.00    +0.000 A 
ATOM     26  C   UNL     1       3.278  -7.604  -2.400  0.00  0.00    +0.002 A 
ATOM     27  C   UNL     1       3.910  -6.375  -2.399  0.00  0.00    +0.027 A 
ENDBRANCH  19  22
ENDBRANCH   8  19
BRANCH   1  28
ATOM     28  C   UNL     1       3.711  -0.707  -0.038  0.00  0.00    -0.042 C 
BRANCH  28  32
ATOM     29  C   UNL     1       0.112   1.593   0.007  0.00  0.00    +0.000 A 
ATOM     30  C   UNL     1       1.338   2.229  -0.026  0.00  0.00    +0.000 A 
ATOM     31  C   UNL     1       2.503   1.485  -0.040  0.00  0.00    +0.002 A 
ATOM     32  C   UNL     1       2.441   0.104  -0.021  0.00  0.00    -0.064 A 
ATOM     33  C   UNL     1       1.215  -0.532   0.012  0.00  0.00    +0.002 A 
ATOM     34  C   UNL     1       0.050   0.212   0.025  0.00  0.00    +0.000 A 
ENDBRANCH  28  32
ENDBRANCH   1  28
TORSDOF 6
