REMARK  Name = ZINC14743113
REMARK  6 active torsions:
REMARK  status: ('A' for Active; 'I' for Inactive)
REMARK    1  A    between atoms: C_1  and  C_2
REMARK    2  A    between atoms: C_2  and  C_3
REMARK    3  A    between atoms: C_2  and  C_4
REMARK    4  A    between atoms: C_4  and  N_5
REMARK    5  A    between atoms: C_8  and  C_10
REMARK    6  A    between atoms: C_19  and  N_64
REMARK                            x       y       z     vdW  Elec       q    Type
REMARK                         _______ _______ _______ _____ _____    ______ ____
ROOT
ATOM      1  N   UNL     1      -2.018   2.196  -2.494  0.00  0.00    -0.267 N 
ATOM      2  C   UNL     1      -1.540   2.496  -1.275  0.00  0.00    +0.043 A 
ATOM      3  C   UNL     1      -0.578   1.585  -0.986  0.00  0.00    +0.004 A 
ATOM      4  C   UNL     1      -0.508   0.731  -2.099  0.00  0.00    +0.151 A 
ATOM      5  N   UNL     1      -1.408   1.163  -2.966  0.00  0.00    -0.166 NA
ATOM      6  C   UNL     1       0.215   1.557   0.291  0.00  0.00    +0.024 C 
ATOM      7  C   UNL     1      -0.507   2.429   1.327  0.00  0.00    -0.064 C 
ATOM      8  C   UNL     1      -0.844   3.787   0.706  0.00  0.00    -0.009 C 
ATOM      9  C   UNL     1      -1.943   3.615  -0.350  0.00  0.00    +0.054 C 
ENDROOT
BRANCH   4  10
ATOM     10  C   UNL     1       0.394  -0.427  -2.268  0.00  0.00    +0.267 C 
ATOM     11  O   UNL     1       1.105  -0.783  -1.347  0.00  0.00    -0.268 OA
ATOM     12  N   UNL     1       0.429  -1.089  -3.441  0.00  0.00    -0.292 N 
ATOM     13  C   UNL     1      -0.317  -0.597  -4.610  0.00  0.00    +0.136 C 
ATOM     14  C   UNL     1       0.647  -0.546  -5.807  0.00  0.00    +0.179 C 
ATOM     15  O   UNL     1       1.284  -1.818  -5.950  0.00  0.00    -0.377 OA
ATOM     16  C   UNL     1       2.095  -2.195  -4.834  0.00  0.00    +0.179 C 
ATOM     17  C   UNL     1       1.210  -2.327  -3.589  0.00  0.00    +0.136 C 
ENDBRANCH   4  10
BRANCH   7  24
ATOM     18  C   UNL     1       1.148   1.404   2.781  0.00  0.00    -0.078 C 
ATOM     19  C   UNL     1       1.845   1.458   4.114  0.00  0.00    -0.019 C 
ATOM     20  C   UNL     1       0.939   0.786   5.167  0.00  0.00    -0.002 C 
ATOM     21  C   UNL     1      -0.141   1.664   5.606  0.00  0.00    -0.002 C 
ATOM     22  C   UNL     1      -1.074   2.065   4.444  0.00  0.00    -0.019 C 
ATOM     23  C   UNL     1      -0.404   3.150   3.646  0.00  0.00    -0.078 C 
ATOM     24  N   UNL     1       0.392   2.664   2.468  0.00  0.00    +0.382 N 
ATOM     25  H   UNL     1       1.069   3.392   2.212  0.00  0.00    -0.081 HD
ENDBRANCH   7  24
BRANCH   1  26
ATOM     26  C   UNL     1      -3.078   2.933  -3.186  0.00  0.00    +0.146 C 
BRANCH  26  28
ATOM     27  C   UNL     1      -4.708   2.535  -1.334  0.00  0.00    +0.009 C 
ATOM     28  C   UNL     1      -4.437   2.330  -2.826  0.00  0.00    +0.004 C 
ATOM     29  C   UNL     1      -5.533   3.018  -3.643  0.00  0.00    +0.009 C 
ENDBRANCH  26  28
ENDBRANCH   1  26
TORSDOF 4
