REMARK  Name = ZINC38653437
REMARK  10 active torsions:
REMARK  status: ('A' for Active; 'I' for Inactive)
REMARK    1  A    between atoms: C_1  and  C_2
REMARK    2  A    between atoms: C_4  and  C_31
REMARK    3  A    between atoms: N_6  and  C_27
REMARK    4  A    between atoms: C_7  and  S_9
REMARK    5  A    between atoms: S_9  and  C_10
REMARK    6  A    between atoms: C_10  and  C_11
REMARK    7  A    between atoms: C_16  and  C_21
REMARK    8  A    between atoms: C_27  and  C_28
REMARK    9  A    between atoms: C_28  and  C_29
REMARK   10  A    between atoms: C_28  and  C_30
REMARK                            x       y       z     vdW  Elec       q    Type
REMARK                         _______ _______ _______ _____ _____    ______ ____
ROOT
ATOM      1  C   UNL     1       3.259  -2.149   4.492  0.00  0.00    +0.134 C 
ATOM      2  N   UNL     1       4.294  -2.842   4.082  0.00  0.00    -0.160 NA
ATOM      3  C   UNL     1       5.160  -3.415   4.925  0.00  0.00    +0.272 C 
ATOM      4  O   UNL     1       6.113  -4.054   4.510  0.00  0.00    -0.268 OA
ATOM      5  C   UNL     1       4.924  -3.248   6.389  0.00  0.00    +0.075 C 
ATOM      6  C   UNL     1       5.668  -3.737   7.434  0.00  0.00    -0.015 C 
ATOM      7  C   UNL     1       5.193  -3.410   8.831  0.00  0.00    +0.112 C 
ATOM      8  S   UNL     1       3.689  -2.408   8.495  0.00  0.00    -0.100 S 
ATOM      9  C   UNL     1       3.734  -2.451   6.721  0.00  0.00    +0.112 C 
ATOM     10  N   UNL     1       2.980  -1.948   5.769  0.00  0.00    -0.227 NA
ENDROOT
BRANCH   6  11
ATOM     11  C   UNL     1       6.870  -4.541   7.205  0.00  0.00    -0.020 A 
ATOM     12  C   UNL     1       6.771  -5.798   6.591  0.00  0.00    +0.008 A 
ATOM     13  C   UNL     1       7.907  -6.548   6.379  0.00  0.00    +0.001 A 
ATOM     14  C   UNL     1       9.144  -6.064   6.772  0.00  0.00    +0.000 A 
ATOM     15  C   UNL     1       9.252  -4.824   7.380  0.00  0.00    +0.001 A 
ATOM     16  C   UNL     1       8.128  -4.057   7.594  0.00  0.00    +0.008 A 
ENDBRANCH   6  11
BRANCH   1  17
ATOM     17  C   UNL     1       2.346  -1.545   3.457  0.00  0.00    +0.150 C 
BRANCH  17  18
ATOM     18  S   UNL     1       2.949  -1.968   1.799  0.00  0.00    -0.085 S 
BRANCH  18  23
ATOM     19  C   UNL     1      -0.019   1.526   0.010  0.00  0.00    +0.032 C 
ATOM     20  C   UNL     1       0.002  -0.004   0.002  0.00  0.00    +0.098 C 
ATOM     21  C   UNL     1       0.761  -0.527  -1.234  0.00  0.00    +0.094 C 
ATOM     22  N   UNL     1       1.885  -1.277  -0.648  0.00  0.00    -0.307 N 
ATOM     23  C   UNL     1       1.791  -1.200   0.715  0.00  0.00    +0.131 C 
ATOM     24  N   UNL     1       0.776  -0.515   1.142  0.00  0.00    -0.363 N 
ATOM     25  C   UNL     1       1.270   0.636  -2.087  0.00  0.00    +0.030 C 
ATOM     26  H   UNL     1       0.559  -0.361   2.075  0.00  0.00    +0.162 HD
BRANCH  22  27
ATOM     27  C   UNL     1       2.926  -1.985  -1.397  0.00  0.00    +0.110 C 
BRANCH  27  28
ATOM     28  C   UNL     1       4.093  -1.035  -1.670  0.00  0.00    +0.000 C 
ATOM     29  C   UNL     1       4.748  -0.637  -0.346  0.00  0.00    +0.009 C 
ATOM     30  C   UNL     1       5.124  -1.735  -2.558  0.00  0.00    +0.009 C 
ENDBRANCH  27  28
ENDBRANCH  22  27
ENDBRANCH  18  23
ENDBRANCH  17  18
ENDBRANCH   1  17
TORSDOF 6
