REMARK  Name = ZINC28164851
REMARK  9 active torsions:
REMARK  status: ('A' for Active; 'I' for Inactive)
REMARK    1  A    between atoms: C_1  and  C_2
REMARK    2  A    between atoms: C_2  and  C_3
REMARK    3  A    between atoms: C_9  and  C_25
REMARK    4  A    between atoms: C_11  and  S_12
REMARK    5  A    between atoms: S_12  and  C_13
REMARK    6  A    between atoms: C_13  and  C_14
REMARK    7  A    between atoms: N_16  and  C_17
REMARK    8  A    between atoms: C_19  and  C_24
REMARK    9  A    between atoms: C_22  and  O_23
REMARK                            x       y       z     vdW  Elec       q    Type
REMARK                         _______ _______ _______ _____ _____    ______ ____
ROOT
ATOM      1  C   UNL     1       0.146   0.104  -4.884  0.00  0.00    +0.171 C 
ENDROOT
BRANCH   1   2
ATOM      2  C   UNL     1       0.061  -0.658  -3.587  0.00  0.00    +0.228 C 
ATOM      3  O   UNL     1       0.078  -1.871  -3.594  0.00  0.00    -0.275 OA
ATOM      4  N   UNL     1      -0.033   0.008  -2.419  0.00  0.00    -0.282 N 
ATOM      5  H   UNL     1      -0.121   1.104  -2.416  0.00  0.00    +0.155 HD
BRANCH   4   6
ATOM      6  C   UNL     1      -0.017  -0.697  -1.207  0.00  0.00    +0.076 A 
ATOM      7  C   UNL     1      -0.603  -1.952  -1.125  0.00  0.00    +0.030 A 
ATOM      8  C   UNL     1      -0.592  -2.642   0.072  0.00  0.00    -0.048 A 
ATOM      9  C   UNL     1       0.007  -2.087   1.188  0.00  0.00    +0.007 A 
ATOM     10  C   UNL     1       0.598  -0.840   1.112  0.00  0.00    +0.047 A 
ATOM     11  C   UNL     1       0.591  -0.141  -0.084  0.00  0.00    +0.138 A 
ATOM     12  C   UNL     1      -1.235  -4.002   0.162  0.00  0.00    +0.044 C 
BRANCH  11  13
ATOM     13  O   UNL     1       1.171   1.086  -0.160  0.00  0.00    -0.505 OA
ATOM     14  H   UNL     1       1.651   1.524   0.728  0.00  0.00    +0.292 HD
ENDBRANCH  11  13
ENDBRANCH   4   6
ENDBRANCH   1   2
BRANCH   1  15
ATOM     15  S   UNL     1       0.262  -1.063  -6.263  0.00  0.00    -0.096 S 
BRANCH  15  24
ATOM     16  C   UNL     1       0.603  -1.992 -10.764  0.00  0.00    -0.008 A 
ATOM     17  C   UNL     1       0.504  -1.778  -9.443  0.00  0.00    +0.024 A 
ATOM     18  C   UNL     1       0.456  -0.413  -8.947  0.00  0.00    +0.040 A 
ATOM     19  C   UNL     1       0.510   0.583  -9.946  0.00  0.00    +0.113 A 
ATOM     20  S   UNL     1       0.632  -0.347 -11.451  0.00  0.00    -0.074 S 
ATOM     21  N   UNL     1       0.471   1.865  -9.641  0.00  0.00    -0.225 NA
ATOM     22  C   UNL     1       0.373   2.249  -8.383  0.00  0.00    +0.128 A 
ATOM     23  N   UNL     1       0.313   1.373  -7.397  0.00  0.00    -0.225 NA
ATOM     24  C   UNL     1       0.346   0.066  -7.613  0.00  0.00    +0.109 A 
ATOM     25  C   UNL     1       0.331   3.721  -8.063  0.00  0.00    +0.088 C 
BRANCH  16  27
ATOM     26  C   UNL     1      -0.742  -3.773 -11.844  0.00  0.00    +0.009 C 
ATOM     27  C   UNL     1       0.673  -3.309 -11.492  0.00  0.00    +0.039 C 
ENDBRANCH  16  27
ENDBRANCH  15  24
ENDBRANCH   1  15
TORSDOF 6
