REMARK  Name = ZINC03374204
REMARK  8 active torsions:
REMARK  status: ('A' for Active; 'I' for Inactive)
REMARK    1  A    between atoms: C_1  and  C_2
REMARK    2  A    between atoms: C_2  and  N_3
REMARK    3  A    between atoms: C_7  and  C_28
REMARK    4  A    between atoms: C_8  and  C_27
REMARK    5  A    between atoms: C_12  and  S_13
REMARK    6  A    between atoms: S_13  and  C_14
REMARK    7  A    between atoms: C_14  and  C_15
REMARK    8  A    between atoms: C_15  and  N_16
REMARK                            x       y       z     vdW  Elec       q    Type
REMARK                         _______ _______ _______ _____ _____    ______ ____
ROOT
ATOM      1  N   UNL     1      -0.547   1.459   5.308  0.00  0.00    -0.288 N 
ATOM      2  C   UNL     1      -1.294   1.974   6.301  0.00  0.00    +0.263 A 
ATOM      3  O   UNL     1      -0.998   1.770   7.466  0.00  0.00    -0.267 OA
ATOM      4  C   UNL     1      -2.442   2.762   5.973  0.00  0.00    +0.075 A 
ATOM      5  C   UNL     1      -3.392   3.416   6.856  0.00  0.00    -0.026 A 
ATOM      6  C   UNL     1      -4.408   4.112   6.326  0.00  0.00    -0.008 A 
ATOM      7  S   UNL     1      -4.156   3.938   4.569  0.00  0.00    -0.073 S 
ATOM      8  C   UNL     1      -2.694   2.934   4.599  0.00  0.00    +0.117 A 
ATOM      9  N   UNL     1      -1.912   2.401   3.667  0.00  0.00    -0.216 NA
ATOM     10  C   UNL     1      -0.864   1.675   3.998  0.00  0.00    +0.173 A 
ATOM     11  C   UNL     1      -5.500   4.863   7.043  0.00  0.00    +0.052 C 
ATOM     12  C   UNL     1      -3.239   3.312   8.352  0.00  0.00    +0.045 C 
ENDROOT
BRANCH   1  14
ATOM     13  C   UNL     1       1.856   1.558   5.752  0.00  0.00    +0.027 C 
ATOM     14  C   UNL     1       0.630   0.651   5.639  0.00  0.00    +0.124 C 
ENDBRANCH   1  14
BRANCH  10  15
ATOM     15  S   UNL     1       0.147   0.980   2.733  0.00  0.00    -0.086 S 
BRANCH  15  16
ATOM     16  C   UNL     1      -0.729   1.579   1.267  0.00  0.00    +0.097 C 
BRANCH  16  17
ATOM     17  C   UNL     1      -0.013   1.086   0.008  0.00  0.00    +0.128 C 
BRANCH  17  18
ATOM     18  N   UNL     1      -0.721   1.571  -1.179  0.00  0.00    -0.233 N 
ATOM     19  C   UNL     1      -1.714   0.906  -1.798  0.00  0.00    +0.254 C 
ATOM     20  O   UNL     1      -2.158  -0.174  -1.466  0.00  0.00    -0.270 OA
ATOM     21  C   UNL     1      -2.175   1.713  -2.947  0.00  0.00    +0.049 A 
ATOM     22  C   UNL     1      -3.146   1.542  -3.921  0.00  0.00    +0.014 A 
ATOM     23  C   UNL     1      -3.326   2.517  -4.890  0.00  0.00    +0.001 A 
ATOM     24  C   UNL     1      -2.544   3.657  -4.891  0.00  0.00    +0.001 A 
ATOM     25  C   UNL     1      -1.569   3.841  -3.923  0.00  0.00    +0.014 A 
ATOM     26  C   UNL     1      -1.377   2.875  -2.949  0.00  0.00    +0.049 A 
ATOM     27  C   UNL     1      -0.461   2.737  -1.797  0.00  0.00    +0.254 C 
ATOM     28  O   UNL     1       0.384   3.543  -1.464  0.00  0.00    -0.270 OA
ENDBRANCH  17  18
ENDBRANCH  16  17
ENDBRANCH  15  16
ENDBRANCH  10  15
TORSDOF 5
