REMARK  Name = ZINC35354815
REMARK  5 active torsions:
REMARK  status: ('A' for Active; 'I' for Inactive)
REMARK    1  A    between atoms: C_4  and  S_9
REMARK    2  A    between atoms: C_5  and  N_7
REMARK    3  A    between atoms: N_7  and  N_8
REMARK    4  A    between atoms: S_9  and  N_12
REMARK    5  A    between atoms: N_12  and  C_13
REMARK                            x       y       z     vdW  Elec       q    Type
REMARK                         _______ _______ _______ _____ _____    ______ ____
ROOT
ATOM      1  S   UNL     1       4.138  -0.846  -0.236  0.00  0.00    +0.074 S 
ATOM      2  O   UNL     1       4.015  -1.872  -1.211  0.00  0.00    -0.150 OA
ATOM      3  O   UNL     1       5.233   0.061  -0.217  0.00  0.00    -0.150 OA
ENDROOT
BRANCH   1   7
ATOM      4  C   UNL     1       0.380   1.670  -0.523  0.00  0.00    +0.002 A 
ATOM      5  C   UNL     1       1.624   2.263  -0.642  0.00  0.00    +0.002 A 
ATOM      6  C   UNL     1       2.770   1.495  -0.554  0.00  0.00    +0.031 A 
ATOM      7  C   UNL     1       2.677   0.132  -0.347  0.00  0.00    +0.130 A 
ATOM      8  C   UNL     1       1.429  -0.466  -0.227  0.00  0.00    +0.068 A 
ATOM      9  C   UNL     1       0.279   0.309  -0.316  0.00  0.00    +0.026 A 
BRANCH   8  10
ATOM     10  N   UNL     1       1.330  -1.843  -0.018  0.00  0.00    -0.281 N 
ATOM     11  H   UNL     1       2.131  -2.368   0.141  0.00  0.00    +0.166 HD
BRANCH  10  12
ATOM     12  N   UNL     1       0.107  -2.451  -0.037  0.00  0.00    -0.256 NA
ATOM     13  H   UNL     1      -0.315  -2.385  -0.951  0.00  0.00    +0.140 HD
ATOM     14  H   UNL     1       0.177  -3.413   0.260  0.00  0.00    +0.140 HD
ENDBRANCH  10  12
ENDBRANCH   8  10
ENDBRANCH   1   7
BRANCH   1  15
ATOM     15  N   UNL     1       4.117  -1.592   1.242  0.00  0.00    -0.212 N 
ATOM     16  H   UNL     1       3.879  -2.530   1.308  0.00  0.00    +0.174 HD
BRANCH  15  17
ATOM     17  C   UNL     1       4.441  -0.869   2.397  0.00  0.00    +0.097 A 
ATOM     18  C   UNL     1       4.453   0.521   2.368  0.00  0.00    +0.149 A 
ATOM     19  C   UNL     1       4.774   1.232   3.509  0.00  0.00    +0.078 A 
ATOM     20  C   UNL     1       5.084   0.561   4.680  0.00  0.00    +0.127 A 
ATOM     21  C   UNL     1       5.074  -0.823   4.711  0.00  0.00    +0.055 A 
ATOM     22  C   UNL     1       4.747  -1.539   3.574  0.00  0.00    +0.046 A 
ATOM     23 BR   UNL     1       4.726  -3.429   3.619  0.00  0.00    -0.048 Br
ATOM     24  F   UNL     1       5.398   1.258   5.794  0.00  0.00    -0.205 F 
ATOM     25  F   UNL     1       4.151   1.176   1.225  0.00  0.00    -0.203 F 
ENDBRANCH  15  17
ENDBRANCH   1  15
TORSDOF 5
