REMARK  Name = ZINC36345855
REMARK  17 active torsions:
REMARK  status: ('A' for Active; 'I' for Inactive)
REMARK    1  A    between atoms: C_1  and  C_2
REMARK    2  A    between atoms: C_5  and  O_8
REMARK    3  A    between atoms: O_8  and  C_9
REMARK    4  A    between atoms: C_10  and  C_21
REMARK    5  A    between atoms: C_11  and  C_20
REMARK    6  A    between atoms: N_13  and  C_14
REMARK    7  A    between atoms: C_21  and  N_22
REMARK    8  A    between atoms: N_22  and  C_23
REMARK    9  A    between atoms: N_22  and  C_36
REMARK   10  A    between atoms: C_23  and  C_24
REMARK   11  A    between atoms: C_24  and  C_26
REMARK   12  A    between atoms: C_24  and  O_35
REMARK   13  A    between atoms: C_26  and  O_27
REMARK   14  A    between atoms: O_27  and  C_28
REMARK   15  A    between atoms: C_28  and  C_29
REMARK   16  A    between atoms: C_36  and  C_37
REMARK   17  A    between atoms: C_36  and  C_38
REMARK                            x       y       z     vdW  Elec       q    Type
REMARK                         _______ _______ _______ _____ _____    ______ ____
ROOT
ATOM      1  C   UNL     1       0.426  -4.737   0.300  0.00  0.00    +0.225 A 
ATOM      2  C   UNL     1      -0.216  -5.899   0.596  0.00  0.00    +0.021 A 
ATOM      3  C   UNL     1      -0.957  -5.695   1.764  0.00  0.00    +0.065 A 
ATOM      4  N   UNL     1      -0.774  -4.462   2.161  0.00  0.00    -0.168 NA
ATOM      5  N   UNL     1       0.098  -3.833   1.262  0.00  0.00    -0.200 N 
ATOM      6  C   UNL     1      -1.821  -6.722   2.449  0.00  0.00    +0.068 C 
ENDROOT
BRANCH   5   7
ATOM      7  C   UNL     1       0.549  -2.508   1.339  0.00  0.00    +0.069 A 
ATOM      8  C   UNL     1       1.877  -2.209   1.067  0.00  0.00    +0.028 A 
ATOM      9  C   UNL     1       2.319  -0.902   1.144  0.00  0.00    +0.002 A 
ATOM     10  C   UNL     1       1.440   0.107   1.491  0.00  0.00    +0.000 A 
ATOM     11  C   UNL     1       0.117  -0.188   1.762  0.00  0.00    +0.002 A 
ATOM     12  C   UNL     1      -0.332  -1.492   1.682  0.00  0.00    +0.028 A 
ENDBRANCH   5   7
BRANCH   1  13
ATOM     13  O   UNL     1       1.247  -4.520  -0.758  0.00  0.00    -0.438 OA
BRANCH  13  18
ATOM     14  C   UNL     1      -0.987  -2.311  -5.432  0.00  0.00    +0.044 C 
ATOM     15  C   UNL     1      -0.389  -2.902  -4.182  0.00  0.00    -0.050 A 
ATOM     16  C   UNL     1       0.976  -3.106  -4.099  0.00  0.00    +0.007 A 
ATOM     17  C   UNL     1       1.526  -3.648  -2.954  0.00  0.00    +0.046 A 
ATOM     18  C   UNL     1       0.708  -3.987  -1.886  0.00  0.00    +0.130 A 
ATOM     19  C   UNL     1      -0.661  -3.781  -1.971  0.00  0.00    +0.046 A 
ATOM     20  C   UNL     1      -1.206  -3.234  -3.116  0.00  0.00    +0.007 A 
ENDBRANCH  13  18
ENDBRANCH   1  13
BRANCH   2  21
ATOM     21  C   UNL     1      -0.142  -7.179  -0.196  0.00  0.00    -0.035 C 
BRANCH  21  22
ATOM     22  N   UNL     1       1.264  -7.569  -0.365  0.00  0.00    +0.386 N 
ATOM     23  H   UNL     1       1.787  -6.790  -0.736  0.00  0.00    -0.081 HD
BRANCH  22  24
ATOM     24  C   UNL     1       1.824  -7.960   0.936  0.00  0.00    -0.074 C 
ATOM     25  C   UNL     1       1.959  -6.722   1.825  0.00  0.00    -0.014 C 
ATOM     26  C   UNL     1       0.894  -8.972   1.608  0.00  0.00    -0.014 C 
ENDBRANCH  22  24
BRANCH  22  27
ATOM     27  C   UNL     1       1.349  -8.703  -1.295  0.00  0.00    -0.044 C 
BRANCH  27  28
ATOM     28  C   UNL     1       2.819  -9.015  -1.586  0.00  0.00    +0.124 C 
BRANCH  28  29
ATOM     29  O   UNL     1       3.437  -7.878  -2.192  0.00  0.00    -0.391 OA
ATOM     30  H   UNL     1       3.031  -7.609  -3.027  0.00  0.00    +0.210 HD
ENDBRANCH  28  29
BRANCH  28  31
ATOM     31  C   UNL     1       2.908 -10.211  -2.536  0.00  0.00    +0.189 C 
BRANCH  31  32
ATOM     32  O   UNL     1       4.277 -10.576  -2.716  0.00  0.00    -0.373 OA
BRANCH  32  33
ATOM     33  C   UNL     1       4.473 -11.688  -3.591  0.00  0.00    +0.195 C 
BRANCH  33  34
ATOM     34  C   UNL     1       5.946 -11.984  -3.707  0.00  0.00    -0.022 A 
ATOM     35  C   UNL     1       6.699 -11.369  -4.689  0.00  0.00    +0.006 A 
ATOM     36  C   UNL     1       8.051 -11.640  -4.795  0.00  0.00    +0.000 A 
ATOM     37  C   UNL     1       8.649 -12.526  -3.919  0.00  0.00    +0.000 A 
ATOM     38  C   UNL     1       7.895 -13.141  -2.936  0.00  0.00    +0.000 A 
ATOM     39  C   UNL     1       6.545 -12.867  -2.827  0.00  0.00    +0.006 A 
ENDBRANCH  33  34
ENDBRANCH  32  33
ENDBRANCH  31  32
ENDBRANCH  28  31
ENDBRANCH  27  28
ENDBRANCH  22  27
ENDBRANCH  21  22
ENDBRANCH   2  21
TORSDOF 13
