REMARK  Name = ZINC36369521
REMARK  8 active torsions:
REMARK  status: ('A' for Active; 'I' for Inactive)
REMARK    1  A    between atoms: C_1  and  C_2
REMARK    2  A    between atoms: C_8  and  C_44
REMARK    3  A    between atoms: C_9  and  O_43
REMARK    4  A    between atoms: C_19  and  C_21
REMARK    5  A    between atoms: C_21  and  N_22
REMARK    6  A    between atoms: N_25  and  C_28
REMARK    7  A    between atoms: C_28  and  C_30
REMARK    8  A    between atoms: C_28  and  C_36
REMARK                            x       y       z     vdW  Elec       q    Type
REMARK                         _______ _______ _______ _____ _____    ______ ____
ROOT
ATOM      1  N   UNL     1       4.618   0.639   5.221  0.00  0.00    +0.382 N 
ATOM      2  C   UNL     1       4.931   1.482   4.059  0.00  0.00    -0.063 C 
ATOM      3  C   UNL     1       6.391   1.933   4.133  0.00  0.00    +0.067 C 
ATOM      4  N   UNL     1       6.605   2.686   5.378  0.00  0.00    -0.295 NA
ATOM      5  C   UNL     1       6.273   1.863   6.549  0.00  0.00    +0.067 C 
ATOM      6  C   UNL     1       4.814   1.412   6.455  0.00  0.00    -0.063 C 
ATOM      7  H   UNL     1       5.229  -0.164   5.227  0.00  0.00    -0.082 HD
ENDROOT
BRANCH   1   8
ATOM      8  C   UNL     1       3.221   0.192   5.139  0.00  0.00    -0.064 C 
BRANCH   8  23
ATOM      9  C   UNL     1      -0.110   0.961   0.355  0.00  0.00    +0.008 C 
ATOM     10  C   UNL     1       0.117  -0.535   0.173  0.00  0.00    -0.001 C 
ATOM     11  C   UNL     1      -1.218  -1.272   0.142  0.00  0.00    +0.008 C 
ATOM     12  C   UNL     1      -0.939  -2.731  -0.245  0.00  0.00    +0.027 C 
ATOM     13  C   UNL     1       0.025  -3.305   0.756  0.00  0.00    -0.027 C 
ATOM     14  C   UNL     1       0.888  -2.580   1.400  0.00  0.00    -0.061 C 
ATOM     15  C   UNL     1       1.048  -1.091   1.236  0.00  0.00    +0.018 C 
ATOM     16  C   UNL     1       0.852  -0.440   2.596  0.00  0.00    +0.132 C 
ATOM     17  C   UNL     1       1.573  -1.099   3.739  0.00  0.00    +0.071 C 
ATOM     18  C   UNL     1       1.569  -2.631   3.782  0.00  0.00    +0.187 C 
ATOM     19  C   UNL     1       1.805  -3.251   2.401  0.00  0.00    +0.076 C 
ATOM     20  O   UNL     1       2.764  -2.930   4.556  0.00  0.00    -0.460 OA
ATOM     21  C   UNL     1       3.722  -2.061   4.167  0.00  0.00    +0.309 C 
ATOM     22  O   UNL     1       4.897  -2.300   4.040  0.00  0.00    -0.251 OA
ATOM     23  C   UNL     1       3.046  -0.719   3.916  0.00  0.00    +0.090 C 
ATOM     24  C   UNL     1       2.475  -0.820   0.741  0.00  0.00    +0.018 C 
BRANCH  16  25
ATOM     25  O   UNL     1      -0.545  -0.420   2.924  0.00  0.00    -0.391 OA
ATOM     26  H   UNL     1      -0.741  -0.018   3.781  0.00  0.00    +0.210 HD
ENDBRANCH  16  25
ENDBRANCH   8  23
ENDBRANCH   1   8
BRANCH   4  27
ATOM     27  C   UNL     1       7.984   3.185   5.460  0.00  0.00    +0.117 C 
BRANCH  27  28
ATOM     28  C   UNL     1       8.147   4.007   6.713  0.00  0.00    -0.026 A 
ATOM     29  C   UNL     1       7.178   4.928   7.066  0.00  0.00    +0.007 A 
ATOM     30  C   UNL     1       7.327   5.682   8.214  0.00  0.00    +0.020 A 
ATOM     31  C   UNL     1       8.446   5.515   9.011  0.00  0.00    +0.041 A 
ATOM     32  C   UNL     1       9.415   4.593   8.657  0.00  0.00    +0.020 A 
ATOM     33  C   UNL     1       9.262   3.836   7.511  0.00  0.00    +0.007 A 
ATOM     34 CL   UNL     1       8.634   6.462  10.454  0.00  0.00    -0.084 Cl
ENDBRANCH  27  28
BRANCH  27  35
ATOM     35  C   UNL     1       8.281   4.041   4.255  0.00  0.00    -0.026 A 
ATOM     36  C   UNL     1       7.351   4.967   3.820  0.00  0.00    +0.005 A 
ATOM     37  C   UNL     1       7.623   5.753   2.715  0.00  0.00    +0.000 A 
ATOM     38  C   UNL     1       8.825   5.612   2.046  0.00  0.00    +0.000 A 
ATOM     39  C   UNL     1       9.755   4.687   2.482  0.00  0.00    +0.000 A 
ATOM     40  C   UNL     1       9.484   3.904   3.590  0.00  0.00    +0.005 A 
ENDBRANCH  27  35
ENDBRANCH   4  27
TORSDOF 6
