REMARK  Name = ZINC40031736
REMARK  12 active torsions:
REMARK  status: ('A' for Active; 'I' for Inactive)
REMARK    1  A    between atoms: C_1  and  C_2
REMARK    2  A    between atoms: C_2  and  C_3
REMARK    3  A    between atoms: C_3  and  C_4
REMARK    4  A    between atoms: C_4  and  O_5
REMARK    5  A    between atoms: O_5  and  C_6
REMARK    6  A    between atoms: C_9  and  C_14
REMARK    7  A    between atoms: C_11  and  O_12
REMARK    8  A    between atoms: O_12  and  C_13
REMARK    9  A    between atoms: N_29  and  C_30
REMARK   10  A    between atoms: C_30  and  C_31
REMARK   11  A    between atoms: C_31  and  C_32
REMARK   12  A    between atoms: C_32  and  O_33
REMARK                            x       y       z     vdW  Elec       q    Type
REMARK                         _______ _______ _______ _____ _____    ______ ____
ROOT
ATOM      1  C   UNL     1       1.903  -8.101   2.992  0.00  0.00    +0.145 C 
ATOM      2  C   UNL     1       2.975  -8.630   2.097  0.00  0.00    +0.072 A 
ATOM      3  C   UNL     1       4.412  -8.343   2.035  0.00  0.00    +0.199 A 
ATOM      4  O   UNL     1       5.000  -7.698   2.885  0.00  0.00    -0.287 OA
ATOM      5  C   UNL     1       5.082  -8.914   0.839  0.00  0.00    +0.065 A 
ATOM      6  C   UNL     1       6.397  -8.564   0.533  0.00  0.00    +0.030 A 
ATOM      7  C   UNL     1       7.000  -9.099  -0.584  0.00  0.00    +0.019 A 
ATOM      8  C   UNL     1       6.301  -9.981  -1.398  0.00  0.00    +0.019 A 
ATOM      9  C   UNL     1       5.003 -10.333  -1.105  0.00  0.00    +0.048 A 
ATOM     10  C   UNL     1       4.371  -9.807   0.022  0.00  0.00    +0.140 A 
ATOM     11  O   UNL     1       3.099 -10.179   0.293  0.00  0.00    -0.450 OA
ATOM     12  C   UNL     1       2.396  -9.516   1.233  0.00  0.00    +0.199 A 
ATOM     13  C   UNL     1       0.955  -9.580   1.533  0.00  0.00    +0.283 C 
ATOM     14  O   UNL     1       0.152 -10.274   0.943  0.00  0.00    -0.267 OA
ATOM     15  N   UNL     1       0.658  -8.757   2.562  0.00  0.00    -0.284 N 
ATOM     16 BR   UNL     1       8.783  -8.633  -1.009  0.00  0.00    -0.050 Br
ENDROOT
BRANCH   1  20
ATOM     17  C   UNL     1       1.563  -3.862   2.537  0.00  0.00    +0.162 A 
ATOM     18  C   UNL     1       1.021  -4.710   1.584  0.00  0.00    +0.050 A 
ATOM     19  C   UNL     1       1.133  -6.079   1.734  0.00  0.00    +0.009 A 
ATOM     20  C   UNL     1       1.784  -6.606   2.833  0.00  0.00    -0.019 A 
ATOM     21  C   UNL     1       2.326  -5.766   3.788  0.00  0.00    +0.055 A 
ATOM     22  C   UNL     1       2.223  -4.393   3.641  0.00  0.00    +0.162 A 
BRANCH  22  23
ATOM     23  O   UNL     1       2.761  -3.565   4.576  0.00  0.00    -0.491 OA
ATOM     24  C   UNL     1       3.424  -4.180   5.682  0.00  0.00    +0.277 C 
ENDBRANCH  22  23
BRANCH  17  25
ATOM     25  O   UNL     1       1.454  -2.514   2.391  0.00  0.00    -0.488 OA
BRANCH  25  26
ATOM     26  C   UNL     1       0.763  -2.041   1.233  0.00  0.00    +0.229 C 
BRANCH  26  27
ATOM     27  C   UNL     1       0.742  -0.511   1.242  0.00  0.00    +0.041 C 
BRANCH  27  29
ATOM     28  C   UNL     1      -0.019   1.526   0.010  0.00  0.00    +0.004 C 
ATOM     29  C   UNL     1       0.002  -0.004   0.002  0.00  0.00    -0.000 C 
ENDBRANCH  27  29
ENDBRANCH  26  27
ENDBRANCH  25  26
ENDBRANCH  17  25
ENDBRANCH   1  20
BRANCH  15  30
ATOM     30  C   UNL     1      -0.669  -8.553   3.147  0.00  0.00    +0.111 C 
BRANCH  30  31
ATOM     31  C   UNL     1      -1.377  -7.408   2.420  0.00  0.00    +0.047 C 
BRANCH  31  32
ATOM     32  C   UNL     1      -2.763  -7.195   3.031  0.00  0.00    +0.157 C 
BRANCH  32  33
ATOM     33  O   UNL     1      -3.424  -6.125   2.352  0.00  0.00    -0.395 OA
ATOM     34  H   UNL     1      -4.310  -5.934   2.688  0.00  0.00    +0.209 HD
ENDBRANCH  32  33
ENDBRANCH  31  32
ENDBRANCH  30  31
ENDBRANCH  15  30
TORSDOF 10
