REMARK  Name = ZINC48331338
REMARK  6 active torsions:
REMARK  status: ('A' for Active; 'I' for Inactive)
REMARK    1  A    between atoms: C_1  and  C_2
REMARK    2  A    between atoms: C_4  and  N_11
REMARK    3  A    between atoms: C_7  and  N_8
REMARK    4  A    between atoms: N_11  and  C_12
REMARK    5  A    between atoms: C_12  and  C_14
REMARK    6  A    between atoms: C_12  and  C_15
REMARK                            x       y       z     vdW  Elec       q    Type
REMARK                         _______ _______ _______ _____ _____    ______ ____
ROOT
ATOM      1  N   UNL     1      -0.065  -2.693  -2.429  0.00  0.00    -0.337 N 
ATOM      2  H   UNL     1      -0.222  -2.069  -3.155  0.00  0.00    +0.147 HD
ENDROOT
BRANCH   1   6
ATOM      3  C   UNL     1      -0.212   1.048   0.754  0.00  0.00    +0.046 C 
ATOM      4  C   UNL     1      -0.053  -0.421   0.459  0.00  0.00    -0.019 A 
ATOM      5  C   UNL     1      -0.132  -0.876  -0.843  0.00  0.00    +0.028 A 
ATOM      6  C   UNL     1       0.015  -2.230  -1.114  0.00  0.00    +0.028 A 
ATOM      7  C   UNL     1       0.240  -3.123  -0.074  0.00  0.00    +0.025 A 
ATOM      8  C   UNL     1       0.317  -2.662   1.226  0.00  0.00    +0.035 A 
ATOM      9  C   UNL     1       0.176  -1.312   1.491  0.00  0.00    +0.129 A 
BRANCH   9  10
ATOM     10  N   UNL     1       0.265  -0.820   2.885  0.00  0.00    +0.057 N 
ATOM     11  O   UNL     1       0.809   0.233   3.120  0.00  0.00    -0.126 OA
ATOM     12  O   UNL     1      -0.206  -1.472   3.787  0.00  0.00    -0.126 OA
ENDBRANCH   9  10
ENDBRANCH   1   6
BRANCH   1  13
ATOM     13  C   UNL     1       0.090  -4.122  -2.713  0.00  0.00    +0.100 C 
ATOM     14  C   UNL     1      -1.257  -4.826  -2.538  0.00  0.00    +0.033 C 
BRANCH  13  15
ATOM     15  C   UNL     1       0.572  -4.303  -4.130  0.00  0.00    +0.008 A 
ATOM     16  C   UNL     1       0.240  -3.373  -5.097  0.00  0.00    +0.008 A 
ATOM     17  C   UNL     1       0.681  -3.540  -6.396  0.00  0.00    +0.000 A 
ATOM     18  C   UNL     1       1.455  -4.636  -6.730  0.00  0.00    +0.003 A 
ATOM     19  C   UNL     1       1.788  -5.566  -5.765  0.00  0.00    +0.039 A 
ATOM     20  C   UNL     1       1.351  -5.398  -4.461  0.00  0.00    +0.128 A 
ATOM     21  F   UNL     1       1.680  -6.305  -3.516  0.00  0.00    -0.205 F 
ENDBRANCH  13  15
ENDBRANCH   1  13
TORSDOF 4
