REMARK  Name = ZINC45303010
REMARK  7 active torsions:
REMARK  status: ('A' for Active; 'I' for Inactive)
REMARK    1  A    between atoms: C_3  and  C_31
REMARK    2  A    between atoms: C_6  and  C_7
REMARK    3  A    between atoms: C_7  and  N_8
REMARK    4  A    between atoms: N_8  and  C_9
REMARK    5  A    between atoms: N_12  and  C_15
REMARK    6  A    between atoms: C_15  and  C_16
REMARK    7  A    between atoms: C_33  and  C_37
REMARK                            x       y       z     vdW  Elec       q    Type
REMARK                         _______ _______ _______ _____ _____    ______ ____
ROOT
ATOM      1  C   UNL     1      -2.922  -1.719  -1.845  0.00  0.00    -0.069 C 
ATOM      2  C   UNL     1      -3.945  -0.969  -0.988  0.00  0.00    -0.000 C 
ATOM      3  C   UNL     1      -5.249  -1.770  -0.942  0.00  0.00    +0.083 C 
ATOM      4  N   UNL     1      -5.763  -1.949  -2.305  0.00  0.00    -0.302 NA
ATOM      5  C   UNL     1      -4.818  -2.708  -3.134  0.00  0.00    +0.083 C 
ATOM      6  C   UNL     1      -3.501  -1.935  -3.246  0.00  0.00    -0.000 C 
ENDROOT
BRANCH   1   7
ATOM      7  N   UNL     1      -1.688  -0.927  -1.942  0.00  0.00    +0.384 N 
ATOM      8  H   UNL     1      -1.907  -0.004  -2.285  0.00  0.00    -0.085 HD
ATOM      9  H   UNL     1      -1.047  -1.379  -2.576  0.00  0.00    -0.085 HD
BRANCH   7  10
ATOM     10  C   UNL     1      -1.069  -0.821  -0.613  0.00  0.00    -0.046 C 
BRANCH  10  16
ATOM     11  C   UNL     1       0.149   1.363  -0.545  0.00  0.00    +0.002 A 
ATOM     12  C   UNL     1       1.305   2.112  -0.635  0.00  0.00    +0.010 A 
ATOM     13  C   UNL     1       2.521   1.483  -0.893  0.00  0.00    +0.000 A 
ATOM     14  C   UNL     1       2.563   0.100  -1.061  0.00  0.00    +0.010 A 
ATOM     15  C   UNL     1       1.401  -0.639  -0.969  0.00  0.00    +0.002 A 
ATOM     16  C   UNL     1       0.196  -0.009  -0.712  0.00  0.00    -0.064 A 
BRANCH  13  17
ATOM     17  C   UNL     1       3.767   2.282  -0.991  0.00  0.00    +0.072 A 
ATOM     18  C   UNL     1       4.976   1.645  -1.256  0.00  0.00    +0.047 A 
ATOM     19  C   UNL     1       6.139   2.413  -1.344  0.00  0.00    +0.055 A 
ATOM     20  C   UNL     1       6.034   3.798  -1.162  0.00  0.00    +0.038 A 
ATOM     21  C   UNL     1       4.796   4.351  -0.903  0.00  0.00    +0.112 A 
ATOM     22  N   UNL     1       3.717   3.598  -0.831  0.00  0.00    -0.255 NA
BRANCH  19  23
ATOM     23  C   UNL     1       7.406   1.801  -1.614  0.00  0.00    +0.099 C 
ATOM     24  N   UNL     1       8.410   1.316  -1.828  0.00  0.00    -0.191 NA
ENDBRANCH  19  23
ENDBRANCH  13  17
ENDBRANCH  10  16
ENDBRANCH   7  10
ENDBRANCH   1   7
BRANCH   4  25
ATOM     25  C   UNL     1      -7.083  -2.593  -2.290  0.00  0.00    +0.094 C 
BRANCH  25  26
ATOM     26  C   UNL     1      -8.143  -1.573  -1.868  0.00  0.00    +0.058 C 
ATOM     27  C   UNL     1      -8.348  -0.519  -2.977  0.00  0.00    +0.135 C 
ATOM     28  N   UNL     1      -9.755  -0.649  -3.386  0.00  0.00    -0.307 N 
ATOM     29  C   UNL     1     -10.505  -0.004  -4.303  0.00  0.00    +0.252 A 
ATOM     30  O   UNL     1     -10.000   0.879  -4.974  0.00  0.00    -0.268 OA
ATOM     31  C   UNL     1     -11.864  -0.332  -4.502  0.00  0.00    +0.071 A 
ATOM     32  C   UNL     1     -12.473  -1.309  -3.777  0.00  0.00    +0.015 A 
ATOM     33  C   UNL     1     -11.669  -2.014  -2.780  0.00  0.00    -0.001 A 
ATOM     34  C   UNL     1     -10.329  -1.636  -2.639  0.00  0.00    +0.058 A 
ATOM     35  C   UNL     1      -9.490  -2.240  -1.726  0.00  0.00    +0.018 A 
ATOM     36  C   UNL     1      -9.994  -3.248  -0.928  0.00  0.00    +0.129 A 
ATOM     37  C   UNL     1     -11.327  -3.635  -1.054  0.00  0.00    +0.039 A 
ATOM     38  C   UNL     1     -12.166  -3.038  -1.967  0.00  0.00    +0.013 A 
ATOM     39  F   UNL     1      -9.195  -3.858  -0.026  0.00  0.00    -0.205 F 
ENDBRANCH  25  26
ENDBRANCH   4  25
TORSDOF 7
