REMARK  Name = ZINC38930794
REMARK  7 active torsions:
REMARK  status: ('A' for Active; 'I' for Inactive)
REMARK    1  A    between atoms: C_1  and  C_2
REMARK    2  A    between atoms: C_5  and  C_8
REMARK    3  A    between atoms: N_14  and  N_15
REMARK    4  A    between atoms: C_16  and  C_17
REMARK    5  A    between atoms: C_19  and  O_25
REMARK    6  A    between atoms: C_20  and  O_24
REMARK    7  A    between atoms: O_25  and  C_26
REMARK                            x       y       z     vdW  Elec       q    Type
REMARK                         _______ _______ _______ _____ _____    ______ ____
ROOT
ATOM      1  C   UNL     1       0.174  -4.471  -0.019  0.00  0.00    +0.264 C 
ATOM      2  N   UNL     1      -0.637  -4.900  -1.169  0.00  0.00    -0.189 NA
ATOM      3  N   UNL     1      -1.690  -5.377  -0.738  0.00  0.00    -0.219 N 
ATOM      4  C   UNL     1      -1.776  -5.361   0.619  0.00  0.00    +0.174 C 
ATOM      5  S   UNL     1      -3.104  -5.947   1.526  0.00  0.00    -0.015 S 
ATOM      6  N   UNL     1      -0.656  -4.814   1.151  0.00  0.00    -0.172 N 
ATOM      7  H   UNL     1      -2.389  -5.730  -1.311  0.00  0.00    +0.176 HD
ENDROOT
BRANCH   1  12
ATOM      8  C   UNL     1       1.127   1.225  -0.227  0.00  0.00    +0.044 C 
ATOM      9  C   UNL     1       0.879  -0.260  -0.173  0.00  0.00    -0.050 A 
ATOM     10  C   UNL     1       0.789  -0.989  -1.344  0.00  0.00    +0.004 A 
ATOM     11  C   UNL     1       0.561  -2.352  -1.294  0.00  0.00    +0.008 A 
ATOM     12  C   UNL     1       0.423  -2.985  -0.073  0.00  0.00    -0.002 A 
ATOM     13  C   UNL     1       0.514  -2.257   1.098  0.00  0.00    +0.008 A 
ATOM     14  C   UNL     1       0.746  -0.895   1.048  0.00  0.00    +0.004 A 
ENDBRANCH   1  12
BRANCH   6  15
ATOM     15  N   UNL     1      -0.353  -4.617   2.504  0.00  0.00    -0.183 NA
ATOM     16  C   UNL     1      -1.148  -5.080   3.422  0.00  0.00    +0.138 C 
BRANCH  16  17
ATOM     17  C   UNL     1      -0.886  -4.784   4.841  0.00  0.00    -0.001 A 
ATOM     18  C   UNL     1      -1.737  -5.285   5.830  0.00  0.00    +0.059 A 
ATOM     19  C   UNL     1      -1.487  -5.006   7.160  0.00  0.00    +0.163 A 
ATOM     20  C   UNL     1      -0.389  -4.225   7.513  0.00  0.00    +0.173 A 
ATOM     21  C   UNL     1       0.457  -3.726   6.532  0.00  0.00    +0.063 A 
ATOM     22  C   UNL     1       0.217  -4.006   5.203  0.00  0.00    +0.028 A 
ATOM     23 BR   UNL     1       1.945  -2.665   7.019  0.00  0.00    -0.046 Br
BRANCH  20  24
ATOM     24  O   UNL     1      -0.144  -3.950   8.822  0.00  0.00    -0.503 OA
ATOM     25  H   UNL     1       0.424  -4.598   9.261  0.00  0.00    +0.292 HD
ENDBRANCH  20  24
BRANCH  19  26
ATOM     26  O   UNL     1      -2.313  -5.492   8.124  0.00  0.00    -0.491 OA
ATOM     27  C   UNL     1      -3.420  -6.285   7.691  0.00  0.00    +0.277 C 
ENDBRANCH  19  26
ENDBRANCH  16  17
ENDBRANCH   6  15
TORSDOF 5
