REMARK  Name = ZINC09211276
REMARK  6 active torsions:
REMARK  status: ('A' for Active; 'I' for Inactive)
REMARK    1  A    between atoms: C_1  and  C_2
REMARK    2  A    between atoms: C_8  and  C_9
REMARK    3  A    between atoms: C_8  and  N_72
REMARK    4  A    between atoms: C_9  and  C_10
REMARK    5  A    between atoms: C_10  and  N_11
REMARK    6  A    between atoms: C_12  and  C_14
REMARK                            x       y       z     vdW  Elec       q    Type
REMARK                         _______ _______ _______ _____ _____    ______ ____
ROOT
ATOM      1  C   UNL     1      -0.927   1.718   3.671  0.00  0.00    +0.078 C 
ATOM      2  C   UNL     1      -0.946   3.249   3.682  0.00  0.00    +0.031 C 
ATOM      3  C   UNL     1      -1.608   3.737   4.973  0.00  0.00    +0.107 C 
ATOM      4  N   UNL     1      -0.861   3.229   6.131  0.00  0.00    -0.313 N 
ATOM      5  C   UNL     1      -0.871   1.761   6.167  0.00  0.00    +0.107 C 
ATOM      6  C   UNL     1      -0.186   1.214   4.912  0.00  0.00    +0.031 C 
ATOM      7  C   UNL     1      -1.356   3.757   7.311  0.00  0.00    +0.152 A 
ATOM      8  C   UNL     1      -1.433   5.148   7.499  0.00  0.00    +0.148 A 
ATOM      9  C   UNL     1      -1.947   5.625   8.717  0.00  0.00    +0.166 A 
ATOM     10  N   UNL     1      -2.333   4.751   9.641  0.00  0.00    -0.216 NA
ATOM     11  C   UNL     1      -2.238   3.457   9.422  0.00  0.00    +0.225 A 
ATOM     12  N   UNL     1      -1.764   2.962   8.294  0.00  0.00    -0.218 NA
ATOM     13  N   UNL     1      -1.906   6.993   8.634  0.00  0.00    -0.312 N 
ATOM     14  C   UNL     1      -1.393   7.317   7.412  0.00  0.00    +0.112 A 
ATOM     15  N   UNL     1      -1.120   6.230   6.748  0.00  0.00    -0.227 NA
ATOM     16  C   UNL     1      -1.191   8.725   6.904  0.00  0.00    +0.074 C 
ATOM     17  C   UNL     1      -0.499   9.559   7.983  0.00  0.00    +0.008 C 
ATOM     18  C   UNL     1      -1.548  10.184   8.897  0.00  0.00    +0.002 C 
ATOM     19  C   UNL     1      -2.748   9.251   9.047  0.00  0.00    +0.022 C 
ATOM     20  C   UNL     1      -2.300   7.935   9.686  0.00  0.00    +0.125 C 
ENDROOT
BRANCH   1  22
ATOM     21  N   UNL     1      -0.698   1.558   1.213  0.00  0.00    -0.315 N 
ATOM     22  C   UNL     1      -0.222   1.232   2.431  0.00  0.00    +0.216 C 
ATOM     23  O   UNL     1       0.774   0.548   2.529  0.00  0.00    -0.276 OA
ATOM     24  H   UNL     1      -1.495   2.106   1.135  0.00  0.00    +0.149 HD
BRANCH  21  25
ATOM     25  C   UNL     1      -0.013   1.086   0.008  0.00  0.00    +0.102 C 
BRANCH  25  26
ATOM     26  C   UNL     1      -0.753   1.593  -1.232  0.00  0.00    +0.000 C 
BRANCH  26  27
ATOM     27  C   UNL     1      -0.037   1.099  -2.490  0.00  0.00    -0.077 C 
BRANCH  27  34
ATOM     28  C   UNL     1      -0.554   0.703  -7.366  0.00  0.00    +0.005 C 
ATOM     29  C   UNL     1      -1.095   1.359  -6.095  0.00  0.00    -0.031 C 
ATOM     30  C   UNL     1      -1.044   2.882  -6.244  0.00  0.00    -0.001 C 
ATOM     31  C   UNL     1      -1.533   3.531  -4.946  0.00  0.00    -0.018 C 
ATOM     32  C   UNL     1      -0.664   3.049  -3.782  0.00  0.00    -0.079 C 
ATOM     33  C   UNL     1      -0.239   0.940  -4.897  0.00  0.00    -0.076 C 
ATOM     34  N   UNL     1      -0.776   1.578  -3.677  0.00  0.00    +0.380 N 
ATOM     35  H   UNL     1      -1.766   1.326  -3.577  0.00  0.00    -0.082 HD
ENDBRANCH  27  34
ENDBRANCH  26  27
ENDBRANCH  25  26
ENDBRANCH  21  25
ENDBRANCH   1  22
TORSDOF 5
