REMARK  Name = ZINC00492451
REMARK  8 active torsions:
REMARK  status: ('A' for Active; 'I' for Inactive)
REMARK    1  A    between atoms: C_1  and  C_2
REMARK    2  A    between atoms: C_2  and  N_3
REMARK    3  A    between atoms: N_3  and  C_4
REMARK    4  A    between atoms: N_3  and  C_6
REMARK    5  A    between atoms: C_4  and  C_5
REMARK    6  A    between atoms: C_9  and  C_12
REMARK    7  A    between atoms: C_23  and  C_25
REMARK    8  A    between atoms: C_23  and  C_26
REMARK                            x       y       z     vdW  Elec       q    Type
REMARK                         _______ _______ _______ _____ _____    ______ ____
ROOT
ATOM      1  C   UNL     1      -2.261  -1.436  -5.951  0.00  0.00    +0.063 C 
ATOM      2  C   UNL     1      -1.728  -0.542  -7.072  0.00  0.00    +0.109 C 
ATOM      3  C   UNL     1      -0.380  -1.056  -7.510  0.00  0.00    +0.218 C 
ATOM      4  O   UNL     1       0.489  -0.275  -7.836  0.00  0.00    -0.275 OA
ATOM      5  N   UNL     1      -0.141  -2.376  -7.540  0.00  0.00    -0.289 N 
ATOM      6  C   UNL     1      -1.066  -3.284  -7.095  0.00  0.00    +0.018 C 
ATOM      7  C   UNL     1      -2.116  -2.886  -6.348  0.00  0.00    +0.020 C 
ATOM      8  C   UNL     1      -3.097  -3.799  -5.924  0.00  0.00    +0.162 C 
ATOM      9  O   UNL     1      -4.040  -3.399  -5.270  0.00  0.00    -0.292 OA
ATOM     10  C   UNL     1      -3.002  -5.261  -6.264  0.00  0.00    +0.086 C 
ATOM     11  C   UNL     1      -2.230  -5.422  -7.577  0.00  0.00    -0.023 C 
ATOM     12  C   UNL     1      -0.868  -4.742  -7.428  0.00  0.00    +0.058 C 
ATOM     13  C   UNL     1      -2.032  -6.909  -7.878  0.00  0.00    +0.011 C 
ATOM     14  C   UNL     1      -3.012  -4.764  -8.716  0.00  0.00    +0.011 C 
ATOM     15  H   UNL     1       0.708  -2.696  -7.885  0.00  0.00    +0.155 HD
ENDROOT
BRANCH   1  19
ATOM     16  C   UNL     1      -0.038  -0.713  -2.373  0.00  0.00    +0.030 A 
ATOM     17  C   UNL     1      -1.410  -0.495  -2.396  0.00  0.00    +0.023 A 
ATOM     18  C   UNL     1      -2.125  -0.729  -3.554  0.00  0.00    +0.006 A 
ATOM     19  C   UNL     1      -1.477  -1.180  -4.690  0.00  0.00    -0.039 A 
ATOM     20  C   UNL     1      -0.112  -1.398  -4.670  0.00  0.00    +0.006 A 
ATOM     21  C   UNL     1       0.610  -1.161  -3.517  0.00  0.00    +0.023 A 
BRANCH  16  22
ATOM     22  N   UNL     1       0.688  -0.476  -1.203  0.00  0.00    -0.330 N 
BRANCH  22  24
ATOM     23  C   UNL     1      -0.019   1.526   0.010  0.00  0.00    +0.024 C 
ATOM     24  C   UNL     1       0.002  -0.004   0.002  0.00  0.00    +0.102 C 
ENDBRANCH  22  24
BRANCH  22  25
ATOM     25  C   UNL     1       2.135  -0.701  -1.182  0.00  0.00    +0.102 C 
ATOM     26  C   UNL     1       2.421  -2.145  -0.763  0.00  0.00    +0.024 C 
ENDBRANCH  22  25
ENDBRANCH  16  22
ENDBRANCH   1  19
TORSDOF 4
