REMARK  Name = ZINC20680177
REMARK  8 active torsions:
REMARK  status: ('A' for Active; 'I' for Inactive)
REMARK    1  A    between atoms: C_1  and  C_2
REMARK    2  A    between atoms: C_2  and  O_3
REMARK    3  A    between atoms: O_3  and  C_4
REMARK    4  A    between atoms: C_4  and  C_5
REMARK    5  A    between atoms: C_5  and  O_6
REMARK    6  A    between atoms: O_6  and  C_7
REMARK    7  A    between atoms: C_14  and  C_23
REMARK    8  A    between atoms: C_26  and  O_29
REMARK                            x       y       z     vdW  Elec       q    Type
REMARK                         _______ _______ _______ _____ _____    ______ ____
ROOT
ATOM      1  C   UNL     1      -0.849   1.130  -3.534  0.00  0.00    +0.142 A 
ATOM      2  C   UNL     1      -0.265   0.770  -4.734  0.00  0.00    +0.047 A 
ATOM      3  C   UNL     1       1.091   0.500  -4.783  0.00  0.00    +0.004 A 
ATOM      4  C   UNL     1       1.854   0.587  -3.637  0.00  0.00    +0.006 A 
ATOM      5  C   UNL     1       1.278   0.947  -2.425  0.00  0.00    -0.016 A 
ATOM      6  C   UNL     1      -0.076   1.221  -2.372  0.00  0.00    +0.074 A 
ATOM      7  N   UNL     1      -0.720   1.571  -1.178  0.00  0.00    -0.334 N 
ATOM      8  C   UNL     1      -0.013   1.086   0.008  0.00  0.00    +0.105 C 
ATOM      9  C   UNL     1       1.423   1.616  -0.003  0.00  0.00    +0.029 C 
ATOM     10  C   UNL     1       2.166   1.020  -1.218  0.00  0.00    +0.049 C 
ATOM     11  C   UNL     1       2.579  -0.359  -0.757  0.00  0.00    -0.023 C 
ATOM     12  C   UNL     1       2.592  -0.420   0.551  0.00  0.00    -0.030 C 
ATOM     13  C   UNL     1       2.196   0.915   1.150  0.00  0.00    +0.033 C 
ATOM     14  H   UNL     1      -1.653   2.143  -1.066  0.00  0.00    +0.147 HD
ENDROOT
BRANCH   8  15
ATOM     15  C   UNL     1      -0.718   1.572   1.248  0.00  0.00    -0.027 A 
ATOM     16  C   UNL     1      -1.223   2.858   1.295  0.00  0.00    +0.009 A 
ATOM     17  C   UNL     1      -1.875   3.304   2.428  0.00  0.00    +0.046 A 
ATOM     18  C   UNL     1      -2.014   2.464   3.523  0.00  0.00    +0.117 A 
ATOM     19  C   UNL     1      -1.502   1.176   3.475  0.00  0.00    +0.046 A 
ATOM     20  C   UNL     1      -0.855   0.733   2.338  0.00  0.00    +0.009 A 
BRANCH  18  21
ATOM     21  O   UNL     1      -2.651   2.903   4.641  0.00  0.00    -0.507 OA
ATOM     22  H   UNL     1      -2.760   2.236   5.509  0.00  0.00    +0.292 HD
ENDBRANCH  18  21
ENDBRANCH   8  15
BRANCH   1  23
ATOM     23  O   UNL     1      -2.182   1.397  -3.483  0.00  0.00    -0.488 OA
BRANCH  23  24
ATOM     24  C   UNL     1      -2.913   1.286  -4.705  0.00  0.00    +0.257 C 
BRANCH  24  25
ATOM     25  C   UNL     1      -4.384   1.622  -4.452  0.00  0.00    +0.200 C 
BRANCH  25  26
ATOM     26  O   UNL     1      -4.500   2.993  -4.066  0.00  0.00    -0.377 OA
BRANCH  26  28
ATOM     27  C   UNL     1      -5.846   4.887  -3.401  0.00  0.00    +0.034 C 
ATOM     28  C   UNL     1      -5.841   3.411  -3.804  0.00  0.00    +0.156 C 
ENDBRANCH  26  28
ENDBRANCH  25  26
ENDBRANCH  24  25
ENDBRANCH  23  24
ENDBRANCH   1  23
TORSDOF 7
