REMARK  Name = ZINC63195868
REMARK  9 active torsions:
REMARK  status: ('A' for Active; 'I' for Inactive)
REMARK    1  A    between atoms: C_1  and  C_2
REMARK    2  A    between atoms: C_2  and  C_4
REMARK    3  A    between atoms: C_2  and  N_21
REMARK    4  A    between atoms: N_10  and  C_11
REMARK    5  A    between atoms: C_11  and  C_12
REMARK    6  A    between atoms: C_15  and  C_17
REMARK    7  A    between atoms: C_17  and  C_18
REMARK    8  A    between atoms: C_17  and  C_19
REMARK    9  A    between atoms: C_17  and  C_20
REMARK                            x       y       z     vdW  Elec       q    Type
REMARK                         _______ _______ _______ _____ _____    ______ ____
ROOT
ATOM      1  C   UNL     1       0.738  -0.453   1.143  0.00  0.00    -0.083 C 
ATOM      2  C   UNL     1       2.222  -0.105   1.009  0.00  0.00    -0.017 C 
ATOM      3  C   UNL     1       2.937  -0.431   2.324  0.00  0.00    -0.003 C 
ATOM      4  C   UNL     1       2.715  -1.909   2.661  0.00  0.00    -0.019 C 
ATOM      5  C   UNL     1       1.213  -2.189   2.733  0.00  0.00    -0.078 C 
ATOM      6  N   UNL     1       0.592  -1.883   1.439  0.00  0.00    +0.386 N 
ATOM      7  H   UNL     1       1.041  -2.423   0.715  0.00  0.00    -0.081 HD
ENDROOT
BRANCH   1   9
ATOM      8  C   UNL     1       0.554  -1.031  -1.281  0.00  0.00    -0.016 C 
ATOM      9  C   UNL     1       0.018  -0.128  -0.168  0.00  0.00    -0.092 C 
BRANCH   9  10
ATOM     10  N   UNL     1       0.256   1.278  -0.521  0.00  0.00    +0.379 N 
ATOM     11  H   UNL     1      -0.296   1.519  -1.332  0.00  0.00    -0.090 HD
ATOM     12  H   UNL     1      -0.009   1.869   0.253  0.00  0.00    -0.090 HD
ATOM     13  H   UNL     1       1.234   1.412  -0.728  0.00  0.00    -0.090 HD
ENDBRANCH   9  10
ENDBRANCH   1   9
BRANCH   6  14
ATOM     14  C   UNL     1      -0.835  -2.228   1.489  0.00  0.00    +0.021 C 
BRANCH  14  15
ATOM     15  C   UNL     1      -0.986  -3.716   1.672  0.00  0.00    +0.201 A 
ATOM     16  N   UNL     1      -1.063  -4.349   2.808  0.00  0.00    -0.114 NA
ATOM     17  N   UNL     1      -1.187  -5.611   2.587  0.00  0.00    -0.112 NA
ATOM     18  C   UNL     1      -1.193  -5.826   1.302  0.00  0.00    +0.222 A 
ATOM     19  O   UNL     1      -1.071  -4.634   0.694  0.00  0.00    -0.426 OA
BRANCH  18  20
ATOM     20  C   UNL     1      -1.319  -7.165   0.623  0.00  0.00    +0.040 C 
ATOM     21  C   UNL     1      -2.645  -7.816   1.021  0.00  0.00    +0.020 C 
ATOM     22  C   UNL     1      -1.280  -6.972  -0.895  0.00  0.00    +0.020 C 
ATOM     23  C   UNL     1      -0.159  -8.066   1.052  0.00  0.00    +0.020 C 
ENDBRANCH  18  20
ENDBRANCH  14  15
ENDBRANCH   6  14
TORSDOF 5
