REMARK  Name = ZINC28254631
REMARK  9 active torsions:
REMARK  status: ('A' for Active; 'I' for Inactive)
REMARK    1  A    between atoms: C_1  and  C_2
REMARK    2  A    between atoms: C_2  and  C_3
REMARK    3  A    between atoms: C_2  and  C_4
REMARK    4  A    between atoms: C_2  and  N_34
REMARK    5  A    between atoms: N_6  and  C_7
REMARK    6  A    between atoms: C_7  and  C_9
REMARK    7  A    between atoms: C_7  and  C_17
REMARK    8  A    between atoms: C_9  and  C_10
REMARK    9  A    between atoms: C_10  and  C_11
REMARK                            x       y       z     vdW  Elec       q    Type
REMARK                         _______ _______ _______ _____ _____    ______ ____
ROOT
ATOM      1  C   UNL     1       7.984   2.906  -2.462  0.00  0.00    +0.159 C 
ENDROOT
BRANCH   1   2
ATOM      2  C   UNL     1       7.596   2.668  -1.026  0.00  0.00    +0.236 C 
ATOM      3  O   UNL     1       8.420   2.266  -0.233  0.00  0.00    -0.274 OA
ATOM      4  N   UNL     1       6.331   2.903  -0.622  0.00  0.00    -0.300 N 
ATOM      5  C   UNL     1       5.937   2.675   0.775  0.00  0.00    +0.108 C 
ATOM      6  C   UNL     1       4.716   1.750   0.799  0.00  0.00    +0.031 C 
ATOM      7  C   UNL     1       3.611   2.349  -0.077  0.00  0.00    +0.011 C 
ATOM      8  C   UNL     1       4.107   2.458  -1.522  0.00  0.00    +0.031 C 
ATOM      9  C   UNL     1       5.321   3.391  -1.571  0.00  0.00    +0.108 C 
ATOM     10  C   UNL     1       3.288   3.771   0.441  0.00  0.00    +0.120 C 
ATOM     11  S   UNL     1       1.490   3.833   0.051  0.00  0.00    +0.055 S 
ATOM     12  O   UNL     1       1.311   4.254  -1.294  0.00  0.00    -0.252 OA
ATOM     13  C   UNL     1       1.164   2.084   0.002  0.00  0.00    +0.043 A 
ATOM     14  C   UNL     1       2.397   1.453  -0.033  0.00  0.00    -0.024 A 
ATOM     15  C   UNL     1       2.398   0.054  -0.034  0.00  0.00    +0.005 A 
ATOM     16  C   UNL     1       1.220  -0.657  -0.015  0.00  0.00    +0.000 A 
ATOM     17  C   UNL     1       0.002  -0.004   0.002  0.00  0.00    +0.001 A 
ATOM     18  C   UNL     1      -0.017   1.380   0.010  0.00  0.00    +0.017 A 
ENDBRANCH   1   2
BRANCH   1  21
ATOM     19  C   UNL     1      10.338   2.407  -2.079  0.00  0.00    +0.202 C 
ATOM     20  O   UNL     1      10.344   3.249  -1.206  0.00  0.00    -0.277 OA
ATOM     21  N   UNL     1       9.207   2.159  -2.768  0.00  0.00    -0.305 N 
ATOM     22  H   UNL     1       9.201   1.395  -3.559  0.00  0.00    +0.149 HD
BRANCH  19  24
ATOM     23  C   UNL     1      12.815   2.464  -1.980  0.00  0.00    -0.001 C 
ATOM     24  C   UNL     1      11.596   1.638  -2.393  0.00  0.00    +0.001 C 
ATOM     25  C   UNL     1      11.591   0.316  -1.623  0.00  0.00    -0.001 C 
BRANCH  24  26
ATOM     26  N   UNL     1      11.655   1.365  -3.835  0.00  0.00    +0.387 N 
ATOM     27  H   UNL     1      10.778   0.771  -4.132  0.00  0.00    -0.089 HD
ATOM     28  H   UNL     1      12.573   0.804  -4.064  0.00  0.00    -0.089 HD
ATOM     29  H   UNL     1      11.659   2.315  -4.389  0.00  0.00    -0.089 HD
ENDBRANCH  24  26
ENDBRANCH  19  24
ENDBRANCH   1  21
BRANCH   1  30
ATOM     30  C   UNL     1       8.231   4.400  -2.683  0.00  0.00    +0.032 C 
BRANCH  30  31
ATOM     31  C   UNL     1       8.504   4.659  -4.166  0.00  0.00    +0.006 C 
BRANCH  31  32
ATOM     32  C   UNL     1       8.751   6.152  -4.386  0.00  0.00    -0.011 C 
ATOM     33  C   UNL     1       7.474   6.933  -4.068  0.00  0.00    +0.003 C 
ATOM     34  C   UNL     1       7.721   8.427  -4.288  0.00  0.00    +0.000 C 
ATOM     35  C   UNL     1       8.116   8.668  -5.746  0.00  0.00    +0.000 C 
ATOM     36  C   UNL     1       9.393   7.888  -6.065  0.00  0.00    +0.000 C 
ATOM     37  C   UNL     1       9.146   6.394  -5.845  0.00  0.00    +0.003 C 
ENDBRANCH  31  32
ENDBRANCH  30  31
ENDBRANCH   1  30
TORSDOF 7
