REMARK  Name = ZINC39016156
REMARK  9 active torsions:
REMARK  status: ('A' for Active; 'I' for Inactive)
REMARK    1  A    between atoms: C_1  and  C_2
REMARK    2  A    between atoms: C_2  and  O_3
REMARK    3  A    between atoms: O_3  and  C_4
REMARK    4  A    between atoms: C_7  and  C_10
REMARK    5  A    between atoms: N_16  and  N_17
REMARK    6  A    between atoms: C_18  and  C_19
REMARK    7  A    between atoms: C_22  and  O_25
REMARK    8  A    between atoms: O_25  and  C_26
REMARK    9  A    between atoms: C_26  and  C_27
REMARK                            x       y       z     vdW  Elec       q    Type
REMARK                         _______ _______ _______ _____ _____    ______ ____
ROOT
ATOM      1  C   UNL     1       1.137  -6.073   1.771  0.00  0.00    +0.264 C 
ATOM      2  N   UNL     1       1.264  -6.720   0.456  0.00  0.00    -0.189 NA
ATOM      3  N   UNL     1       2.358  -7.289   0.412  0.00  0.00    -0.219 N 
ATOM      4  C   UNL     1       3.086  -7.148   1.552  0.00  0.00    +0.174 C 
ATOM      5  S   UNL     1       4.642  -7.813   1.811  0.00  0.00    -0.015 S 
ATOM      6  N   UNL     1       2.401  -6.406   2.455  0.00  0.00    -0.172 N 
ATOM      7  H   UNL     1       2.669  -7.787  -0.360  0.00  0.00    +0.176 HD
ENDROOT
BRANCH   1  11
ATOM      8  C   UNL     1       0.738  -1.842   1.329  0.00  0.00    +0.121 A 
ATOM      9  C   UNL     1       0.203  -2.694   0.373  0.00  0.00    +0.046 A 
ATOM     10  C   UNL     1       0.334  -4.061   0.518  0.00  0.00    +0.011 A 
ATOM     11  C   UNL     1       0.997  -4.581   1.615  0.00  0.00    -0.002 A 
ATOM     12  C   UNL     1       1.530  -3.734   2.568  0.00  0.00    +0.011 A 
ATOM     13  C   UNL     1       1.408  -2.366   2.425  0.00  0.00    +0.046 A 
BRANCH   8  14
ATOM     14  O   UNL     1       0.612  -0.496   1.188  0.00  0.00    -0.492 OA
BRANCH  14  16
ATOM     15  C   UNL     1      -0.130   1.502   0.049  0.00  0.00    +0.048 C 
ATOM     16  C   UNL     1      -0.090  -0.027   0.035  0.00  0.00    +0.225 C 
ENDBRANCH  14  16
ENDBRANCH   8  14
ENDBRANCH   1  11
BRANCH   6  17
ATOM     17  N   UNL     1       2.800  -6.036   3.746  0.00  0.00    -0.183 NA
ATOM     18  C   UNL     1       3.903  -6.507   4.244  0.00  0.00    +0.138 C 
BRANCH  18  19
ATOM     19  C   UNL     1       4.268  -6.207   5.640  0.00  0.00    -0.005 A 
ATOM     20  C   UNL     1       3.425  -5.421   6.432  0.00  0.00    +0.013 A 
ATOM     21  C   UNL     1       3.770  -5.144   7.737  0.00  0.00    +0.046 A 
ATOM     22  C   UNL     1       4.953  -5.644   8.266  0.00  0.00    +0.121 A 
ATOM     23  C   UNL     1       5.794  -6.425   7.483  0.00  0.00    +0.046 A 
ATOM     24  C   UNL     1       5.454  -6.713   6.179  0.00  0.00    +0.013 A 
BRANCH  22  25
ATOM     25  O   UNL     1       5.290  -5.368   9.553  0.00  0.00    -0.487 OA
BRANCH  25  26
ATOM     26  C   UNL     1       6.520  -5.913  10.033  0.00  0.00    +0.264 C 
BRANCH  26  27
ATOM     27  C   UNL     1       6.723  -5.504  11.469  0.00  0.00    -0.010 A 
ATOM     28  C   UNL     1       7.390  -4.330  11.766  0.00  0.00    +0.007 A 
ATOM     29  C   UNL     1       7.577  -3.955  13.083  0.00  0.00    +0.000 A 
ATOM     30  C   UNL     1       7.097  -4.754  14.104  0.00  0.00    +0.000 A 
ATOM     31  C   UNL     1       6.430  -5.928  13.807  0.00  0.00    +0.000 A 
ATOM     32  C   UNL     1       6.239  -6.301  12.490  0.00  0.00    +0.007 A 
ENDBRANCH  26  27
ENDBRANCH  25  26
ENDBRANCH  22  25
ENDBRANCH  18  19
ENDBRANCH   6  17
TORSDOF 8
