REMARK  Name = ZINC19084210
REMARK  10 active torsions:
REMARK  status: ('A' for Active; 'I' for Inactive)
REMARK    1  A    between atoms: C_1  and  C_2
REMARK    2  A    between atoms: C_2  and  C_3
REMARK    3  A    between atoms: C_2  and  C_4
REMARK    4  A    between atoms: C_2  and  C_5
REMARK    5  A    between atoms: C_9  and  C_15
REMARK    6  A    between atoms: C_11  and  N_14
REMARK    7  A    between atoms: C_20  and  C_21
REMARK    8  A    between atoms: C_20  and  N_57
REMARK    9  A    between atoms: C_25  and  O_27
REMARK   10  A    between atoms: O_27  and  C_28
REMARK                            x       y       z     vdW  Elec       q    Type
REMARK                         _______ _______ _______ _____ _____    ______ ____
ROOT
ATOM      1  C   UNL     1       1.529   5.317   0.017  0.00  0.00    +0.071 A 
ATOM      2  C   UNL     1       0.151   5.150   0.029  0.00  0.00    +0.073 A 
ATOM      3  C   UNL     1      -0.107   3.786   0.024  0.00  0.00    +0.158 A 
ATOM      4  N   UNL     1      -1.246   3.078   0.030  0.00  0.00    -0.234 NA
ATOM      5  C   UNL     1      -1.226   1.764   0.017  0.00  0.00    +0.033 A 
ATOM      6  C   UNL     1      -0.013   1.076   0.008  0.00  0.00    +0.065 A 
ATOM      7  C   UNL     1       1.159   1.783   0.001  0.00  0.00    +0.122 A 
ATOM      8  N   UNL     1       1.108   3.151   0.009  0.00  0.00    -0.201 N 
ATOM      9  N   UNL     1       2.102   4.136   0.005  0.00  0.00    -0.168 NA
ENDROOT
BRANCH   5  10
ATOM     10  C   UNL     1      -2.523   0.995   0.019  0.00  0.00    -0.018 C 
ATOM     11  C   UNL     1      -2.975   0.704   1.472  0.00  0.00    -0.011 C 
ATOM     12  C   UNL     1      -4.505   0.521   1.293  0.00  0.00    -0.020 C 
ATOM     13  C   UNL     1      -4.851   1.543   0.189  0.00  0.00    -0.077 C 
ATOM     14  N   UNL     1      -3.605   1.828  -0.542  0.00  0.00    +0.388 N 
ATOM     15  H   UNL     1      -3.364   2.819  -0.429  0.00  0.00    -0.080 HD
BRANCH  14  16
ATOM     16  C   UNL     1      -3.781   1.532  -1.988  0.00  0.00    -0.042 C 
BRANCH  16  17
ATOM     17  C   UNL     1      -5.040   2.195  -2.483  0.00  0.00    -0.060 A 
ATOM     18  C   UNL     1      -6.242   1.511  -2.445  0.00  0.00    +0.002 A 
ATOM     19  C   UNL     1      -7.400   2.118  -2.894  0.00  0.00    +0.004 A 
ATOM     20  C   UNL     1      -7.358   3.405  -3.392  0.00  0.00    +0.045 A 
ATOM     21  C   UNL     1      -6.154   4.092  -3.437  0.00  0.00    +0.120 A 
ATOM     22  C   UNL     1      -4.993   3.483  -2.981  0.00  0.00    +0.047 A 
BRANCH  21  23
ATOM     23  O   UNL     1      -6.110   5.359  -3.927  0.00  0.00    -0.495 OA
ATOM     24  C   UNL     1      -7.343   5.922  -4.378  0.00  0.00    +0.277 C 
ENDBRANCH  21  23
ENDBRANCH  16  17
ENDBRANCH  14  16
ENDBRANCH   5  10
BRANCH   1  26
ATOM     25  C   UNL     1       2.179   7.260   1.415  0.00  0.00    +0.017 C 
ATOM     26  C   UNL     1       2.250   6.641   0.017  0.00  0.00    +0.006 C 
ATOM     27  C   UNL     1       3.714   6.424  -0.371  0.00  0.00    +0.017 C 
ATOM     28  C   UNL     1       1.589   7.582  -0.992  0.00  0.00    +0.017 C 
ENDBRANCH   1  26
BRANCH   7  29
ATOM     29  N   UNL     1       2.372   1.127  -0.014  0.00  0.00    -0.343 N 
ATOM     30  H   UNL     1       2.399   0.158  -0.019  0.00  0.00    +0.144 HD
ATOM     31  H   UNL     1       3.198   1.636  -0.019  0.00  0.00    +0.144 HD
ENDBRANCH   7  29
TORSDOF 6
