REMARK  Name = ZINC33502026
REMARK  10 active torsions:
REMARK  status: ('A' for Active; 'I' for Inactive)
REMARK    1  A    between atoms: C_1  and  C_2
REMARK    2  A    between atoms: N_6  and  C_18
REMARK    3  A    between atoms: C_9  and  C_14
REMARK    4  A    between atoms: C_14  and  C_16
REMARK    5  A    between atoms: C_14  and  N_17
REMARK    6  A    between atoms: C_18  and  C_19
REMARK    7  A    between atoms: C_19  and  C_20
REMARK    8  A    between atoms: C_20  and  N_21
REMARK    9  A    between atoms: N_21  and  C_22
REMARK   10  A    between atoms: N_21  and  C_23
REMARK                            x       y       z     vdW  Elec       q    Type
REMARK                         _______ _______ _______ _____ _____    ______ ____
ROOT
ATOM      1  C   UNL     1       4.764   1.100  -0.351  0.00  0.00    +0.062 C 
ATOM      2  C   UNL     1       3.441   1.778  -0.714  0.00  0.00    +0.256 C 
ATOM      3  C   UNL     1       3.500   3.233  -0.325  0.00  0.00    +0.260 C 
ATOM      4  O   UNL     1       4.563   3.816  -0.307  0.00  0.00    -0.271 OA
ATOM      5  N   UNL     1       2.363   3.885   0.003  0.00  0.00    -0.265 N 
ATOM      6  C   UNL     1       1.152   3.179   0.009  0.00  0.00    +0.079 A 
ATOM      7  C   UNL     1      -0.059   3.851   0.023  0.00  0.00    +0.029 A 
ATOM      8  C   UNL     1      -1.242   3.135   0.029  0.00  0.00    -0.060 A 
ATOM      9  C   UNL     1      -1.219   1.752   0.017  0.00  0.00    +0.005 A 
ATOM     10  C   UNL     1      -0.013   1.076   0.008  0.00  0.00    +0.048 A 
ATOM     11  C   UNL     1       1.176   1.785   0.000  0.00  0.00    +0.143 A 
ATOM     12  O   UNL     1       2.371   1.137  -0.015  0.00  0.00    -0.478 OA
ENDROOT
BRANCH   8  13
ATOM     13  C   UNL     1      -2.561   3.864   0.045  0.00  0.00    -0.047 C 
ATOM     14  C   UNL     1      -3.116   3.884   1.471  0.00  0.00    -0.009 C 
BRANCH  13  15
ATOM     15  N   UNL     1      -3.511   3.177  -0.840  0.00  0.00    +0.382 N 
ATOM     16  H   UNL     1      -4.474   3.709  -0.829  0.00  0.00    -0.089 HD
ATOM     17  H   UNL     1      -3.658   2.144  -0.490  0.00  0.00    -0.089 HD
ATOM     18  H   UNL     1      -3.112   3.162  -1.865  0.00  0.00    -0.089 HD
ENDBRANCH  13  15
ENDBRANCH   8  13
BRANCH   5  19
ATOM     19  C   UNL     1       2.395   5.309   0.348  0.00  0.00    +0.112 C 
BRANCH  19  20
ATOM     20  C   UNL     1       2.202   6.145  -0.919  0.00  0.00    +0.001 C 
BRANCH  20  21
ATOM     21  C   UNL     1       2.236   7.632  -0.559  0.00  0.00    -0.078 C 
BRANCH  21  22
ATOM     22  N   UNL     1       2.050   8.434  -1.775  0.00  0.00    +0.376 N 
ATOM     23  C   UNL     1       0.705   8.241  -2.334  0.00  0.00    -0.097 C 
ATOM     24  C   UNL     1       2.311   9.856  -1.513  0.00  0.00    -0.097 C 
ATOM     25  H   UNL     1       2.779   8.089  -2.523  0.00  0.00    -0.083 HD
ENDBRANCH  21  22
ENDBRANCH  20  21
ENDBRANCH  19  20
ENDBRANCH   5  19
TORSDOF 6
