REMARK  Name = ZINC12454130
REMARK  9 active torsions:
REMARK  status: ('A' for Active; 'I' for Inactive)
REMARK    1  A    between atoms: C_1  and  C_2
REMARK    2  A    between atoms: C_2  and  C_4
REMARK    3  A    between atoms: C_2  and  N_51
REMARK    4  A    between atoms: C_9  and  N_51
REMARK    5  A    between atoms: C_10  and  C_11
REMARK    6  A    between atoms: C_10  and  N_51
REMARK    7  A    between atoms: C_13  and  C_16
REMARK    8  A    between atoms: C_16  and  C_17
REMARK    9  A    between atoms: C_16  and  C_23
REMARK                            x       y       z     vdW  Elec       q    Type
REMARK                         _______ _______ _______ _____ _____    ______ ____
ROOT
ATOM      1  C   UNL     1      -1.913   4.371   3.883  0.00  0.00    +0.211 A 
ATOM      2  N   UNL     1      -2.466   3.708   2.897  0.00  0.00    -0.197 NA
ATOM      3  C   UNL     1      -1.714   3.974   1.814  0.00  0.00    +0.183 A 
ATOM      4  N   UNL     1      -0.764   4.777   2.188  0.00  0.00    -0.060 NA
ATOM      5  O   UNL     1      -0.860   5.018   3.373  0.00  0.00    -0.340 OA
ENDROOT
BRANCH   1   6
ATOM      6  C   UNL     1      -2.378   4.403   5.316  0.00  0.00    +0.022 C 
BRANCH   6   8
ATOM      7  C   UNL     1      -2.159   2.007   5.588  0.00  0.00    -0.095 C 
ATOM      8  N   UNL     1      -1.694   3.327   6.064  0.00  0.00    +0.388 N 
ATOM      9  H   UNL     1      -0.682   3.401   5.904  0.00  0.00    -0.081 HD
BRANCH   8  11
ATOM     10  C   UNL     1      -1.282   2.317   8.256  0.00  0.00    -0.008 C 
ATOM     11  C   UNL     1      -1.963   3.466   7.510  0.00  0.00    -0.034 C 
BRANCH  11  12
ATOM     12  C   UNL     1      -1.399   4.779   7.987  0.00  0.00    -0.024 A 
ATOM     13  C   UNL     1      -1.953   5.695   8.819  0.00  0.00    +0.009 A 
ATOM     14  C   UNL     1      -1.244   6.842   9.123  0.00  0.00    +0.008 A 
ATOM     15  C   UNL     1      -0.014   7.017   8.579  0.00  0.00    +0.045 A 
ATOM     16  S   UNL     1       0.177   5.530   7.610  0.00  0.00    -0.103 S 
ENDBRANCH  11  12
ENDBRANCH   8  11
ENDBRANCH   6   8
ENDBRANCH   1   6
BRANCH   3  17
ATOM     17  C   UNL     1      -1.937   3.443   0.421  0.00  0.00    +0.120 C 
BRANCH  17  18
ATOM     18  C   UNL     1      -0.726   2.660  -0.017  0.00  0.00    -0.033 A 
ATOM     19  C   UNL     1      -0.874   1.376  -0.507  0.00  0.00    +0.004 A 
ATOM     20  C   UNL     1       0.237   0.656  -0.903  0.00  0.00    +0.000 A 
ATOM     21  C   UNL     1       1.496   1.220  -0.811  0.00  0.00    +0.000 A 
ATOM     22  C   UNL     1       1.643   2.504  -0.321  0.00  0.00    +0.000 A 
ATOM     23  C   UNL     1       0.532   3.224   0.075  0.00  0.00    +0.004 A 
ENDBRANCH  17  18
BRANCH  17  24
ATOM     24  C   UNL     1      -2.160   4.595  -0.525  0.00  0.00    -0.033 A 
ATOM     25  C   UNL     1      -1.261   5.644  -0.562  0.00  0.00    +0.004 A 
ATOM     26  C   UNL     1      -1.464   6.697  -1.433  0.00  0.00    +0.000 A 
ATOM     27  C   UNL     1      -2.571   6.707  -2.260  0.00  0.00    +0.000 A 
ATOM     28  C   UNL     1      -3.474   5.661  -2.220  0.00  0.00    +0.000 A 
ATOM     29  C   UNL     1      -3.268   4.605  -1.352  0.00  0.00    +0.004 A 
ENDBRANCH  17  24
ENDBRANCH   3  17
TORSDOF 7
