REMARK  Name = ZINC65365762
REMARK  6 active torsions:
REMARK  status: ('A' for Active; 'I' for Inactive)
REMARK    1  A    between atoms: C_1  and  C_2
REMARK    2  A    between atoms: C_2  and  S_3
REMARK    3  A    between atoms: S_3  and  N_6
REMARK    4  A    between atoms: C_8  and  C_17
REMARK    5  A    between atoms: N_19  and  C_20
REMARK    6  A    between atoms: N_23  and  C_26
REMARK                            x       y       z     vdW  Elec       q    Type
REMARK                         _______ _______ _______ _____ _____    ______ ____
ROOT
ATOM      1  N   UNL     1       0.808  -2.241  -1.384  0.00  0.00    -0.200 N 
ATOM      2  C   UNL     1       1.934  -2.997  -0.808  0.00  0.00    +0.185 C 
ATOM      3  C   UNL     1       1.343  -4.098   0.085  0.00  0.00    +0.277 C 
ATOM      4  O   UNL     1       0.487  -4.924  -0.707  0.00  0.00    -0.476 OA
ATOM      5  C   UNL     1      -0.441  -4.309  -1.487  0.00  0.00    +0.144 A 
ATOM      6  C   UNL     1      -0.304  -2.969  -1.835  0.00  0.00    +0.093 A 
ATOM      7  C   UNL     1      -1.259  -2.357  -2.630  0.00  0.00    +0.028 A 
ATOM      8  C   UNL     1      -2.354  -3.078  -3.070  0.00  0.00    +0.002 A 
ATOM      9  C   UNL     1      -2.496  -4.407  -2.717  0.00  0.00    +0.004 A 
ATOM     10  C   UNL     1      -1.541  -5.024  -1.937  0.00  0.00    +0.047 A 
ENDROOT
BRANCH   3  11
ATOM     11  C   UNL     1       2.458  -4.930   0.665  0.00  0.00    +0.256 C 
ATOM     12  O   UNL     1       2.563  -6.099   0.361  0.00  0.00    -0.272 OA
ATOM     13  N   UNL     1       3.339  -4.374   1.520  0.00  0.00    -0.310 N 
ATOM     14  H   UNL     1       3.256  -3.439   1.763  0.00  0.00    +0.149 HD
BRANCH  13  15
ATOM     15  C   UNL     1       4.423  -5.183   2.084  0.00  0.00    +0.070 C 
ATOM     16  C   UNL     1       3.918  -5.921   3.327  0.00  0.00    +0.003 C 
ATOM     17  C   UNL     1       5.075  -6.701   3.956  0.00  0.00    -0.077 C 
ATOM     18  N   UNL     1       6.146  -5.772   4.337  0.00  0.00    +0.378 N 
ATOM     19  C   UNL     1       6.684  -5.114   3.140  0.00  0.00    -0.077 C 
ATOM     20  C   UNL     1       5.589  -4.273   2.480  0.00  0.00    +0.003 C 
ATOM     21  C   UNL     1       7.220  -6.515   5.010  0.00  0.00    -0.096 C 
ATOM     22  H   UNL     1       5.777  -5.075   4.966  0.00  0.00    -0.082 HD
ENDBRANCH  13  15
ENDBRANCH   3  11
BRANCH   1  23
ATOM     23  S   UNL     1       0.851  -0.589  -1.490  0.00  0.00    +0.045 S 
ATOM     24  O   UNL     1       1.861  -0.193  -0.573  0.00  0.00    -0.155 OA
ATOM     25  O   UNL     1      -0.497  -0.179  -1.306  0.00  0.00    -0.155 OA
BRANCH  23  27
ATOM     26  C   UNL     1       1.457   1.268  -3.405  0.00  0.00    +0.030 C 
ATOM     27  C   UNL     1       1.382  -0.245  -3.191  0.00  0.00    +0.185 C 
ENDBRANCH  23  27
ENDBRANCH   1  23
TORSDOF 4
