REMARK  Name = ZINC36000494
REMARK  8 active torsions:
REMARK  status: ('A' for Active; 'I' for Inactive)
REMARK    1  A    between atoms: C_1  and  C_2
REMARK    2  A    between atoms: C_5  and  S_8
REMARK    3  A    between atoms: S_8  and  N_11
REMARK    4  A    between atoms: N_11  and  C_12
REMARK    5  A    between atoms: C_15  and  N_18
REMARK    6  A    between atoms: C_21  and  C_36
REMARK    7  A    between atoms: N_23  and  C_29
REMARK    8  A    between atoms: C_26  and  C_28
REMARK                            x       y       z     vdW  Elec       q    Type
REMARK                         _______ _______ _______ _____ _____    ______ ____
ROOT
ATOM      1  N   UNL     1       6.203  -4.336  -1.413  0.00  0.00    -0.326 N 
ATOM      2  C   UNL     1       7.420  -4.984  -1.322  0.00  0.00    +0.134 A 
ATOM      3  C   UNL     1       8.069  -5.465  -2.475  0.00  0.00    +0.082 A 
ATOM      4  C   UNL     1       7.773  -5.460  -3.856  0.00  0.00    +0.073 A 
ATOM      5  N   UNL     1       8.743  -6.057  -4.489  0.00  0.00    -0.169 NA
ATOM      6  N   UNL     1       9.715  -6.479  -3.573  0.00  0.00    -0.212 N 
ATOM      7  C   UNL     1       9.308  -6.117  -2.320  0.00  0.00    +0.169 A 
ATOM      8  N   UNL     1       9.813  -6.253  -1.096  0.00  0.00    -0.213 NA
ATOM      9  C   UNL     1       9.170  -5.787  -0.048  0.00  0.00    +0.130 A 
ATOM     10  N   UNL     1       8.008  -5.163  -0.144  0.00  0.00    -0.217 NA
ATOM     11  C   UNL     1       9.784  -5.966   1.316  0.00  0.00    +0.088 C 
ATOM     12  C   UNL     1       6.542  -4.867  -4.490  0.00  0.00    +0.068 C 
ATOM     13  H   UNL     1       5.822  -4.139  -2.283  0.00  0.00    +0.148 HD
ENDROOT
BRANCH   6  14
ATOM     14  C   UNL     1      10.901  -7.156  -3.887  0.00  0.00    +0.086 A 
ATOM     15  C   UNL     1      11.780  -7.524  -2.877  0.00  0.00    +0.029 A 
ATOM     16  C   UNL     1      12.948  -8.192  -3.190  0.00  0.00    +0.002 A 
ATOM     17  C   UNL     1      13.243  -8.494  -4.507  0.00  0.00    +0.002 A 
ATOM     18  C   UNL     1      12.370  -8.129  -5.515  0.00  0.00    +0.022 A 
ATOM     19  C   UNL     1      11.197  -7.465  -5.209  0.00  0.00    +0.066 A 
ATOM     20 CL   UNL     1      10.098  -7.013  -6.474  0.00  0.00    -0.081 Cl
ENDBRANCH   6  14
BRANCH   1  24
ATOM     21  C   UNL     1       2.985  -3.541   1.273  0.00  0.00    +0.077 C 
ATOM     22  C   UNL     1       3.817  -2.360   0.770  0.00  0.00    +0.022 C 
ATOM     23  C   UNL     1       4.564  -2.766  -0.501  0.00  0.00    +0.024 C 
ATOM     24  C   UNL     1       5.488  -3.947  -0.195  0.00  0.00    +0.072 C 
ATOM     25  C   UNL     1       4.655  -5.128   0.307  0.00  0.00    +0.024 C 
ATOM     26  C   UNL     1       3.908  -4.722   1.579  0.00  0.00    +0.022 C 
BRANCH  21  27
ATOM     27  N   UNL     1       2.019  -3.931   0.242  0.00  0.00    -0.187 NA
ATOM     28  H   UNL     1       2.284  -4.539  -0.466  0.00  0.00    +0.148 HD
BRANCH  27  29
ATOM     29  S   UNL     1       0.475  -3.335   0.287  0.00  0.00    +0.059 S 
ATOM     30  O   UNL     1       0.004  -3.524   1.614  0.00  0.00    -0.153 OA
ATOM     31  O   UNL     1      -0.200  -3.869  -0.844  0.00  0.00    -0.153 OA
BRANCH  29  36
ATOM     32  C   UNL     1       0.836   2.626  -0.580  0.00  0.00    +0.044 C 
ATOM     33  C   UNL     1       0.746   1.137  -0.363  0.00  0.00    -0.050 A 
ATOM     34  C   UNL     1       0.608   0.288  -1.446  0.00  0.00    +0.005 A 
ATOM     35  C   UNL     1       0.525  -1.077  -1.247  0.00  0.00    +0.029 A 
ATOM     36  C   UNL     1       0.581  -1.594   0.034  0.00  0.00    +0.105 A 
ATOM     37  C   UNL     1       0.720  -0.746   1.116  0.00  0.00    +0.029 A 
ATOM     38  C   UNL     1       0.807   0.620   0.917  0.00  0.00    +0.005 A 
ENDBRANCH  29  36
ENDBRANCH  27  29
ENDBRANCH  21  27
ENDBRANCH   1  24
TORSDOF 5
