REMARK  Name = ZINC09715041
REMARK  8 active torsions:
REMARK  status: ('A' for Active; 'I' for Inactive)
REMARK    1  A    between atoms: C_1  and  C_2
REMARK    2  A    between atoms: C_4  and  C_31
REMARK    3  A    between atoms: C_5  and  S_9
REMARK    4  A    between atoms: C_6  and  C_8
REMARK    5  A    between atoms: S_9  and  N_12
REMARK    6  A    between atoms: N_12  and  C_13
REMARK    7  A    between atoms: C_17  and  N_19
REMARK    8  A    between atoms: C_20  and  C_30
REMARK                            x       y       z     vdW  Elec       q    Type
REMARK                         _______ _______ _______ _____ _____    ______ ____
ROOT
ATOM      1  C   UNL     1      -3.009   2.800   0.361  0.00  0.00    +0.050 A 
ATOM      2  C   UNL     1      -3.373   4.114   0.629  0.00  0.00    +0.024 A 
ATOM      3  C   UNL     1      -2.416   5.033   1.012  0.00  0.00    +0.004 A 
ATOM      4  C   UNL     1      -1.095   4.648   1.134  0.00  0.00    +0.026 A 
ATOM      5  C   UNL     1      -0.723   3.337   0.862  0.00  0.00    +0.053 A 
ATOM      6  C   UNL     1      -1.682   2.412   0.477  0.00  0.00    +0.050 A 
ENDROOT
BRANCH   5   7
ATOM      7  N   UNL     1       0.617   2.950   0.982  0.00  0.00    -0.265 N 
ATOM      8  C   UNL     1       0.982   2.074   1.958  0.00  0.00    +0.114 A 
ATOM      9  N   UNL     1       2.203   1.671   2.135  0.00  0.00    -0.233 NA
ATOM     10  C   UNL     1       3.217   2.105   1.345  0.00  0.00    +0.078 A 
ATOM     11  C   UNL     1       4.531   1.673   1.537  0.00  0.00    +0.028 A 
ATOM     12  C   UNL     1       5.529   2.139   0.711  0.00  0.00    +0.002 A 
ATOM     13  C   UNL     1       5.247   3.035  -0.311  0.00  0.00    +0.001 A 
ATOM     14  C   UNL     1       3.958   3.477  -0.520  0.00  0.00    +0.015 A 
ATOM     15  C   UNL     1       2.933   3.017   0.304  0.00  0.00    +0.065 A 
ATOM     16  C   UNL     1       1.540   3.454   0.130  0.00  0.00    +0.266 A 
ATOM     17  O   UNL     1       1.229   4.238  -0.748  0.00  0.00    -0.267 OA
ATOM     18  C   UNL     1      -0.087   1.545   2.879  0.00  0.00    +0.086 C 
ENDBRANCH   5   7
BRANCH   1  19
ATOM     19  N   UNL     1      -3.978   1.871  -0.026  0.00  0.00    -0.216 N 
ATOM     20  H   UNL     1      -3.811   1.279  -0.776  0.00  0.00    +0.174 HD
BRANCH  19  21
ATOM     21  S   UNL     1      -5.412   1.779   0.797  0.00  0.00    +0.073 S 
ATOM     22  O   UNL     1      -6.172   0.751   0.176  0.00  0.00    -0.150 OA
ATOM     23  O   UNL     1      -5.086   1.756   2.180  0.00  0.00    -0.150 OA
BRANCH  21  28
ATOM     24  C   UNL     1      -8.369   6.945  -0.191  0.00  0.00    +0.044 C 
ATOM     25  C   UNL     1      -7.630   5.655   0.056  0.00  0.00    -0.050 A 
ATOM     26  C   UNL     1      -7.139   5.369   1.316  0.00  0.00    +0.008 A 
ATOM     27  C   UNL     1      -6.462   4.186   1.542  0.00  0.00    -0.023 A 
ATOM     28  C   UNL     1      -6.276   3.288   0.508  0.00  0.00    +0.114 A 
ATOM     29  C   UNL     1      -6.762   3.575  -0.753  0.00  0.00    -0.023 A 
ATOM     30  C   UNL     1      -7.443   4.757  -0.979  0.00  0.00    +0.008 A 
ATOM     31  C   UNL     1      -6.553   2.599  -1.882  0.00  0.00    +0.046 C 
ATOM     32  C   UNL     1      -5.927   3.875   2.917  0.00  0.00    +0.046 C 
ENDBRANCH  21  28
ENDBRANCH  19  21
ENDBRANCH   1  19
TORSDOF 4
