REMARK  Name = ZINC34889283
REMARK  6 active torsions:
REMARK  status: ('A' for Active; 'I' for Inactive)
REMARK    1  A    between atoms: C_3  and  S_10
REMARK    2  A    between atoms: S_10  and  N_13
REMARK    3  A    between atoms: N_16  and  C_19
REMARK    4  A    between atoms: C_19  and  C_20
REMARK    5  A    between atoms: N_22  and  C_23
REMARK    6  A    between atoms: C_24  and  C_28
REMARK                            x       y       z     vdW  Elec       q    Type
REMARK                         _______ _______ _______ _____ _____    ______ ____
ROOT
ATOM      1  N   UNL     1       4.667   1.993   1.401  0.00  0.00    -0.174 NA
ATOM      2  C   UNL     1       4.434   2.818   2.597  0.00  0.00    +0.125 C 
ATOM      3  C   UNL     1       5.791   3.258   3.157  0.00  0.00    +0.102 C 
ATOM      4  N   UNL     1       6.634   2.075   3.373  0.00  0.00    -0.291 NA
ATOM      5  C   UNL     1       6.920   1.385   2.108  0.00  0.00    +0.102 C 
ATOM      6  C   UNL     1       5.604   0.865   1.507  0.00  0.00    +0.125 C 
ENDROOT
BRANCH   1   7
ATOM      7  S   UNL     1       3.889   2.322  -0.023  0.00  0.00    +0.064 S 
ATOM      8  O   UNL     1       4.688   1.768  -1.059  0.00  0.00    -0.153 OA
ATOM      9  O   UNL     1       3.538   3.699   0.014  0.00  0.00    -0.153 OA
BRANCH   7  12
ATOM     10  C   UNL     1      -0.017   1.380   0.010  0.00  0.00    +0.043 A 
ATOM     11  C   UNL     1       1.171   2.088   0.002  0.00  0.00    +0.034 A 
ATOM     12  C   UNL     1       2.378   1.416  -0.013  0.00  0.00    +0.144 A 
ATOM     13  C   UNL     1       2.401   0.032  -0.021  0.00  0.00    +0.187 A 
ATOM     14  C   UNL     1       1.212  -0.680  -0.013  0.00  0.00    +0.195 A 
ATOM     15  C   UNL     1       0.002  -0.004   0.002  0.00  0.00    +0.161 A 
ATOM     16  F   UNL     1      -1.158  -0.696   0.010  0.00  0.00    -0.202 F 
ATOM     17  F   UNL     1       1.233  -2.031  -0.021  0.00  0.00    -0.199 F 
ATOM     18  F   UNL     1       3.582  -0.624  -0.036  0.00  0.00    -0.200 F 
ENDBRANCH   7  12
ENDBRANCH   1   7
BRANCH   4  19
ATOM     19  C   UNL     1       7.877   2.435   4.068  0.00  0.00    +0.180 C 
BRANCH  19  20
ATOM     20  C   UNL     1       8.598   1.181   4.490  0.00  0.00    +0.232 C 
ATOM     21  O   UNL     1       8.123   0.094   4.237  0.00  0.00    -0.274 OA
ATOM     22  N   UNL     1       9.771   1.267   5.149  0.00  0.00    -0.278 N 
ATOM     23  H   UNL     1      10.151   2.136   5.352  0.00  0.00    +0.155 HD
BRANCH  22  24
ATOM     24  C   UNL     1      10.434   0.113   5.537  0.00  0.00    +0.084 A 
ATOM     25  C   UNL     1      11.636   0.009   6.222  0.00  0.00    +0.065 A 
ATOM     26  C   UNL     1      12.107  -1.328   6.502  0.00  0.00    +0.022 A 
ATOM     27  C   UNL     1      11.322  -2.330   6.066  0.00  0.00    +0.048 A 
ATOM     28  S   UNL     1       9.963  -1.479   5.293  0.00  0.00    -0.081 S 
BRANCH  25  29
ATOM     29  C   UNL     1      12.390   1.195   6.639  0.00  0.00    +0.244 C 
ATOM     30  O   UNL     1      11.965   2.307   6.386  0.00  0.00    -0.270 OA
ATOM     31  N   UNL     1      13.555   1.054   7.303  0.00  0.00    -0.325 N 
ATOM     32  H   UNL     1      13.894   0.168   7.504  0.00  0.00    +0.145 HD
ATOM     33  H   UNL     1      14.054   1.839   7.578  0.00  0.00    +0.145 HD
ENDBRANCH  25  29
ENDBRANCH  22  24
ENDBRANCH  19  20
ENDBRANCH   4  19
TORSDOF 6
