REMARK  Name = ZINC01472216
REMARK  9 active torsions:
REMARK  status: ('A' for Active; 'I' for Inactive)
REMARK    1  A    between atoms: C_1  and  C_2
REMARK    2  A    between atoms: C_2  and  C_3
REMARK    3  A    between atoms: C_3  and  C_4
REMARK    4  A    between atoms: N_7  and  C_9
REMARK    5  A    between atoms: C_16  and  N_30
REMARK    6  A    between atoms: C_17  and  C_28
REMARK    7  A    between atoms: C_18  and  C_20
REMARK    8  A    between atoms: C_23  and  O_27
REMARK    9  A    between atoms: C_24  and  O_26
REMARK                            x       y       z     vdW  Elec       q    Type
REMARK                         _______ _______ _______ _____ _____    ______ ____
ROOT
ATOM      1  C   UNL     1       6.631   1.215   0.242  0.00  0.00    +0.071 A 
ATOM      2  C   UNL     1       6.088   2.418   0.672  0.00  0.00    +0.050 A 
ATOM      3  C   UNL     1       6.600   2.697   1.909  0.00  0.00    +0.230 A 
ATOM      4  N   UNL     1       7.438   1.690   2.238  0.00  0.00    -0.200 N 
ATOM      5  N   UNL     1       7.441   0.772   1.175  0.00  0.00    -0.168 NA
ATOM      6  O   UNL     1       6.267   3.812   2.606  0.00  0.00    -0.423 OA
ATOM      7  C   UNL     1       5.623   4.793   1.942  0.00  0.00    +0.200 C 
ATOM      8  C   UNL     1       5.065   4.636   0.722  0.00  0.00    +0.098 C 
ATOM      9  C   UNL     1       5.106   3.325  -0.024  0.00  0.00    +0.101 C 
ENDROOT
BRANCH   4  10
ATOM     10  C   UNL     1       8.172   1.580   3.427  0.00  0.00    +0.069 A 
ATOM     11  C   UNL     1       8.686   2.718   4.034  0.00  0.00    +0.028 A 
ATOM     12  C   UNL     1       9.406   2.607   5.208  0.00  0.00    +0.002 A 
ATOM     13  C   UNL     1       9.623   1.364   5.773  0.00  0.00    +0.000 A 
ATOM     14  C   UNL     1       9.117   0.228   5.167  0.00  0.00    +0.002 A 
ATOM     15  C   UNL     1       8.392   0.333   3.996  0.00  0.00    +0.028 A 
ENDBRANCH   4  10
BRANCH   9  16
ATOM     16  C   UNL     1       3.738   2.693  -0.018  0.00  0.00    -0.031 A 
ATOM     17  C   UNL     1       3.121   2.396   1.183  0.00  0.00    +0.008 A 
ATOM     18  C   UNL     1       1.863   1.823   1.193  0.00  0.00    +0.049 A 
ATOM     19  C   UNL     1       1.224   1.533  -0.001  0.00  0.00    +0.158 A 
ATOM     20  C   UNL     1       1.845   1.831  -1.210  0.00  0.00    +0.159 A 
ATOM     21  C   UNL     1       3.103   2.412  -1.214  0.00  0.00    +0.053 A 
BRANCH  20  22
ATOM     22  O   UNL     1       1.220   1.554  -2.385  0.00  0.00    -0.503 OA
ATOM     23  H   UNL     1       0.668   2.275  -2.717  0.00  0.00    +0.292 HD
ENDBRANCH  20  22
BRANCH  19  24
ATOM     24  O   UNL     1      -0.011   0.963   0.007  0.00  0.00    -0.503 OA
ATOM     25  H   UNL     1       0.002  -0.004   0.002  0.00  0.00    +0.292 HD
ENDBRANCH  19  24
ENDBRANCH   9  16
BRANCH   7  26
ATOM     26  N   UNL     1       5.528   6.024   2.542  0.00  0.00    -0.328 N 
ATOM     27  H   UNL     1       5.919   6.168   3.419  0.00  0.00    +0.145 HD
ATOM     28  H   UNL     1       5.071   6.750   2.090  0.00  0.00    +0.145 HD
ENDBRANCH   7  26
BRANCH   8  29
ATOM     29  C   UNL     1       4.410   5.754   0.113  0.00  0.00    +0.101 C 
ATOM     30  N   UNL     1       3.891   6.642  -0.369  0.00  0.00    -0.191 NA
ENDBRANCH   8  29
BRANCH   1  31
ATOM     31  C   UNL     1       6.341   0.534  -1.071  0.00  0.00    +0.057 C 
BRANCH  31  33
ATOM     32  C   UNL     1       7.044   0.326  -3.459  0.00  0.00    +0.004 C 
ATOM     33  C   UNL     1       7.338   1.017  -2.127  0.00  0.00    +0.003 C 
ENDBRANCH  31  33
ENDBRANCH   1  31
TORSDOF 8
