REMARK  Name = ZINC51160611
REMARK  5 active torsions:
REMARK  status: ('A' for Active; 'I' for Inactive)
REMARK    1  A    between atoms: C_8  and  S_10
REMARK    2  A    between atoms: S_10  and  C_11
REMARK    3  A    between atoms: C_14  and  C_23
REMARK    4  A    between atoms: N_15  and  C_16
REMARK    5  A    between atoms: C_16  and  C_17
REMARK                            x       y       z     vdW  Elec       q    Type
REMARK                         _______ _______ _______ _____ _____    ______ ____
ROOT
ATOM      1  C   UNL     1       5.467  -3.083  -0.067  0.00  0.00    +0.201 A 
ATOM      2  N   UNL     1       5.902  -1.845  -0.059  0.00  0.00    -0.122 NA
ATOM      3  N   UNL     1       7.187  -1.828  -0.073  0.00  0.00    -0.128 NA
ATOM      4  C   UNL     1       7.652  -3.058  -0.091  0.00  0.00    +0.172 A 
ATOM      5  N   UNL     1       6.563  -3.900  -0.081  0.00  0.00    -0.299 N 
ENDROOT
BRANCH   4   6
ATOM      6  C   UNL     1       9.068  -3.458  -0.111  0.00  0.00    +0.056 A 
ATOM      7  C   UNL     1      10.183  -2.708   0.166  0.00  0.00    +0.019 A 
ATOM      8  C   UNL     1      11.420  -3.307   0.081  0.00  0.00    +0.008 A 
ATOM      9  C   UNL     1      11.499  -4.615  -0.273  0.00  0.00    +0.046 A 
ATOM     10  S   UNL     1       9.782  -5.050  -0.494  0.00  0.00    -0.094 S 
ENDBRANCH   4   6
BRANCH   1  11
ATOM     11  S   UNL     1       3.781  -3.598  -0.053  0.00  0.00    +0.009 S 
BRANCH  11  19
ATOM     12  C   UNL     1      -0.017   1.373   0.010  0.00  0.00    +0.002 A 
ATOM     13  C   UNL     1       1.170   2.091   0.002  0.00  0.00    +0.004 A 
ATOM     14  C   UNL     1       2.384   1.435  -0.013  0.00  0.00    +0.048 A 
ATOM     15  C   UNL     1       2.421   0.051  -0.021  0.00  0.00    +0.156 A 
ATOM     16  C   UNL     1       1.223  -0.680  -0.013  0.00  0.00    +0.110 A 
ATOM     17  C   UNL     1       0.002  -0.004   0.002  0.00  0.00    +0.031 A 
ATOM     18  N   UNL     1       1.569  -1.996  -0.024  0.00  0.00    -0.203 NA
ATOM     19  C   UNL     1       2.875  -2.087  -0.037  0.00  0.00    +0.266 A 
ATOM     20  O   UNL     1       3.423  -0.859  -0.035  0.00  0.00    -0.430 OA
ENDBRANCH  11  19
ENDBRANCH   1  11
BRANCH   5  21
ATOM     21  C   UNL     1       6.577  -5.365  -0.088  0.00  0.00    +0.157 C 
BRANCH  21  22
ATOM     22  C   UNL     1       6.567  -5.868  -1.533  0.00  0.00    +0.138 C 
ATOM     23  C   UNL     1       6.673  -7.413  -1.565  0.00  0.00    +0.035 C 
ATOM     24  C   UNL     1       6.015  -7.725  -2.937  0.00  0.00    +0.031 C 
ATOM     25  C   UNL     1       4.932  -6.630  -3.038  0.00  0.00    +0.160 C 
ATOM     26  O   UNL     1       5.312  -5.562  -2.160  0.00  0.00    -0.375 OA
ENDBRANCH  21  22
ENDBRANCH   5  21
TORSDOF 5
