REMARK  Name = ZINC12471918
REMARK  8 active torsions:
REMARK  status: ('A' for Active; 'I' for Inactive)
REMARK    1  A    between atoms: C_1  and  O_2
REMARK    2  A    between atoms: O_2  and  C_3
REMARK    3  A    between atoms: C_7  and  C_11
REMARK    4  A    between atoms: C_8  and  O_9
REMARK    5  A    between atoms: O_9  and  C_10
REMARK    6  A    between atoms: C_11  and  N_54
REMARK    7  A    between atoms: C_17  and  C_19
REMARK    8  A    between atoms: C_19  and  C_20
REMARK                            x       y       z     vdW  Elec       q    Type
REMARK                         _______ _______ _______ _____ _____    ______ ____
ROOT
ATOM      1  C   UNL     1      -3.838  -0.598  -1.119  0.00  0.00    -0.058 C 
ATOM      2  C   UNL     1      -4.976   0.382  -1.410  0.00  0.00    +0.085 C 
ATOM      3  N   UNL     1      -4.894   1.527  -0.507  0.00  0.00    -0.318 N 
ATOM      4  C   UNL     1      -3.784   1.841   0.169  0.00  0.00    +0.200 C 
ATOM      5  O   UNL     1      -3.793   2.828   0.875  0.00  0.00    -0.278 OA
ATOM      6  C   UNL     1      -2.525   1.024   0.090  0.00  0.00    +0.029 C 
ATOM      7  H   UNL     1      -5.680   2.084  -0.392  0.00  0.00    +0.149 HD
ATOM      8  N   UNL     1      -2.572   0.162  -1.106  0.00  0.00    +0.391 N 
ATOM      9  H   UNL     1      -2.526   0.750  -1.946  0.00  0.00    -0.080 HD
ENDROOT
BRANCH   8  10
ATOM     10  C   UNL     1      -1.421  -0.769  -1.105  0.00  0.00    -0.038 C 
BRANCH  10  15
ATOM     11  C   UNL     1      -1.318  -2.180  -4.616  0.00  0.00    +0.162 A 
ATOM     12  C   UNL     1      -1.794  -3.465  -4.405  0.00  0.00    +0.049 A 
ATOM     13  C   UNL     1      -2.147  -3.871  -3.132  0.00  0.00    +0.004 A 
ATOM     14  C   UNL     1      -2.026  -2.999  -2.066  0.00  0.00    +0.005 A 
ATOM     15  C   UNL     1      -1.551  -1.717  -2.269  0.00  0.00    -0.019 A 
ATOM     16  C   UNL     1      -1.202  -1.301  -3.544  0.00  0.00    +0.163 A 
BRANCH  11  18
ATOM     17  C   UNL     1      -1.122  -2.733  -6.920  0.00  0.00    +0.277 C 
ATOM     18  O   UNL     1      -0.971  -1.779  -5.868  0.00  0.00    -0.491 OA
ENDBRANCH  11  18
BRANCH  16  19
ATOM     19  O   UNL     1      -0.741  -0.037  -3.746  0.00  0.00    -0.491 OA
ATOM     20  C   UNL     1       0.671   0.161  -3.647  0.00  0.00    +0.277 C 
ENDBRANCH  16  19
ENDBRANCH  10  15
ENDBRANCH   8  10
BRANCH   6  21
ATOM     21  C   UNL     1      -1.319   1.959  -0.017  0.00  0.00    +0.092 C 
BRANCH  21  22
ATOM     22  C   UNL     1      -1.425   2.773  -1.280  0.00  0.00    +0.237 C 
ATOM     23  O   UNL     1      -2.317   2.551  -2.072  0.00  0.00    -0.274 OA
ATOM     24  N   UNL     1      -0.533   3.752  -1.528  0.00  0.00    -0.181 N 
ATOM     25  C   UNL     1      -0.623   4.562  -2.752  0.00  0.00    +0.140 C 
ATOM     26  C   UNL     1      -0.561   6.043  -2.359  0.00  0.00    +0.024 C 
ATOM     27  C   UNL     1       0.676   6.276  -1.486  0.00  0.00    +0.032 C 
ATOM     28  C   UNL     1       0.584   5.406  -0.230  0.00  0.00    +0.190 C 
ATOM     29  O   UNL     1       0.515   4.032  -0.609  0.00  0.00    -0.277 OA
ENDBRANCH  21  22
ENDBRANCH   6  21
TORSDOF 6
