REMARK  Name = ZINC63269384
REMARK  7 active torsions:
REMARK  status: ('A' for Active; 'I' for Inactive)
REMARK    1  A    between atoms: C_1  and  C_2
REMARK    2  A    between atoms: C_2  and  C_3
REMARK    3  A    between atoms: C_2  and  N_4
REMARK    4  A    between atoms: N_7  and  N_8
REMARK    5  A    between atoms: C_9  and  C_11
REMARK    6  A    between atoms: N_18  and  C_26
REMARK    7  A    between atoms: C_19  and  C_20
REMARK                            x       y       z     vdW  Elec       q    Type
REMARK                         _______ _______ _______ _____ _____    ______ ____
ROOT
ATOM      1  C   UNL     1      -6.286  -1.058   0.613  0.00  0.00    +0.071 A 
ATOM      2  C   UNL     1      -7.124  -0.093  -0.120  0.00  0.00    +0.013 A 
ATOM      3  C   UNL     1      -7.173   0.325  -1.449  0.00  0.00    +0.011 A 
ATOM      4  C   UNL     1      -8.098   1.271  -1.833  0.00  0.00    +0.001 A 
ATOM      5  C   UNL     1      -8.979   1.806  -0.903  0.00  0.00    +0.002 A 
ATOM      6  C   UNL     1      -8.941   1.402   0.413  0.00  0.00    +0.026 A 
ATOM      7  C   UNL     1      -8.014   0.448   0.822  0.00  0.00    +0.050 A 
ATOM      8  N   UNL     1      -7.747  -0.137   2.043  0.00  0.00    -0.342 N 
ATOM      9  C   UNL     1      -6.728  -1.036   1.928  0.00  0.00    +0.062 A 
ATOM     10  C   UNL     1      -8.463   0.160   3.287  0.00  0.00    +0.149 C 
ENDROOT
BRANCH   9  11
ATOM     11  C   UNL     1      -6.179  -1.853   3.028  0.00  0.00    -0.001 A 
ATOM     12  C   UNL     1      -5.921  -1.272   4.272  0.00  0.00    +0.010 A 
ATOM     13  C   UNL     1      -5.409  -2.042   5.296  0.00  0.00    +0.001 A 
ATOM     14  C   UNL     1      -5.149  -3.385   5.093  0.00  0.00    +0.000 A 
ATOM     15  C   UNL     1      -5.401  -3.967   3.863  0.00  0.00    +0.001 A 
ATOM     16  C   UNL     1      -5.920  -3.211   2.832  0.00  0.00    +0.010 A 
ENDBRANCH   9  11
BRANCH   1  18
ATOM     17  N   UNL     1      -3.940  -1.414   0.052  0.00  0.00    -0.229 N 
ATOM     18  C   UNL     1      -5.205  -1.881   0.061  0.00  0.00    +0.263 C 
ATOM     19  O   UNL     1      -5.449  -2.985  -0.388  0.00  0.00    -0.269 OA
ATOM     20  H   UNL     1      -3.745  -0.534   0.409  0.00  0.00    +0.173 HD
BRANCH  17  24
ATOM     21  N   UNL     1      -1.372  -0.511   0.012  0.00  0.00    -0.296 N 
ATOM     22  C   UNL     1      -1.643  -1.734  -0.485  0.00  0.00    +0.316 C 
ATOM     23  O   UNL     1      -0.747  -2.417  -0.942  0.00  0.00    -0.251 OA
ATOM     24  N   UNL     1      -2.908  -2.201  -0.475  0.00  0.00    -0.218 N 
ATOM     25  H   UNL     1      -2.087   0.033   0.377  0.00  0.00    +0.151 HD
ATOM     26  H   UNL     1      -3.103  -3.081  -0.833  0.00  0.00    +0.174 HD
BRANCH  21  28
ATOM     27  C   UNL     1      -0.019   1.526   0.010  0.00  0.00    +0.027 C 
ATOM     28  C   UNL     1       0.002  -0.004   0.002  0.00  0.00    +0.068 C 
ATOM     29  C   UNL     1       0.742  -0.511   1.242  0.00  0.00    +0.027 C 
ENDBRANCH  21  28
ENDBRANCH  17  24
ENDBRANCH   1  18
TORSDOF 4
