REMARK  Name = ZINC63194708
REMARK  6 active torsions:
REMARK  status: ('A' for Active; 'I' for Inactive)
REMARK    1  A    between atoms: C_1  and  C_2
REMARK    2  A    between atoms: C_2  and  C_4
REMARK    3  A    between atoms: C_2  and  N_25
REMARK    4  A    between atoms: N_10  and  C_11
REMARK    5  A    between atoms: C_11  and  C_12
REMARK    6  A    between atoms: N_14  and  C_15
REMARK                            x       y       z     vdW  Elec       q    Type
REMARK                         _______ _______ _______ _____ _____    ______ ____
ROOT
ATOM      1  C   UNL     1      -0.435   1.232   2.381  0.00  0.00    +0.180 C 
ENDROOT
BRANCH   1   7
ATOM      2  C   UNL     1       0.043  -0.539   0.803  0.00  0.00    +0.042 C 
ATOM      3  C   UNL     1      -0.161  -2.029   0.520  0.00  0.00    +0.017 C 
ATOM      4  C   UNL     1       0.559  -2.851   1.593  0.00  0.00    +0.003 C 
ATOM      5  C   UNL     1       0.021  -2.458   2.972  0.00  0.00    +0.015 C 
ATOM      6  C   UNL     1       0.220  -0.956   3.183  0.00  0.00    +0.085 C 
ATOM      7  N   UNL     1      -0.488  -0.214   2.132  0.00  0.00    -0.293 NA
BRANCH   2   9
ATOM      8  C   UNL     1      -0.151  -0.067  -1.643  0.00  0.00    -0.013 C 
ATOM      9  C   UNL     1      -0.691   0.286  -0.256  0.00  0.00    -0.061 C 
BRANCH   9  10
ATOM     10  N   UNL     1      -2.128  -0.014  -0.200  0.00  0.00    +0.381 N 
ATOM     11  H   UNL     1      -2.613   0.530  -0.898  0.00  0.00    -0.090 HD
ATOM     12  H   UNL     1      -2.274  -0.996  -0.378  0.00  0.00    -0.090 HD
ATOM     13  H   UNL     1      -2.485   0.218   0.715  0.00  0.00    -0.090 HD
ENDBRANCH   9  10
ENDBRANCH   2   9
ENDBRANCH   1   7
BRANCH   1  14
ATOM     14  C   UNL     1      -1.320   1.573   3.553  0.00  0.00    +0.227 C 
ATOM     15  O   UNL     1      -1.934   0.697   4.124  0.00  0.00    -0.274 OA
ATOM     16  N   UNL     1      -1.428   2.852   3.966  0.00  0.00    -0.308 N 
ATOM     17  H   UNL     1      -0.936   3.552   3.509  0.00  0.00    +0.149 HD
BRANCH  16  18
ATOM     18  C   UNL     1      -2.288   3.183   5.105  0.00  0.00    +0.113 C 
ATOM     19  C   UNL     1      -2.939   4.561   4.847  0.00  0.00    +0.189 C 
ATOM     20  S   UNL     1      -2.953   5.277   6.548  0.00  0.00    -0.028 S 
ATOM     21  O   UNL     1      -4.075   4.775   7.261  0.00  0.00    -0.174 OA
ATOM     22  O   UNL     1      -2.736   6.679   6.470  0.00  0.00    -0.174 OA
ATOM     23  C   UNL     1      -1.420   4.453   7.164  0.00  0.00    +0.187 C 
ATOM     24  C   UNL     1      -1.454   3.128   6.376  0.00  0.00    +0.123 C 
ATOM     25 CL   UNL     1       0.236   2.679   5.935  0.00  0.00    -0.118 Cl
ENDBRANCH  16  18
ENDBRANCH   1  14
TORSDOF 5
