REMARK  Name = ZINC02426168
REMARK  6 active torsions:
REMARK  status: ('A' for Active; 'I' for Inactive)
REMARK    1  A    between atoms: C_1  and  C_2
REMARK    2  A    between atoms: C_2  and  C_32
REMARK    3  A    between atoms: C_9  and  C_20
REMARK    4  A    between atoms: C_9  and  N_24
REMARK    5  A    between atoms: N_12  and  C_13
REMARK    6  A    between atoms: C_25  and  C_27
REMARK                            x       y       z     vdW  Elec       q    Type
REMARK                         _______ _______ _______ _____ _____    ______ ____
ROOT
ATOM      1  C   UNL     1       4.152   0.161   1.285  0.00  0.00    +0.011 C 
ATOM      2  C   UNL     1       4.011  -1.273   0.770  0.00  0.00    -0.023 C 
ATOM      3  C   UNL     1       2.880  -1.975   1.531  0.00  0.00    +0.058 C 
ATOM      4  C   UNL     1       1.581  -1.269   1.200  0.00  0.00    +0.024 C 
ATOM      5  C   UNL     1       1.411  -0.607   0.024  0.00  0.00    +0.053 C 
ATOM      6  C   UNL     1       2.397  -0.525  -0.970  0.00  0.00    +0.164 C 
ATOM      7  O   UNL     1       2.206   0.103  -1.992  0.00  0.00    -0.292 OA
ATOM      8  C   UNL     1       3.706  -1.245  -0.728  0.00  0.00    +0.086 C 
ATOM      9  C   UNL     1       0.021  -0.032   0.047  0.00  0.00    +0.237 C 
ATOM     10  C   UNL     1      -0.524  -0.484   1.390  0.00  0.00    +0.257 C 
ATOM     11  O   UNL     1      -1.624  -0.254   1.844  0.00  0.00    -0.272 OA
ATOM     12  N   UNL     1       0.467  -1.194   1.974  0.00  0.00    -0.269 N 
ATOM     13  C   UNL     1       5.322  -2.026   1.003  0.00  0.00    +0.011 C 
ENDROOT
BRANCH  12  14
ATOM     14  C   UNL     1       0.351  -1.816   3.296  0.00  0.00    +0.081 C 
ATOM     15  C   UNL     1      -0.765  -2.880   3.251  0.00  0.00    +0.023 C 
ATOM     16  C   UNL     1      -0.553  -3.843   4.388  0.00  0.00    +0.002 C 
ATOM     17  C   UNL     1      -1.361  -3.461   5.642  0.00  0.00    +0.000 C 
ATOM     18  C   UNL     1      -1.342  -1.947   5.928  0.00  0.00    +0.000 C 
ATOM     19  C   UNL     1       0.018  -1.339   5.719  0.00  0.00    +0.002 C 
ATOM     20  C   UNL     1       0.090  -0.779   4.283  0.00  0.00    +0.023 C 
ENDBRANCH  12  14
BRANCH   9  21
ATOM     21  C   UNL     1      -0.819  -0.604  -1.097  0.00  0.00    +0.424 C 
ATOM     22  F   UNL     1      -0.230  -0.268  -2.321  0.00  0.00    -0.167 F 
ATOM     23  F   UNL     1      -0.884  -1.996  -0.977  0.00  0.00    -0.167 F 
ATOM     24  F   UNL     1      -2.110  -0.070  -1.039  0.00  0.00    -0.167 F 
ENDBRANCH   9  21
BRANCH   9  25
ATOM     25  N   UNL     1       0.066   1.430  -0.027  0.00  0.00    -0.284 N 
ATOM     26  C   UNL     1       0.668   2.136   0.951  0.00  0.00    +0.281 C 
ATOM     27  O   UNL     1       1.257   1.558   1.845  0.00  0.00    -0.267 OA
ATOM     28  H   UNL     1      -0.341   1.891  -0.777  0.00  0.00    +0.151 HD
BRANCH  26  29
ATOM     29  C   UNL     1       0.612   3.602   0.937  0.00  0.00    +0.189 A 
ATOM     30  C   UNL     1       1.176   4.435   1.861  0.00  0.00    +0.054 A 
ATOM     31  C   UNL     1       0.877   5.746   1.458  0.00  0.00    +0.042 A 
ATOM     32  C   UNL     1       0.154   5.657   0.320  0.00  0.00    +0.196 A 
ATOM     33  O   UNL     1       0.001   4.364   0.006  0.00  0.00    -0.458 OA
ENDBRANCH  26  29
ENDBRANCH   9  25
TORSDOF 4
