REMARK  Name = ZINC06182677
REMARK  9 active torsions:
REMARK  status: ('A' for Active; 'I' for Inactive)
REMARK    1  A    between atoms: C_1  and  C_2
REMARK    2  A    between atoms: C_2  and  C_3
REMARK    3  A    between atoms: C_2  and  C_4
REMARK    4  A    between atoms: C_2  and  S_5
REMARK    5  A    between atoms: S_5  and  C_8
REMARK    6  A    between atoms: C_16  and  N_17
REMARK    7  A    between atoms: C_23  and  C_24
REMARK    8  A    between atoms: C_23  and  C_30
REMARK    9  A    between atoms: C_23  and  N_67
REMARK                            x       y       z     vdW  Elec       q    Type
REMARK                         _______ _______ _______ _____ _____    ______ ____
ROOT
ATOM      1  C   UNL     1       1.148   0.159  -0.724  0.00  0.00    +0.146 A 
ATOM      2  C   UNL     1       2.143  -0.803  -0.869  0.00  0.00    +0.145 A 
ATOM      3  N   UNL     1       3.380  -0.447  -1.147  0.00  0.00    -0.217 NA
ATOM      4  C   UNL     1       3.714   0.840  -1.297  0.00  0.00    +0.256 A 
ATOM      5  N   UNL     1       4.869   1.438  -1.574  0.00  0.00    -0.176 NA
ATOM      6  C   UNL     1       4.691   2.757  -1.621  0.00  0.00    +0.239 A 
ATOM      7  N   UNL     1       3.429   3.038  -1.377  0.00  0.00    -0.126 NA
ATOM      8  N   UNL     1       2.771   1.819  -1.164  0.00  0.00    -0.179 N 
ATOM      9  C   UNL     1       1.478   1.492  -0.881  0.00  0.00    +0.148 A 
ATOM     10  N   UNL     1       5.687   3.694  -1.885  0.00  0.00    -0.302 N 
ATOM     11  C   UNL     1       5.323   4.541  -3.029  0.00  0.00    +0.089 C 
ATOM     12  C   UNL     1       6.403   5.606  -3.236  0.00  0.00    -0.058 C 
ATOM     13  C   UNL     1       8.062   4.100  -2.320  0.00  0.00    -0.058 C 
ATOM     14  C   UNL     1       6.982   3.036  -2.112  0.00  0.00    +0.089 C 
ATOM     15  N   UNL     1       7.694   4.931  -3.486  0.00  0.00    +0.389 N 
ATOM     16  H   UNL     1       7.601   4.327  -4.311  0.00  0.00    -0.080 HD
ENDROOT
BRANCH   1  17
ATOM     17  S   UNL     1      -0.507  -0.315  -0.351  0.00  0.00    +0.006 S 
ATOM     18  O   UNL     1      -0.529  -1.725  -0.529  0.00  0.00    -0.169 OA
ATOM     19  O   UNL     1      -1.317   0.530  -1.157  0.00  0.00    -0.169 OA
BRANCH  17  21
ATOM     20  C   UNL     1      -0.644   1.614   1.584  0.00  0.00    +0.035 C 
ATOM     21  C   UNL     1      -0.727   0.097   1.402  0.00  0.00    +0.085 C 
ATOM     22  C   UNL     1       0.373  -0.576   2.225  0.00  0.00    +0.035 C 
ATOM     23  C   UNL     1      -2.095  -0.400   1.875  0.00  0.00    +0.035 C 
ENDBRANCH  17  21
ENDBRANCH   1  17
BRANCH   9  24
ATOM     24  N   UNL     1       0.518   2.473  -0.750  0.00  0.00    -0.341 N 
ATOM     25  H   UNL     1      -0.408   2.228  -0.603  0.00  0.00    +0.144 HD
ATOM     26  H   UNL     1       0.770   3.408  -0.806  0.00  0.00    +0.144 HD
ENDBRANCH   9  24
BRANCH  15  27
ATOM     27  C   UNL     1       8.748   5.936  -3.743  0.00  0.00    -0.007 C 
BRANCH  27  28
ATOM     28  C   UNL     1      10.061   5.227  -3.954  0.00  0.00    -0.057 A 
ATOM     29  C   UNL     1      10.120   4.111  -4.767  0.00  0.00    +0.002 A 
ATOM     30  C   UNL     1      11.326   3.463  -4.965  0.00  0.00    +0.000 A 
ATOM     31  C   UNL     1      12.470   3.926  -4.342  0.00  0.00    +0.000 A 
ATOM     32  C   UNL     1      12.409   5.039  -3.524  0.00  0.00    +0.000 A 
ATOM     33  C   UNL     1      11.205   5.690  -3.331  0.00  0.00    +0.002 A 
ENDBRANCH  27  28
BRANCH  27  34
ATOM     34  C   UNL     1       8.391   6.712  -4.984  0.00  0.00    -0.057 A 
ATOM     35  C   UNL     1       7.819   6.065  -6.063  0.00  0.00    +0.002 A 
ATOM     36  C   UNL     1       7.487   6.778  -7.200  0.00  0.00    +0.000 A 
ATOM     37  C   UNL     1       7.735   8.137  -7.261  0.00  0.00    +0.000 A 
ATOM     38  C   UNL     1       8.312   8.783  -6.184  0.00  0.00    +0.000 A 
ATOM     39  C   UNL     1       8.640   8.071  -5.045  0.00  0.00    +0.002 A 
ENDBRANCH  27  34
ENDBRANCH  15  27
TORSDOF 6
