REMARK  Name = ZINC67588812
REMARK  4 active torsions:
REMARK  status: ('A' for Active; 'I' for Inactive)
REMARK    1  A    between atoms: C_8  and  C_10
REMARK    2  A    between atoms: C_12  and  C_19
REMARK    3  A    between atoms: C_13  and  C_17
REMARK    4  A    between atoms: C_14  and  N_16
REMARK                            x       y       z     vdW  Elec       q    Type
REMARK                         _______ _______ _______ _____ _____    ______ ____
ROOT
ATOM      1  C   UNL     1       3.796  -3.330  -0.052  0.00  0.00    +0.109 A 
ATOM      2  C   UNL     1       5.185  -3.213  -0.059  0.00  0.00    +0.043 A 
ATOM      3  C   UNL     1       5.966  -4.367  -0.072  0.00  0.00    +0.025 A 
ATOM      4  C   UNL     1       5.309  -5.618  -0.078  0.00  0.00    +0.100 A 
ATOM      5  C   UNL     1       3.904  -5.647  -0.071  0.00  0.00    +0.135 A 
ATOM      6  N   UNL     1       3.208  -4.524  -0.053  0.00  0.00    -0.228 NA
ENDROOT
BRANCH   1  14
ATOM      7  C   UNL     1      -0.017   1.363   0.009  0.00  0.00    +0.001 A 
ATOM      8  C   UNL     1       1.171   2.082   0.002  0.00  0.00    +0.004 A 
ATOM      9  C   UNL     1       2.387   1.433  -0.013  0.00  0.00    +0.047 A 
ATOM     10  C   UNL     1       2.430   0.044  -0.021  0.00  0.00    +0.136 A 
ATOM     11  C   UNL     1       1.224  -0.679  -0.013  0.00  0.00    +0.021 A 
ATOM     12  C   UNL     1       0.002  -0.004   0.002  0.00  0.00    +0.011 A 
ATOM     13  C   UNL     1       1.610  -2.092  -0.025  0.00  0.00    +0.060 A 
ATOM     14  C   UNL     1       2.965  -2.111  -0.038  0.00  0.00    +0.154 A 
ATOM     15  O   UNL     1       3.440  -0.849  -0.035  0.00  0.00    -0.453 OA
ENDBRANCH   1  14
BRANCH   3  16
ATOM     16  C   UNL     1       7.444  -4.284  -0.080  0.00  0.00    +0.090 A 
ATOM     17  C   UNL     1       8.184  -3.142  -0.071  0.00  0.00    +0.112 A 
ATOM     18  N   UNL     1       9.494  -3.523  -0.084  0.00  0.00    -0.350 N 
ATOM     19  H   UNL     1      10.264  -2.932  -0.081  0.00  0.00    +0.166 HD
ATOM     20  C   UNL     1       9.522  -4.880  -0.101  0.00  0.00    +0.197 A 
ATOM     21  N   UNL     1       8.299  -5.328  -0.093  0.00  0.00    -0.236 NA
ENDBRANCH   3  16
BRANCH   5  22
ATOM     22  N   UNL     1       3.243  -6.863  -0.077  0.00  0.00    -0.342 N 
ATOM     23  H   UNL     1       3.749  -7.690  -0.086  0.00  0.00    +0.144 HD
ATOM     24  H   UNL     1       2.273  -6.888  -0.071  0.00  0.00    +0.144 HD
ENDBRANCH   5  22
BRANCH   4  25
ATOM     25  C   UNL     1       6.062  -6.836  -0.092  0.00  0.00    +0.103 C 
ATOM     26  N   UNL     1       6.660  -7.802  -0.103  0.00  0.00    -0.191 NA
ENDBRANCH   4  25
TORSDOF 4
