REMARK  Name = ZINC36039952
REMARK  15 active torsions:
REMARK  status: ('A' for Active; 'I' for Inactive)
REMARK    1  A    between atoms: C_1  and  N_2
REMARK    2  A    between atoms: N_2  and  C_3
REMARK    3  A    between atoms: N_2  and  C_4
REMARK    4  A    between atoms: C_4  and  C_5
REMARK    5  A    between atoms: C_5  and  N_6
REMARK    6  A    between atoms: N_6  and  C_7
REMARK    7  A    between atoms: C_7  and  C_8
REMARK    8  A    between atoms: C_11  and  S_17
REMARK    9  A    between atoms: N_12  and  C_13
REMARK   10  A    between atoms: C_13  and  C_14
REMARK   11  A    between atoms: C_14  and  O_15
REMARK   12  A    between atoms: O_15  and  C_16
REMARK   13  A    between atoms: S_17  and  C_20
REMARK   14  A    between atoms: C_20  and  C_21
REMARK   15  A    between atoms: C_28  and  C_30
REMARK                            x       y       z     vdW  Elec       q    Type
REMARK                         _______ _______ _______ _____ _____    ______ ____
ROOT
ATOM      1  C   UNL     1      -3.213  -3.488  -2.433  0.00  0.00    +0.057 A 
ATOM      2  C   UNL     1      -2.014  -4.077  -2.607  0.00  0.00    +0.137 A 
ATOM      3  N   UNL     1      -2.192  -5.160  -3.377  0.00  0.00    -0.220 NA
ATOM      4  C   UNL     1      -3.455  -5.265  -3.688  0.00  0.00    +0.252 A 
ATOM      5  N   UNL     1      -4.128  -4.245  -3.114  0.00  0.00    -0.310 N 
ENDROOT
BRANCH   4   6
ATOM      6  S   UNL     1      -4.166  -6.532  -4.684  0.00  0.00    +0.034 S 
ATOM      7  O   UNL     1      -5.332  -5.943  -5.242  0.00  0.00    -0.166 OA
ATOM      8  O   UNL     1      -3.106  -6.973  -5.521  0.00  0.00    -0.166 OA
BRANCH   6   9
ATOM      9  C   UNL     1      -4.625  -7.842  -3.516  0.00  0.00    +0.212 C 
BRANCH   9  10
ATOM     10  C   UNL     1      -5.250  -8.989  -4.268  0.00  0.00    -0.008 A 
ATOM     11  C   UNL     1      -6.615  -9.014  -4.482  0.00  0.00    +0.007 A 
ATOM     12  C   UNL     1      -7.188 -10.066  -5.171  0.00  0.00    +0.000 A 
ATOM     13  C   UNL     1      -6.396 -11.095  -5.647  0.00  0.00    +0.001 A 
ATOM     14  C   UNL     1      -5.031 -11.071  -5.433  0.00  0.00    +0.020 A 
ATOM     15  C   UNL     1      -4.456 -10.015  -4.748  0.00  0.00    +0.046 A 
ATOM     16 CL   UNL     1      -2.740  -9.982  -4.484  0.00  0.00    -0.083 Cl
ENDBRANCH   9  10
ENDBRANCH   6   9
ENDBRANCH   4   6
BRANCH   1  17
ATOM     17  C   UNL     1      -3.494  -2.239  -1.638  0.00  0.00    +0.162 C 
BRANCH  17  18
ATOM     18  N   UNL     1      -2.455  -2.065  -0.619  0.00  0.00    -0.297 N 
ATOM     19  C   UNL     1      -2.563  -2.694   0.568  0.00  0.00    +0.219 C 
ATOM     20  O   UNL     1      -3.469  -3.478   0.758  0.00  0.00    -0.275 OA
BRANCH  19  21
ATOM     21  C   UNL     1      -1.559  -2.424   1.658  0.00  0.00    +0.075 C 
ATOM     22  C   UNL     1      -0.236  -3.154   1.351  0.00  0.00    +0.013 C 
ATOM     23  C   UNL     1       0.269  -3.625   2.737  0.00  0.00    +0.001 C 
ATOM     24  C   UNL     1      -1.040  -4.037   3.456  0.00  0.00    +0.001 C 
ATOM     25  C   UNL     1      -2.070  -2.985   2.997  0.00  0.00    +0.013 C 
ENDBRANCH  19  21
BRANCH  18  26
ATOM     26  C   UNL     1      -1.299  -1.208  -0.891  0.00  0.00    +0.089 C 
BRANCH  26  27
ATOM     27  C   UNL     1      -1.659   0.247  -0.585  0.00  0.00    -0.060 C 
BRANCH  27  29
ATOM     28  C   UNL     1      -0.881   2.514  -0.679  0.00  0.00    -0.097 C 
ATOM     29  N   UNL     1      -0.500   1.107  -0.858  0.00  0.00    +0.377 N 
ATOM     30  C   UNL     1       0.587   0.772   0.072  0.00  0.00    -0.097 C 
ATOM     31  H   UNL     1      -0.188   0.960  -1.806  0.00  0.00    -0.083 HD
ENDBRANCH  27  29
ENDBRANCH  26  27
ENDBRANCH  18  26
ENDBRANCH  17  18
ENDBRANCH   1  17
BRANCH   5  32
ATOM     32  C   UNL     1      -5.569  -3.993  -3.205  0.00  0.00    +0.153 C 
BRANCH  32  33
ATOM     33  C   UNL     1      -5.848  -3.046  -4.373  0.00  0.00    +0.181 C 
BRANCH  33  34
ATOM     34  O   UNL     1      -7.240  -2.723  -4.403  0.00  0.00    -0.381 OA
ATOM     35  C   UNL     1      -7.609  -1.839  -5.463  0.00  0.00    +0.194 C 
ENDBRANCH  33  34
ENDBRANCH  32  33
ENDBRANCH   5  32
TORSDOF 12
