REMARK  Name = ZINC12722801
REMARK  5 active torsions:
REMARK  status: ('A' for Active; 'I' for Inactive)
REMARK    1  A    between atoms: C_1  and  C_2
REMARK    2  A    between atoms: N_10  and  N_14
REMARK    3  A    between atoms: C_15  and  C_17
REMARK    4  A    between atoms: C_17  and  N_18
REMARK    5  A    between atoms: C_25  and  C_28
REMARK                            x       y       z     vdW  Elec       q    Type
REMARK                         _______ _______ _______ _____ _____    ______ ____
ROOT
ATOM      1  N   UNL     1       0.002  -0.004   0.002  0.00  0.00    -0.222 N 
ATOM      2  C   UNL     1      -0.280  -0.688   1.129  0.00  0.00    +0.250 C 
ATOM      3  O   UNL     1      -0.550  -0.091   2.149  0.00  0.00    -0.272 OA
ATOM      4  H   UNL     1       0.218  -0.482  -0.814  0.00  0.00    +0.174 HD
ENDROOT
BRANCH   1  14
ATOM      5  C   UNL     1       0.474   7.918   0.038  0.00  0.00    +0.007 C 
ATOM      6  C   UNL     1       1.007   6.484   0.026  0.00  0.00    -0.014 C 
ATOM      7  C   UNL     1       0.521   5.749   1.276  0.00  0.00    +0.006 C 
ATOM      8  C   UNL     1       1.064   4.318   1.269  0.00  0.00    +0.035 C 
ATOM      9  C   UNL     1       0.584   3.595   0.015  0.00  0.00    +0.114 C 
ATOM     10  C   UNL     1       1.041   4.330  -1.240  0.00  0.00    +0.035 C 
ATOM     11  C   UNL     1       0.497   5.761  -1.223  0.00  0.00    +0.006 C 
ATOM     12  C   UNL     1       1.089   2.170   0.003  0.00  0.00    +0.263 C 
ATOM     13  O   UNL     1       2.243   1.800  -0.009  0.00  0.00    -0.271 OA
ATOM     14  N   UNL     1      -0.017   1.397   0.010  0.00  0.00    -0.137 N 
ATOM     15  C   UNL     1      -1.134   2.134   0.019  0.00  0.00    +0.326 C 
ATOM     16  O   UNL     1      -2.255   1.663   0.021  0.00  0.00    -0.251 OA
ATOM     17  N   UNL     1      -0.877   3.456   0.028  0.00  0.00    -0.284 N 
ATOM     18  H   UNL     1      -1.529   4.174   0.037  0.00  0.00    +0.151 HD
ENDBRANCH   1  14
BRANCH   2  19
ATOM     19  C   UNL     1      -0.260  -2.195   1.120  0.00  0.00    +0.223 C 
BRANCH  19  20
ATOM     20  N   UNL     1      -0.598  -2.695   2.455  0.00  0.00    -0.290 N 
ATOM     21  C   UNL     1       0.395  -2.914   3.355  0.00  0.00    +0.203 A 
ATOM     22  N   UNL     1       0.133  -3.354   4.556  0.00  0.00    -0.230 NA
ATOM     23  C   UNL     1      -1.117  -3.613   4.934  0.00  0.00    +0.116 A 
ATOM     24  C   UNL     1      -2.208  -3.423   4.070  0.00  0.00    +0.080 A 
ATOM     25  C   UNL     1      -1.886  -2.934   2.763  0.00  0.00    +0.263 A 
ATOM     26  O   UNL     1      -2.765  -2.738   1.942  0.00  0.00    -0.267 OA
ATOM     27  C   UNL     1      -3.510  -3.753   4.636  0.00  0.00    +0.004 A 
ATOM     28  C   UNL     1      -3.569  -4.204   5.913  0.00  0.00    +0.056 A 
ATOM     29  S   UNL     1      -1.863  -4.210   6.428  0.00  0.00    -0.076 S 
BRANCH  27  30
ATOM     30  C   UNL     1      -4.745  -3.599   3.832  0.00  0.00    -0.017 A 
ATOM     31  C   UNL     1      -4.997  -2.404   3.159  0.00  0.00    +0.008 A 
ATOM     32  C   UNL     1      -6.146  -2.268   2.407  0.00  0.00    +0.001 A 
ATOM     33  C   UNL     1      -7.052  -3.311   2.328  0.00  0.00    +0.000 A 
ATOM     34  C   UNL     1      -6.809  -4.497   2.998  0.00  0.00    +0.001 A 
ATOM     35  C   UNL     1      -5.661  -4.646   3.749  0.00  0.00    +0.008 A 
ENDBRANCH  27  30
ENDBRANCH  19  20
ENDBRANCH   2  19
TORSDOF 4
