REMARK  Name = ZINC35383410
REMARK  3 active torsions:
REMARK  status: ('A' for Active; 'I' for Inactive)
REMARK    1  A    between atoms: C_3  and  O_9
REMARK    2  A    between atoms: O_9  and  C_10
REMARK    3  A    between atoms: C_15  and  N_16
REMARK                            x       y       z     vdW  Elec       q    Type
REMARK                         _______ _______ _______ _____ _____    ______ ____
ROOT
ATOM      1  C   UNL     1       3.483   3.461  -0.118  0.00  0.00    +0.151 A 
ATOM      2  C   UNL     1       2.253   4.090  -0.095  0.00  0.00    +0.076 A 
ATOM      3  C   UNL     1       2.185   5.480  -0.194  0.00  0.00    +0.081 A 
ATOM      4  C   UNL     1       3.377   6.229  -0.318  0.00  0.00    +0.067 A 
ATOM      5  C   UNL     1       4.613   5.582  -0.341  0.00  0.00    +0.041 A 
ATOM      6  C   UNL     1       4.663   4.206  -0.235  0.00  0.00    +0.068 A 
ATOM      7  C   UNL     1       3.266   7.690  -0.421  0.00  0.00    +0.259 A 
ATOM      8  O   UNL     1       4.254   8.393  -0.530  0.00  0.00    -0.267 OA
ATOM      9  N   UNL     1       2.024   8.225  -0.390  0.00  0.00    -0.313 N 
ATOM     10  H   UNL     1       1.913   9.186  -0.456  0.00  0.00    +0.170 HD
ATOM     11  C   UNL     1       0.929   7.428  -0.269  0.00  0.00    +0.199 A 
ATOM     12  N   UNL     1       0.995   6.135  -0.175  0.00  0.00    -0.237 NA
ENDROOT
BRANCH   6  13
ATOM     13  N   UNL     1       5.900   3.551  -0.252  0.00  0.00    -0.355 N 
ATOM     14  H   UNL     1       5.939   2.585  -0.182  0.00  0.00    +0.142 HD
ATOM     15  H   UNL     1       6.719   4.065  -0.333  0.00  0.00    +0.142 HD
ENDBRANCH   6  13
BRANCH   1  16
ATOM     16  O   UNL     1       3.548   2.108  -0.021  0.00  0.00    -0.451 OA
BRANCH  16  19
ATOM     17  C   UNL     1       0.647   0.266   1.176  0.00  0.00    +0.019 A 
ATOM     18  C   UNL     1       1.835   0.974   1.177  0.00  0.00    +0.050 A 
ATOM     19  C   UNL     1       2.381   1.412  -0.020  0.00  0.00    +0.164 A 
ATOM     20  C   UNL     1       1.733   1.137  -1.218  0.00  0.00    +0.166 A 
ATOM     21  C   UNL     1       0.545   0.428  -1.213  0.00  0.00    +0.057 A 
ATOM     22  C   UNL     1       0.003  -0.006  -0.017  0.00  0.00    +0.021 A 
ATOM     23 BR   UNL     1      -1.620  -0.976  -0.013  0.00  0.00    -0.050 Br
ATOM     24  F   UNL     1       2.262   1.562  -2.386  0.00  0.00    -0.202 F 
ENDBRANCH  16  19
ENDBRANCH   1  16
TORSDOF 3
