REMARK  Name = ZINC58225232
REMARK  7 active torsions:
REMARK  status: ('A' for Active; 'I' for Inactive)
REMARK    1  A    between atoms: C_1  and  C_2
REMARK    2  A    between atoms: C_5  and  S_8
REMARK    3  A    between atoms: S_8  and  C_9
REMARK    4  A    between atoms: C_9  and  C_10
REMARK    5  A    between atoms: N_14  and  C_15
REMARK    6  A    between atoms: C_18  and  O_21
REMARK    7  A    between atoms: O_21  and  C_22
REMARK                            x       y       z     vdW  Elec       q    Type
REMARK                         _______ _______ _______ _____ _____    ______ ____
ROOT
ATOM      1  C   UNL     1      -6.453   2.768  -1.976  0.00  0.00    +0.167 A 
ATOM      2  N   UNL     1      -7.019   3.941  -1.857  0.00  0.00    -0.112 NA
ATOM      3  N   UNL     1      -8.242   3.895  -2.248  0.00  0.00    -0.023 NA
ATOM      4  N   UNL     1      -8.539   2.704  -2.641  0.00  0.00    -0.039 NA
ATOM      5  N   UNL     1      -7.379   1.925  -2.482  0.00  0.00    -0.196 N 
ENDROOT
BRANCH   5   6
ATOM      6  C   UNL     1      -7.219   0.564  -2.783  0.00  0.00    +0.069 A 
ATOM      7  C   UNL     1      -6.002   0.097  -3.262  0.00  0.00    +0.031 A 
ATOM      8  C   UNL     1      -5.845  -1.242  -3.557  0.00  0.00    +0.048 A 
ATOM      9  C   UNL     1      -6.902  -2.122  -3.375  0.00  0.00    +0.127 A 
ATOM     10  C   UNL     1      -8.118  -1.656  -2.897  0.00  0.00    +0.048 A 
ATOM     11  C   UNL     1      -8.275  -0.318  -2.596  0.00  0.00    +0.031 A 
BRANCH   9  12
ATOM     12  O   UNL     1      -6.747  -3.441  -3.665  0.00  0.00    -0.434 OA
BRANCH  12  13
ATOM     13  C   UNL     1      -7.877  -4.289  -3.454  0.00  0.00    +0.541 C 
ATOM     14  F   UNL     1      -8.250  -4.243  -2.106  0.00  0.00    -0.166 F 
ATOM     15  F   UNL     1      -8.943  -3.853  -4.248  0.00  0.00    -0.166 F 
ENDBRANCH  12  13
ENDBRANCH   9  12
ENDBRANCH   5   6
BRANCH   1  16
ATOM     16  C   UNL     1      -5.030   2.422  -1.621  0.00  0.00    +0.155 C 
BRANCH  16  17
ATOM     17  S   UNL     1      -3.964   2.692  -3.064  0.00  0.00    -0.079 S 
BRANCH  17  22
ATOM     18  C   UNL     1      -0.013   1.086   0.008  0.00  0.00    +0.090 C 
ATOM     19  C   UNL     1      -0.742   1.585  -1.213  0.00  0.00    +0.149 A 
ATOM     20  N   UNL     1      -2.051   1.825  -1.287  0.00  0.00    -0.206 NA
ATOM     21  H   UNL     1      -1.127   2.558  -4.147  0.00  0.00    +0.191 HD
ATOM     22  C   UNL     1      -2.356   2.250  -2.495  0.00  0.00    +0.185 A 
ATOM     23  N   UNL     1      -1.218   2.286  -3.221  0.00  0.00    -0.254 N 
ATOM     24  N   UNL     1      -0.191   1.857  -2.365  0.00  0.00    -0.157 NA
ENDBRANCH  17  22
ENDBRANCH  16  17
ENDBRANCH   1  16
TORSDOF 6
