REMARK  Name = ZINC36579411
REMARK  13 active torsions:
REMARK  status: ('A' for Active; 'I' for Inactive)
REMARK    1  A    between atoms: C_1  and  C_2
REMARK    2  A    between atoms: C_2  and  C_3
REMARK    3  A    between atoms: C_2  and  C_4
REMARK    4  A    between atoms: C_2  and  N_5
REMARK    5  A    between atoms: N_5  and  C_6
REMARK    6  A    between atoms: C_6  and  C_8
REMARK    7  A    between atoms: C_6  and  C_15
REMARK    8  A    between atoms: C_12  and  O_14
REMARK    9  A    between atoms: N_17  and  C_18
REMARK   10  A    between atoms: C_24  and  C_26
REMARK   11  A    between atoms: C_32  and  O_34
REMARK   12  A    between atoms: O_34  and  C_35
REMARK   13  A    between atoms: C_35  and  C_36
REMARK                            x       y       z     vdW  Elec       q    Type
REMARK                         _______ _______ _______ _____ _____    ______ ____
ROOT
ATOM      1  N   UNL     1       0.797  -1.198  -1.838  0.00  0.00    -0.279 N 
ATOM      2  C   UNL     1       0.610  -1.789  -3.034  0.00  0.00    +0.238 C 
ATOM      3  O   UNL     1       1.212  -1.390  -4.008  0.00  0.00    -0.274 OA
ENDROOT
BRANCH   2   4
ATOM      4  C   UNL     1      -0.348  -2.946  -3.162  0.00  0.00    +0.165 C 
ATOM      5  C   UNL     1      -1.691  -2.453  -3.741  0.00  0.00    +0.033 C 
ATOM      6  C   UNL     1      -2.107  -3.611  -4.686  0.00  0.00    +0.021 C 
ATOM      7  C   UNL     1      -0.734  -4.071  -5.238  0.00  0.00    +0.112 C 
ATOM      8  N   UNL     1       0.194  -3.943  -4.096  0.00  0.00    -0.256 N 
ATOM      9  C   UNL     1       1.346  -4.625  -3.936  0.00  0.00    +0.404 C 
ATOM     10  O   UNL     1       2.033  -4.435  -2.952  0.00  0.00    -0.226 OA
BRANCH   9  11
ATOM     11  O   UNL     1       1.736  -5.516  -4.867  0.00  0.00    -0.445 OA
BRANCH  11  12
ATOM     12  C   UNL     1       2.967  -6.202  -4.633  0.00  0.00    +0.269 C 
BRANCH  12  13
ATOM     13  C   UNL     1       3.238  -7.151  -5.772  0.00  0.00    -0.010 A 
ATOM     14  C   UNL     1       2.766  -8.449  -5.717  0.00  0.00    +0.007 A 
ATOM     15  C   UNL     1       3.014  -9.319  -6.762  0.00  0.00    +0.000 A 
ATOM     16  C   UNL     1       3.735  -8.892  -7.861  0.00  0.00    +0.000 A 
ATOM     17  C   UNL     1       4.206  -7.593  -7.916  0.00  0.00    +0.000 A 
ATOM     18  C   UNL     1       3.954  -6.722  -6.873  0.00  0.00    +0.007 A 
ENDBRANCH  12  13
ENDBRANCH  11  12
ENDBRANCH   9  11
ENDBRANCH   2   4
BRANCH   1  20
ATOM     19  C   UNL     1       0.388  -0.806   0.542  0.00  0.00    +0.031 C 
ATOM     20  C   UNL     1       0.163  -1.753  -0.639  0.00  0.00    +0.030 C 
ATOM     21  C   UNL     1       0.776  -3.118  -0.323  0.00  0.00    +0.031 C 
ATOM     22  C   UNL     1      -1.339  -1.913  -0.885  0.00  0.00    +0.031 C 
ENDBRANCH   1  20
BRANCH   1  23
ATOM     23  C   UNL     1       1.635  -0.001  -1.735  0.00  0.00    +0.193 C 
BRANCH  23  24
ATOM     24  C   UNL     1       0.973   1.140  -2.465  0.00  0.00    -0.015 A 
ATOM     25  C   UNL     1      -0.003   0.881  -3.410  0.00  0.00    +0.006 A 
ATOM     26  C   UNL     1      -0.612   1.925  -4.082  0.00  0.00    +0.004 A 
ATOM     27  C   UNL     1      -0.246   3.229  -3.810  0.00  0.00    +0.045 A 
ATOM     28  C   UNL     1       0.733   3.491  -2.863  0.00  0.00    +0.117 A 
ATOM     29  C   UNL     1       1.338   2.442  -2.186  0.00  0.00    +0.051 A 
BRANCH  28  30
ATOM     30  O   UNL     1       1.094   4.774  -2.594  0.00  0.00    -0.507 OA
ATOM     31  H   UNL     1       0.579   5.188  -1.888  0.00  0.00    +0.292 HD
ENDBRANCH  28  30
ENDBRANCH  23  24
BRANCH  23  32
ATOM     32  C   UNL     1       2.983  -0.277  -2.351  0.00  0.00    +0.238 C 
ATOM     33  O   UNL     1       3.259  -1.395  -2.729  0.00  0.00    -0.273 OA
ATOM     34  N   UNL     1       3.881   0.720  -2.481  0.00  0.00    -0.311 N 
ATOM     35  H   UNL     1       3.660   1.615  -2.178  0.00  0.00    +0.149 HD
BRANCH  34  36
ATOM     36  C   UNL     1       5.191   0.452  -3.079  0.00  0.00    +0.073 C 
ATOM     37  C   UNL     1       6.145  -0.070  -2.004  0.00  0.00    +0.022 C 
ATOM     38  C   UNL     1       7.514  -0.350  -2.629  0.00  0.00    +0.002 C 
ATOM     39  C   UNL     1       8.075   0.941  -3.226  0.00  0.00    +0.000 C 
ATOM     40  C   UNL     1       7.121   1.464  -4.301  0.00  0.00    +0.002 C 
ATOM     41  C   UNL     1       5.753   1.744  -3.676  0.00  0.00    +0.022 C 
ENDBRANCH  34  36
ENDBRANCH  23  32
ENDBRANCH   1  23
TORSDOF 10
