REMARK  Name = ZINC36545164
REMARK  10 active torsions:
REMARK  status: ('A' for Active; 'I' for Inactive)
REMARK    1  A    between atoms: C_1  and  C_2
REMARK    2  A    between atoms: C_5  and  C_9
REMARK    3  A    between atoms: C_6  and  C_8
REMARK    4  A    between atoms: C_9  and  C_11
REMARK    5  A    between atoms: C_9  and  N_20
REMARK    6  A    between atoms: N_13  and  C_14
REMARK    7  A    between atoms: N_20  and  C_21
REMARK    8  A    between atoms: C_28  and  C_30
REMARK    9  A    between atoms: C_31  and  O_37
REMARK   10  A    between atoms: C_35  and  O_36
REMARK                            x       y       z     vdW  Elec       q    Type
REMARK                         _______ _______ _______ _____ _____    ______ ____
ROOT
ATOM      1  N   UNL     1       0.624  -4.964  -1.487  0.00  0.00    -0.250 N 
ATOM      2  C   UNL     1       1.535  -5.951  -1.374  0.00  0.00    +0.259 C 
ATOM      3  O   UNL     1       2.088  -6.151  -0.309  0.00  0.00    -0.269 OA
ENDROOT
BRANCH   1   4
ATOM      4  C   UNL     1      -0.086  -4.801  -2.681  0.00  0.00    +0.056 A 
ATOM      5  C   UNL     1      -1.283  -5.478  -2.877  0.00  0.00    +0.025 A 
ATOM      6  C   UNL     1      -1.982  -5.315  -4.056  0.00  0.00    +0.002 A 
ATOM      7  C   UNL     1      -1.493  -4.478  -5.043  0.00  0.00    +0.002 A 
ATOM      8  C   UNL     1      -0.302  -3.802  -4.852  0.00  0.00    +0.022 A 
ATOM      9  C   UNL     1       0.401  -3.956  -3.671  0.00  0.00    +0.062 A 
ATOM     10 CL   UNL     1       1.892  -3.102  -3.429  0.00  0.00    -0.082 Cl
ENDBRANCH   1   4
BRANCH   2  11
ATOM     11  C   UNL     1       1.862  -6.788  -2.541  0.00  0.00    +0.120 A 
ATOM     12  C   UNL     1       2.911  -6.425  -3.399  0.00  0.00    +0.133 A 
ATOM     13  C   UNL     1       3.209  -7.220  -4.494  0.00  0.00    +0.046 A 
ATOM     14  C   UNL     1       2.478  -8.366  -4.742  0.00  0.00    +0.007 A 
ATOM     15  C   UNL     1       1.442  -8.733  -3.903  0.00  0.00    +0.046 A 
ATOM     16  C   UNL     1       1.130  -7.956  -2.799  0.00  0.00    +0.133 A 
BRANCH  16  17
ATOM     17  O   UNL     1       0.117  -8.321  -1.974  0.00  0.00    -0.506 OA
ATOM     18  H   UNL     1      -0.757  -8.038  -2.276  0.00  0.00    +0.292 HD
ENDBRANCH  16  17
BRANCH  12  19
ATOM     19  O   UNL     1       3.630  -5.300  -3.158  0.00  0.00    -0.506 OA
ATOM     20  H   UNL     1       4.403  -5.441  -2.594  0.00  0.00    +0.292 HD
ENDBRANCH  12  19
ENDBRANCH   2  11
BRANCH   1  21
ATOM     21  C   UNL     1       0.378  -4.062  -0.359  0.00  0.00    +0.198 C 
BRANCH  21  26
ATOM     22  C   UNL     1       0.951   1.415  -2.107  0.00  0.00    +0.044 C 
ATOM     23  C   UNL     1       0.801  -0.013  -1.651  0.00  0.00    -0.050 A 
ATOM     24  C   UNL     1      -0.451  -0.597  -1.606  0.00  0.00    +0.004 A 
ATOM     25  C   UNL     1      -0.588  -1.907  -1.188  0.00  0.00    +0.006 A 
ATOM     26  C   UNL     1       0.528  -2.634  -0.816  0.00  0.00    -0.015 A 
ATOM     27  C   UNL     1       1.780  -2.051  -0.862  0.00  0.00    -0.045 A 
ATOM     28  C   UNL     1       1.917  -0.742  -1.284  0.00  0.00    +0.007 A 
ATOM     29  C   UNL     1       2.996  -2.843  -0.456  0.00  0.00    +0.044 C 
ENDBRANCH  21  26
BRANCH  21  30
ATOM     30  C   UNL     1      -1.019  -4.280   0.163  0.00  0.00    +0.239 C 
ATOM     31  O   UNL     1      -1.750  -5.083  -0.378  0.00  0.00    -0.273 OA
ATOM     32  N   UNL     1      -1.456  -3.581   1.229  0.00  0.00    -0.311 N 
ATOM     33  H   UNL     1      -0.900  -2.888   1.616  0.00  0.00    +0.149 HD
BRANCH  32  34
ATOM     34  C   UNL     1      -2.773  -3.869   1.803  0.00  0.00    +0.073 C 
ATOM     35  C   UNL     1      -3.845  -3.091   1.038  0.00  0.00    +0.022 C 
ATOM     36  C   UNL     1      -5.220  -3.392   1.638  0.00  0.00    +0.002 C 
ATOM     37  C   UNL     1      -5.237  -2.972   3.109  0.00  0.00    +0.000 C 
ATOM     38  C   UNL     1      -4.165  -3.751   3.874  0.00  0.00    +0.002 C 
ATOM     39  C   UNL     1      -2.791  -3.450   3.274  0.00  0.00    +0.022 C 
ENDBRANCH  32  34
ENDBRANCH  21  30
ENDBRANCH   1  21
TORSDOF 8
