REMARK  Name = ZINC35967186
REMARK  13 active torsions:
REMARK  status: ('A' for Active; 'I' for Inactive)
REMARK    1  A    between atoms: C_1  and  C_2
REMARK    2  A    between atoms: C_2  and  N_3
REMARK    3  A    between atoms: C_6  and  C_11
REMARK    4  A    between atoms: C_15  and  O_17
REMARK    5  A    between atoms: O_17  and  C_18
REMARK    6  A    between atoms: N_26  and  C_28
REMARK    7  A    between atoms: C_28  and  C_29
REMARK    8  A    between atoms: C_29  and  C_30
REMARK    9  A    between atoms: N_32  and  C_33
REMARK   10  A    between atoms: C_33  and  C_34
REMARK   11  A    between atoms: C_34  and  N_35
REMARK   12  A    between atoms: N_35  and  C_36
REMARK   13  A    between atoms: N_35  and  C_37
REMARK                            x       y       z     vdW  Elec       q    Type
REMARK                         _______ _______ _______ _____ _____    ______ ____
ROOT
ATOM      1  N   UNL     1       0.514  -0.438  -1.316  0.00  0.00    -0.257 N 
ATOM      2  C   UNL     1      -0.224  -0.717  -2.431  0.00  0.00    +0.042 C 
ATOM      3  C   UNL     1       0.360  -1.158  -3.564  0.00  0.00    +0.058 C 
ATOM      4  C   UNL     1       1.865  -1.333  -3.558  0.00  0.00    +0.142 C 
ATOM      5  N   UNL     1       2.570  -1.004  -2.307  0.00  0.00    -0.288 N 
ATOM      6  C   UNL     1       1.845  -0.569  -1.257  0.00  0.00    +0.307 C 
ATOM      7  O   UNL     1       2.418  -0.292  -0.222  0.00  0.00    -0.252 OA
ATOM      8  C   UNL     1      -0.610  -1.373  -4.564  0.00  0.00    +0.247 C 
ATOM      9  O   UNL     1      -0.363  -1.771  -5.688  0.00  0.00    -0.270 OA
ATOM     10  N   UNL     1      -1.844  -1.081  -4.115  0.00  0.00    -0.292 N 
ATOM     11  C   UNL     1      -1.707  -0.638  -2.720  0.00  0.00    +0.159 C 
ATOM     12  H   UNL     1       3.533  -1.096  -2.242  0.00  0.00    +0.151 HD
ENDROOT
BRANCH   4  13
ATOM     13  C   UNL     1       2.167  -2.769  -3.898  0.00  0.00    -0.019 A 
ATOM     14  C   UNL     1       2.060  -3.746  -2.925  0.00  0.00    +0.006 A 
ATOM     15  C   UNL     1       2.336  -5.066  -3.233  0.00  0.00    +0.004 A 
ATOM     16  C   UNL     1       2.720  -5.411  -4.515  0.00  0.00    +0.046 A 
ATOM     17  C   UNL     1       2.829  -4.433  -5.492  0.00  0.00    +0.129 A 
ATOM     18  C   UNL     1       2.546  -3.110  -5.182  0.00  0.00    +0.052 A 
BRANCH  17  19
ATOM     19  O   UNL     1       3.207  -4.769  -6.753  0.00  0.00    -0.456 OA
BRANCH  19  20
ATOM     20  C   UNL     1       4.413  -4.328  -7.197  0.00  0.00    +0.128 A 
ATOM     21  C   UNL     1       5.274  -3.671  -6.330  0.00  0.00    +0.046 A 
ATOM     22  C   UNL     1       6.500  -3.223  -6.784  0.00  0.00    +0.004 A 
ATOM     23  C   UNL     1       6.868  -3.428  -8.101  0.00  0.00    +0.000 A 
ATOM     24  C   UNL     1       6.011  -4.082  -8.967  0.00  0.00    +0.004 A 
ATOM     25  C   UNL     1       4.787  -4.538  -8.517  0.00  0.00    +0.046 A 
ENDBRANCH  19  20
ENDBRANCH  17  19
ENDBRANCH   4  13
BRANCH   1  27
ATOM     26  C   UNL     1      -0.279   1.565  -0.157  0.00  0.00    +0.025 C 
ATOM     27  C   UNL     1      -0.189   0.038  -0.122  0.00  0.00    +0.111 C 
ENDBRANCH   1  27
BRANCH  10  28
ATOM     28  C   UNL     1      -3.092  -1.183  -4.875  0.00  0.00    +0.117 C 
BRANCH  28  29
ATOM     29  C   UNL     1      -3.687  -2.581  -4.692  0.00  0.00    +0.114 C 
BRANCH  29  30
ATOM     30  C   UNL     1      -4.971  -2.687  -5.474  0.00  0.00    +0.214 C 
ATOM     31  O   UNL     1      -5.371  -1.738  -6.114  0.00  0.00    -0.276 OA
ATOM     32  N   UNL     1      -5.675  -3.837  -5.462  0.00  0.00    -0.317 N 
ATOM     33  H   UNL     1      -5.355  -4.596  -4.949  0.00  0.00    +0.149 HD
BRANCH  32  34
ATOM     34  C   UNL     1      -6.923  -3.940  -6.222  0.00  0.00    +0.085 C 
BRANCH  34  35
ATOM     35  C   UNL     1      -7.517  -5.338  -6.039  0.00  0.00    -0.061 C 
BRANCH  35  36
ATOM     36  N   UNL     1      -8.769  -5.441  -6.801  0.00  0.00    +0.377 N 
ATOM     37  C   UNL     1      -8.479  -5.327  -8.236  0.00  0.00    -0.097 C 
ATOM     38  C   UNL     1      -9.401  -6.739  -6.531  0.00  0.00    -0.097 C 
ATOM     39  H   UNL     1      -9.394  -4.699  -6.524  0.00  0.00    -0.083 HD
ENDBRANCH  35  36
ENDBRANCH  34  35
ENDBRANCH  32  34
ENDBRANCH  29  30
ENDBRANCH  28  29
ENDBRANCH  10  28
TORSDOF 10
