REMARK  Name = ZINC44324164
REMARK  11 active torsions:
REMARK  status: ('A' for Active; 'I' for Inactive)
REMARK    1  A    between atoms: C_1  and  C_2
REMARK    2  A    between atoms: C_4  and  C_13
REMARK    3  A    between atoms: C_5  and  O_12
REMARK    4  A    between atoms: C_6  and  N_9
REMARK    5  A    between atoms: C_7  and  C_8
REMARK    6  A    between atoms: C_13  and  CA_14
REMARK    7  A    between atoms: CA_14  and  C_16
REMARK    8  A    between atoms: CA_14  and  N_19
REMARK    9  A    between atoms: C_20  and  O_22
REMARK   10  A    between atoms: O_22  and  C_23
REMARK   11  A    between atoms: C_23  and  C_24
REMARK                            x       y       z     vdW  Elec       q    Type
REMARK                         _______ _______ _______ _____ _____    ______ ____
ROOT
ATOM      1  N   UNL     1      -1.932  -4.144  -1.910  0.00  0.00    -0.267 N 
ATOM      2  C   UNL     1      -3.261  -4.242  -1.711  0.00  0.00    +0.401 C 
ATOM      3  O   UNL     1      -4.024  -3.543  -2.348  0.00  0.00    -0.226 OA
ATOM      4  H   UNL     1      -1.323  -4.702  -1.401  0.00  0.00    +0.153 HD
ENDROOT
BRANCH   1   5
ATOM      5  CA  UNL     1      -1.407  -3.194  -2.894  0.00  0.00    +0.193 C 
BRANCH   5   6
ATOM      6  C   UNL     1      -1.418  -3.829  -4.261  0.00  0.00    +0.376 C 
ATOM      7  O   UNL     1      -1.651  -5.020  -4.378  0.00  0.00    -0.244 OA
ATOM      8  OXT UNL     1      -1.194  -3.152  -5.250  0.00  0.00    -0.244 OA
ENDBRANCH   5   6
BRANCH   5   9
ATOM      9  C   UNL     1       0.028  -2.813  -2.521  0.00  0.00    +0.073 C 
BRANCH   9  13
ATOM     10  C   UNL     1      -0.018   1.503   0.010  0.00  0.00    +0.044 C 
ATOM     11  C   UNL     1       0.002  -0.004   0.002  0.00  0.00    -0.045 A 
ATOM     12  C   UNL     1       0.006  -0.688  -1.200  0.00  0.00    +0.011 A 
ATOM     13  C   UNL     1       0.025  -2.069  -1.210  0.00  0.00    -0.001 A 
ATOM     14  C   UNL     1       0.040  -2.770  -0.013  0.00  0.00    +0.150 A 
ATOM     15  C   UNL     1       0.037  -2.082   1.191  0.00  0.00    +0.171 A 
ATOM     16  C   UNL     1       0.023  -0.701   1.196  0.00  0.00    -0.014 A 
ATOM     17  C   UNL     1       0.025   0.048   2.504  0.00  0.00    +0.046 C 
BRANCH  15  18
ATOM     18  N   UNL     1       0.053  -2.827   2.470  0.00  0.00    +0.060 N 
ATOM     19  O   UNL     1       1.106  -3.118   2.987  0.00  0.00    -0.126 OA
ATOM     20  O   UNL     1      -0.988  -3.145   2.997  0.00  0.00    -0.126 OA
ENDBRANCH  15  18
BRANCH  14  21
ATOM     21  O   UNL     1       0.058  -4.129  -0.021  0.00  0.00    -0.504 OA
ATOM     22  H   UNL     1       0.947  -4.511  -0.028  0.00  0.00    +0.292 HD
ENDBRANCH  14  21
ENDBRANCH   9  13
ENDBRANCH   5   9
ENDBRANCH   1   5
BRANCH   2  23
ATOM     23  O   UNL     1      -3.744  -5.115  -0.807  0.00  0.00    -0.449 OA
BRANCH  23  24
ATOM     24  C   UNL     1      -5.163  -5.166  -0.648  0.00  0.00    +0.246 C 
BRANCH  24  25
ATOM     25  C   UNL     1      -5.520  -6.208   0.414  0.00  0.00    +0.088 C 
ATOM     26  C   UNL     1      -5.205  -7.594  -0.091  0.00  0.00    -0.029 A 
ATOM     27  C   UNL     1      -4.027  -8.188  -0.491  0.00  0.00    +0.005 A 
ATOM     28  C   UNL     1      -4.025  -9.505  -0.918  0.00  0.00    +0.000 A 
ATOM     29  C   UNL     1      -5.205 -10.227  -0.945  0.00  0.00    +0.001 A 
ATOM     30  C   UNL     1      -6.388  -9.640  -0.546  0.00  0.00    +0.009 A 
ATOM     31  C   UNL     1      -6.397  -8.313  -0.114  0.00  0.00    -0.014 A 
ATOM     32  C   UNL     1      -7.505  -7.448   0.362  0.00  0.00    -0.014 A 
ATOM     33  C   UNL     1      -7.005  -6.189   0.682  0.00  0.00    -0.029 A 
ATOM     34  C   UNL     1      -7.848  -5.204   1.150  0.00  0.00    +0.005 A 
ATOM     35  C   UNL     1      -9.199  -5.463   1.304  0.00  0.00    +0.000 A 
ATOM     36  C   UNL     1      -9.705  -6.712   0.989  0.00  0.00    +0.001 A 
ATOM     37  C   UNL     1      -8.868  -7.703   0.520  0.00  0.00    +0.009 A 
ENDBRANCH  24  25
ENDBRANCH  23  24
ENDBRANCH   2  23
TORSDOF 9
