REMARK  Name = ZINC09296311
REMARK  10 active torsions:
REMARK  status: ('A' for Active; 'I' for Inactive)
REMARK    1  A    between atoms: C_1  and  C_2
REMARK    2  A    between atoms: C_5  and  C_8
REMARK    3  A    between atoms: C_8  and  O_9
REMARK    4  A    between atoms: O_9  and  C_10
REMARK    5  A    between atoms: C_13  and  C_18
REMARK    6  A    between atoms: C_15  and  O_16
REMARK    7  A    between atoms: O_16  and  C_17
REMARK    8  A    between atoms: C_21  and  C_32
REMARK    9  A    between atoms: C_27  and  N_31
REMARK   10  A    between atoms: C_28  and  C_29
REMARK                            x       y       z     vdW  Elec       q    Type
REMARK                         _______ _______ _______ _____ _____    ______ ____
ROOT
ATOM      1  C   UNL     1      -1.663   6.114  -3.792  0.00  0.00    +0.163 A 
ATOM      2  C   UNL     1      -1.302   6.828  -2.660  0.00  0.00    +0.065 A 
ATOM      3  C   UNL     1      -1.305   6.209  -1.423  0.00  0.00    +0.026 A 
ATOM      4  C   UNL     1      -1.657   4.876  -1.314  0.00  0.00    -0.017 A 
ATOM      5  C   UNL     1      -2.017   4.159  -2.440  0.00  0.00    +0.055 A 
ATOM      6  C   UNL     1      -2.022   4.774  -3.681  0.00  0.00    +0.162 A 
ATOM      7 BR   UNL     1      -0.820   7.186   0.122  0.00  0.00    -0.050 Br
ENDROOT
BRANCH   4   8
ATOM      8  C   UNL     1      -1.652   4.204   0.035  0.00  0.00    +0.102 C 
ATOM      9  C   UNL     1      -0.691   3.044   0.023  0.00  0.00    +0.049 A 
ATOM     10  C   UNL     1       0.697   3.052   0.010  0.00  0.00    +0.068 A 
ATOM     11  N   UNL     1       1.112   1.808   0.001  0.00  0.00    -0.176 NA
ATOM     12  N   UNL     1      -0.011   0.966   0.007  0.00  0.00    -0.246 N 
ATOM     13  H   UNL     1       0.003  -0.034   0.006  0.00  0.00    +0.192 HD
ATOM     14  C   UNL     1      -1.107   1.742   0.016  0.00  0.00    +0.222 A 
ATOM     15  O   UNL     1      -2.417   1.391   0.033  0.00  0.00    -0.423 OA
ATOM     16  C   UNL     1      -3.318   2.352   0.324  0.00  0.00    +0.200 C 
ATOM     17  C   UNL     1      -3.029   3.672   0.344  0.00  0.00    +0.098 C 
ATOM     18  C   UNL     1       1.575   4.278   0.007  0.00  0.00    +0.068 C 
BRANCH  16  19
ATOM     19  N   UNL     1      -4.603   1.966   0.615  0.00  0.00    -0.328 N 
ATOM     20  H   UNL     1      -5.273   2.635   0.827  0.00  0.00    +0.145 HD
ATOM     21  H   UNL     1      -4.840   1.026   0.609  0.00  0.00    +0.145 HD
ENDBRANCH  16  19
BRANCH  17  22
ATOM     22  C   UNL     1      -4.070   4.600   0.671  0.00  0.00    +0.101 C 
ATOM     23  N   UNL     1      -4.895   5.336   0.931  0.00  0.00    -0.191 NA
ENDBRANCH  17  22
ENDBRANCH   4   8
BRANCH   6  24
ATOM     24  O   UNL     1      -2.377   4.070  -4.790  0.00  0.00    -0.491 OA
ATOM     25  C   UNL     1      -2.734   2.700  -4.601  0.00  0.00    +0.277 C 
ENDBRANCH   6  24
BRANCH   1  26
ATOM     26  O   UNL     1      -1.665   6.722  -5.008  0.00  0.00    -0.484 OA
BRANCH  26  27
ATOM     27  C   UNL     1      -1.286   8.099  -5.046  0.00  0.00    +0.264 C 
BRANCH  27  32
ATOM     28  C   UNL     1      -1.523  10.014 -10.493  0.00  0.00    +0.044 C 
ATOM     29  C   UNL     1      -1.461   9.515  -9.073  0.00  0.00    -0.050 A 
ATOM     30  C   UNL     1      -2.575   9.605  -8.259  0.00  0.00    +0.004 A 
ATOM     31  C   UNL     1      -2.518   9.147  -6.956  0.00  0.00    +0.007 A 
ATOM     32  C   UNL     1      -1.348   8.598  -6.467  0.00  0.00    -0.010 A 
ATOM     33  C   UNL     1      -0.232   8.513  -7.279  0.00  0.00    +0.007 A 
ATOM     34  C   UNL     1      -0.290   8.967  -8.583  0.00  0.00    +0.004 A 
ENDBRANCH  27  32
ENDBRANCH  26  27
ENDBRANCH   1  26
TORSDOF 7
