REMARK  Name = ZINC46902034
REMARK  8 active torsions:
REMARK  status: ('A' for Active; 'I' for Inactive)
REMARK    1  A    between atoms: C_1  and  N_2
REMARK    2  A    between atoms: N_2  and  C_3
REMARK    3  A    between atoms: N_2  and  C_4
REMARK    4  A    between atoms: C_7  and  C_10
REMARK    5  A    between atoms: C_10  and  C_12
REMARK    6  A    between atoms: C_10  and  C_30
REMARK    7  A    between atoms: C_12  and  N_13
REMARK    8  A    between atoms: C_14  and  C_16
REMARK                            x       y       z     vdW  Elec       q    Type
REMARK                         _______ _______ _______ _____ _____    ______ ____
ROOT
ATOM      1  C   UNL     1      -4.625  -3.631   0.482  0.00  0.00    +0.068 C 
ENDROOT
BRANCH   1   2
ATOM      2  C   UNL     1      -5.296  -3.223  -0.804  0.00  0.00    -0.013 A 
ATOM      3  C   UNL     1      -5.579  -1.971  -1.196  0.00  0.00    +0.088 A 
ATOM      4  N   UNL     1      -6.189  -1.991  -2.421  0.00  0.00    -0.360 N 
ATOM      5  H   UNL     1      -6.486  -1.207  -2.908  0.00  0.00    +0.165 HD
ATOM      6  C   UNL     1      -6.316  -3.290  -2.858  0.00  0.00    +0.047 A 
ATOM      7  C   UNL     1      -5.757  -4.119  -1.868  0.00  0.00    +0.003 A 
ATOM      8  C   UNL     1      -5.741  -5.503  -2.046  0.00  0.00    +0.010 A 
ATOM      9  C   UNL     1      -6.266  -6.047  -3.184  0.00  0.00    +0.001 A 
ATOM     10  C   UNL     1      -6.816  -5.234  -4.165  0.00  0.00    +0.002 A 
ATOM     11  C   UNL     1      -6.850  -3.866  -4.006  0.00  0.00    +0.026 A 
ENDBRANCH   1   2
BRANCH   1  15
ATOM     12  C   UNL     1      -0.748  -1.845   0.694  0.00  0.00    +0.029 A 
ATOM     13  C   UNL     1      -0.880  -3.228   0.718  0.00  0.00    +0.023 A 
ATOM     14  C   UNL     1      -2.134  -3.801   0.649  0.00  0.00    +0.006 A 
ATOM     15  C   UNL     1      -3.258  -3.001   0.557  0.00  0.00    -0.038 A 
ATOM     16  C   UNL     1      -3.131  -1.624   0.534  0.00  0.00    +0.006 A 
ATOM     17  C   UNL     1      -1.879  -1.044   0.607  0.00  0.00    +0.023 A 
BRANCH  12  19
ATOM     18  C   UNL     1       0.656   0.197   0.744  0.00  0.00    +0.129 C 
ATOM     19  N   UNL     1       0.519  -1.261   0.763  0.00  0.00    -0.336 N 
ATOM     20  C   UNL     1       1.711  -2.108   0.855  0.00  0.00    +0.129 C 
ENDBRANCH  12  19
ENDBRANCH   1  15
BRANCH   1  21
ATOM     21  C   UNL     1      -5.469  -3.160   1.669  0.00  0.00    +0.117 C 
BRANCH  21  22
ATOM     22  N   UNL     1      -6.755  -3.863   1.662  0.00  0.00    -0.314 N 
ATOM     23  C   UNL     1      -7.667  -3.607   2.621  0.00  0.00    +0.218 C 
ATOM     24  O   UNL     1      -7.424  -2.796   3.489  0.00  0.00    -0.275 OA
ATOM     25  H   UNL     1      -6.950  -4.512   0.968  0.00  0.00    +0.149 HD
BRANCH  23  26
ATOM     26  C   UNL     1      -8.990  -4.330   2.615  0.00  0.00    +0.092 C 
ATOM     27  C   UNL     1      -9.835  -3.858   3.800  0.00  0.00    +0.016 C 
ATOM     28  C   UNL     1     -11.165  -4.615   3.813  0.00  0.00    +0.020 C 
ATOM     29  C   UNL     1     -11.932  -4.314   2.522  0.00  0.00    +0.109 C 
ATOM     30  N   UNL     1     -11.070  -4.630   1.375  0.00  0.00    -0.285 N 
ATOM     31  C   UNL     1      -9.732  -4.026   1.309  0.00  0.00    +0.122 C 
ATOM     32  C   UNL     1     -11.498  -5.457   0.401  0.00  0.00    +0.305 C 
ATOM     33  O   UNL     1     -10.889  -5.526  -0.649  0.00  0.00    -0.252 OA
ATOM     34  N   UNL     1     -12.600  -6.209   0.592  0.00  0.00    -0.285 N 
ATOM     35  C   UNL     1     -13.508  -6.122   1.745  0.00  0.00    +0.109 C 
ATOM     36  C   UNL     1     -14.606  -7.187   1.545  0.00  0.00    +0.020 C 
ATOM     37  C   UNL     1     -13.940  -8.196   0.573  0.00  0.00    +0.020 C 
ATOM     38  C   UNL     1     -13.099  -7.250  -0.325  0.00  0.00    +0.109 C 
ENDBRANCH  23  26
ENDBRANCH  21  22
ENDBRANCH   1  21
TORSDOF 6
