REMARK  Name = ZINC39708091
REMARK  4 active torsions:
REMARK  status: ('A' for Active; 'I' for Inactive)
REMARK    1  A    between atoms: C_6  and  N_7
REMARK    2  A    between atoms: C_8  and  C_10
REMARK    3  A    between atoms: C_10  and  S_11
REMARK    4  A    between atoms: S_11  and  C_12
REMARK                            x       y       z     vdW  Elec       q    Type
REMARK                         _______ _______ _______ _____ _____    ______ ____
ROOT
ATOM      1  C   UNL     1      -3.718  -5.347  -0.450  0.00  0.00    +0.208 C 
ATOM      2  N   UNL     1      -4.770  -4.563  -0.426  0.00  0.00    -0.227 NA
ATOM      3  C   UNL     1      -6.082  -5.181  -0.599  0.00  0.00    +0.252 C 
ATOM      4  C   UNL     1      -5.959  -6.603  -0.070  0.00  0.00    +0.117 C 
ATOM      5  C   UNL     1      -7.023  -6.776   0.764  0.00  0.00    +0.028 A 
ATOM      6  C   UNL     1      -7.508  -7.907   1.463  0.00  0.00    +0.050 A 
ATOM      7  C   UNL     1      -8.613  -7.735   2.243  0.00  0.00    +0.124 A 
ATOM      8  C   UNL     1      -9.289  -6.517   2.392  0.00  0.00    +0.040 A 
ATOM      9  C   UNL     1      -8.915  -5.372   1.763  0.00  0.00    +0.029 A 
ATOM     10  C   UNL     1      -7.731  -5.465   0.891  0.00  0.00    +0.046 A 
ATOM     11  N   UNL     1      -7.159  -4.560   0.159  0.00  0.00    -0.358 N 
ATOM     12  F   UNL     1      -9.085  -8.808   2.915  0.00  0.00    -0.205 F 
ATOM     13  N   UNL     1      -4.886  -7.351  -0.340  0.00  0.00    -0.147 NA
ATOM     14  N   UNL     1      -3.787  -6.695  -0.562  0.00  0.00    -0.122 NA
ATOM     15  H   UNL     1      -7.406  -3.623   0.123  0.00  0.00    +0.162 HD
ENDROOT
BRANCH   1  16
ATOM     16  S   UNL     1      -2.125  -4.603  -0.337  0.00  0.00    -0.075 S 
BRANCH  16  17
ATOM     17  C   UNL     1      -2.478  -2.828  -0.204  0.00  0.00    +0.173 C 
BRANCH  17  19
ATOM     18  N   UNL     1      -1.200  -0.722   0.010  0.00  0.00    -0.285 N 
ATOM     19  C   UNL     1      -1.183  -2.065  -0.099  0.00  0.00    +0.227 C 
ATOM     20  O   UNL     1      -0.126  -2.659  -0.113  0.00  0.00    -0.275 OA
ATOM     21  H   UNL     1      -2.044  -0.252   0.098  0.00  0.00    +0.155 HD
BRANCH  18  27
ATOM     22  C   UNL     1       1.072  -0.453  -0.766  0.00  0.00    +0.024 A 
ATOM     23  C   UNL     1       2.256   0.258  -0.778  0.00  0.00    +0.017 A 
ATOM     24  C   UNL     1       2.377   1.416  -0.032  0.00  0.00    +0.018 A 
ATOM     25  C   UNL     1       1.312   1.866   0.729  0.00  0.00    +0.017 A 
ATOM     26  C   UNL     1       0.126   1.159   0.745  0.00  0.00    +0.024 A 
ATOM     27  C   UNL     1       0.002  -0.004  -0.004  0.00  0.00    +0.033 A 
ATOM     28 BR   UNL     1       4.000   2.387  -0.051  0.00  0.00    -0.050 Br
ENDBRANCH  18  27
ENDBRANCH  17  19
ENDBRANCH  16  17
ENDBRANCH   1  16
TORSDOF 4
