REMARK  Name = ZINC35789325
REMARK  16 active torsions:
REMARK  status: ('A' for Active; 'I' for Inactive)
REMARK    1  A    between atoms: C_1  and  C_2
REMARK    2  A    between atoms: C_3  and  C_22
REMARK    3  A    between atoms: C_4  and  O_14
REMARK    4  A    between atoms: N_5  and  C_7
REMARK    5  A    between atoms: O_14  and  C_15
REMARK    6  A    between atoms: C_22  and  N_23
REMARK    7  A    between atoms: N_23  and  C_24
REMARK    8  A    between atoms: N_23  and  C_28
REMARK    9  A    between atoms: C_24  and  C_25
REMARK   10  A    between atoms: C_25  and  O_26
REMARK   11  A    between atoms: O_26  and  C_27
REMARK   12  A    between atoms: C_28  and  C_29
REMARK   13  A    between atoms: C_29  and  C_31
REMARK   14  A    between atoms: C_29  and  O_35
REMARK   15  A    between atoms: C_31  and  C_32
REMARK   16  A    between atoms: C_32  and  C_33
REMARK                            x       y       z     vdW  Elec       q    Type
REMARK                         _______ _______ _______ _____ _____    ______ ____
ROOT
ATOM      1  C   UNL     1       0.033   1.826   0.706  0.00  0.00    +0.068 C 
ATOM      2  C   UNL     1       0.341   0.354   0.602  0.00  0.00    +0.065 A 
ATOM      3  C   UNL     1       0.330  -0.402  -0.574  0.00  0.00    +0.021 A 
ATOM      4  C   UNL     1       0.660  -1.681  -0.251  0.00  0.00    +0.225 A 
ATOM      5  N   UNL     1       0.871  -1.722   1.092  0.00  0.00    -0.200 N 
ATOM      6  N   UNL     1       0.668  -0.431   1.597  0.00  0.00    -0.168 NA
ENDROOT
BRANCH   5   7
ATOM      7  C   UNL     1       1.232  -2.853   1.838  0.00  0.00    +0.069 A 
ATOM      8  C   UNL     1       0.600  -4.068   1.609  0.00  0.00    +0.031 A 
ATOM      9  C   UNL     1       0.957  -5.181   2.345  0.00  0.00    +0.040 A 
ATOM     10  C   UNL     1       1.944  -5.086   3.310  0.00  0.00    +0.124 A 
ATOM     11  C   UNL     1       2.577  -3.876   3.540  0.00  0.00    +0.040 A 
ATOM     12  C   UNL     1       2.227  -2.762   2.803  0.00  0.00    +0.031 A 
ATOM     13  F   UNL     1       2.292  -6.176   4.029  0.00  0.00    -0.205 F 
ENDBRANCH   5   7
BRANCH   4  14
ATOM     14  O   UNL     1       0.760  -2.726  -1.111  0.00  0.00    -0.435 OA
BRANCH  14  15
ATOM     15  C   UNL     1      -0.370  -3.422  -1.405  0.00  0.00    +0.165 A 
ATOM     16  C   UNL     1      -1.596  -2.992  -0.918  0.00  0.00    +0.049 A 
ATOM     17  C   UNL     1      -2.744  -3.700  -1.219  0.00  0.00    +0.004 A 
ATOM     18  C   UNL     1      -2.672  -4.837  -2.003  0.00  0.00    +0.003 A 
ATOM     19  C   UNL     1      -1.452  -5.269  -2.490  0.00  0.00    +0.042 A 
ATOM     20  C   UNL     1      -0.300  -4.560  -2.198  0.00  0.00    +0.165 A 
ATOM     21  F   UNL     1       0.891  -4.979  -2.678  0.00  0.00    -0.202 F 
ENDBRANCH  14  15
ENDBRANCH   4  14
BRANCH   3  22
ATOM     22  C   UNL     1       0.009   0.109  -1.954  0.00  0.00    -0.036 C 
BRANCH  22  23
ATOM     23  N   UNL     1       1.243   0.570  -2.605  0.00  0.00    +0.386 N 
ATOM     24  H   UNL     1       1.680   1.278  -2.034  0.00  0.00    -0.081 HD
BRANCH  23  25
ATOM     25  C   UNL     1       2.163  -0.564  -2.769  0.00  0.00    -0.050 C 
BRANCH  25  26
ATOM     26  C   UNL     1       3.493  -0.064  -3.338  0.00  0.00    +0.141 C 
BRANCH  26  27
ATOM     27  O   UNL     1       4.100   0.836  -2.408  0.00  0.00    -0.385 OA
ATOM     28  C   UNL     1       5.354   1.364  -2.845  0.00  0.00    +0.193 C 
ENDBRANCH  26  27
ENDBRANCH  25  26
ENDBRANCH  23  25
BRANCH  23  29
ATOM     29  C   UNL     1       0.921   1.133  -3.923  0.00  0.00    -0.047 C 
BRANCH  29  30
ATOM     30  C   UNL     1       0.112   2.419  -3.744  0.00  0.00    +0.098 C 
BRANCH  30  31
ATOM     31  O   UNL     1      -1.184   2.099  -3.234  0.00  0.00    -0.394 OA
ATOM     32  H   UNL     1      -1.699   1.515  -3.808  0.00  0.00    +0.210 HD
ENDBRANCH  30  31
BRANCH  30  33
ATOM     33  C   UNL     1      -0.031   3.124  -5.094  0.00  0.00    +0.033 C 
BRANCH  33  34
ATOM     34  C   UNL     1      -0.732   4.470  -4.895  0.00  0.00    +0.029 C 
BRANCH  34  35
ATOM     35  C   UNL     1      -0.873   5.164  -6.225  0.00  0.00    -0.034 C 
ATOM     36  C   UNL     1      -2.053   5.557  -6.638  0.00  0.00    +0.004 C 
ENDBRANCH  34  35
ENDBRANCH  33  34
ENDBRANCH  30  33
ENDBRANCH  29  30
ENDBRANCH  23  29
ENDBRANCH  22  23
ENDBRANCH   3  22
TORSDOF 14
