REMARK  Name = ZINC34735037
REMARK  10 active torsions:
REMARK  status: ('A' for Active; 'I' for Inactive)
REMARK    1  A    between atoms: C_1  and  C_2
REMARK    2  A    between atoms: C_2  and  N_3
REMARK    3  A    between atoms: N_3  and  C_4
REMARK    4  A    between atoms: C_4  and  C_5
REMARK    5  A    between atoms: C_6  and  C_8
REMARK    6  A    between atoms: C_8  and  N_9
REMARK    7  A    between atoms: C_24  and  C_26
REMARK    8  A    between atoms: C_24  and  C_27
REMARK    9  A    between atoms: N_30  and  C_31
REMARK   10  A    between atoms: C_31  and  C_32
REMARK                            x       y       z     vdW  Elec       q    Type
REMARK                         _______ _______ _______ _____ _____    ______ ____
ROOT
ATOM      1  N   UNL     1      -2.933  -1.281   3.735  0.00  0.00    +0.387 N 
ATOM      2  C   UNL     1      -3.110  -1.569   5.164  0.00  0.00    -0.059 C 
ATOM      3  C   UNL     1      -4.524  -2.108   5.404  0.00  0.00    +0.089 C 
ATOM      4  N   UNL     1      -5.490  -1.144   4.854  0.00  0.00    -0.304 N 
ATOM      5  C   UNL     1      -5.292  -0.673   3.475  0.00  0.00    +0.089 C 
ATOM      6  C   UNL     1      -3.841  -0.202   3.326  0.00  0.00    -0.059 C 
ATOM      7  C   UNL     1      -6.547  -0.696   5.608  0.00  0.00    +0.202 A 
ATOM      8  N   UNL     1      -6.400   0.374   6.361  0.00  0.00    -0.208 NA
ATOM      9  C   UNL     1      -7.405   0.829   7.100  0.00  0.00    +0.118 A 
ATOM     10  C   UNL     1      -8.663   0.202   7.119  0.00  0.00    +0.076 A 
ATOM     11  C   UNL     1      -9.667   0.819   7.982  0.00  0.00    -0.018 A 
ATOM     12  C   UNL     1      -9.295   1.919   8.671  0.00  0.00    +0.021 A 
ATOM     13  S   UNL     1      -7.607   2.196   8.216  0.00  0.00    -0.071 S 
ATOM     14  C   UNL     1     -10.154   2.711   9.608  0.00  0.00    +0.203 C 
ATOM     15  O   UNL     1     -11.516   2.300   9.412  0.00  0.00    -0.368 OA
ATOM     16  C   UNL     1     -11.689   0.880   9.409  0.00  0.00    +0.068 C 
ATOM     17  C   UNL     1     -11.088   0.280   8.135  0.00  0.00    +0.071 C 
ATOM     18  C   UNL     1     -10.990   0.281  10.631  0.00  0.00    +0.041 C 
ATOM     19  C   UNL     1     -13.182   0.551   9.469  0.00  0.00    +0.041 C 
ATOM     20  C   UNL     1      -8.792  -0.958   6.290  0.00  0.00    +0.264 A 
ATOM     21  O   UNL     1      -9.846  -1.568   6.242  0.00  0.00    -0.267 OA
ATOM     22  N   UNL     1      -7.735  -1.363   5.562  0.00  0.00    -0.271 N 
ATOM     23  H   UNL     1      -3.136  -2.111   3.199  0.00  0.00    -0.081 HD
ENDROOT
BRANCH   1  24
ATOM     24  C   UNL     1      -1.544  -0.869   3.489  0.00  0.00    +0.019 C 
BRANCH  24  26
ATOM     25  N   UNL     1       0.712  -1.871   3.637  0.00  0.00    -0.304 N 
ATOM     26  C   UNL     1      -0.618  -2.019   3.792  0.00  0.00    +0.199 C 
ATOM     27  O   UNL     1      -1.070  -3.077   4.175  0.00  0.00    -0.278 OA
BRANCH  25  29
ATOM     28  C   UNL     1       2.035  -2.929   5.401  0.00  0.00    +0.024 C 
ATOM     29  C   UNL     1       1.613  -2.988   3.932  0.00  0.00    +0.104 C 
ENDBRANCH  25  29
BRANCH  25  30
ATOM     30  C   UNL     1       1.258  -0.593   3.174  0.00  0.00    +0.104 C 
ATOM     31  C   UNL     1       1.339  -0.596   1.646  0.00  0.00    +0.024 C 
ENDBRANCH  25  30
ENDBRANCH  24  26
ENDBRANCH   1  24
BRANCH  22  32
ATOM     32  C   UNL     1      -7.863  -2.546   4.708  0.00  0.00    +0.224 C 
BRANCH  32  33
ATOM     33  C   UNL     1      -7.571  -3.784   5.517  0.00  0.00    +0.236 C 
ATOM     34  O   UNL     1      -7.285  -3.687   6.691  0.00  0.00    -0.274 OA
ATOM     35  N   UNL     1      -7.628  -4.998   4.935  0.00  0.00    -0.297 N 
ATOM     36  C   UNL     1      -7.865  -5.796   3.729  0.00  0.00    +0.127 C 
ATOM     37  C   UNL     1      -7.492  -6.451   5.060  0.00  0.00    +0.127 C 
ENDBRANCH  32  33
ENDBRANCH  22  32
TORSDOF 6
