REMARK  Name = ZINC35188579
REMARK  10 active torsions:
REMARK  status: ('A' for Active; 'I' for Inactive)
REMARK    1  A    between atoms: C_1  and  C_2
REMARK    2  A    between atoms: C_2  and  O_3
REMARK    3  A    between atoms: O_3  and  C_4
REMARK    4  A    between atoms: C_4  and  C_6
REMARK    5  A    between atoms: C_7  and  N_40
REMARK    6  A    between atoms: C_11  and  C_15
REMARK    7  A    between atoms: C_16  and  C_39
REMARK    8  A    between atoms: C_25  and  C_27
REMARK    9  A    between atoms: C_31  and  C_38
REMARK   10  A    between atoms: C_34  and  O_37
REMARK                            x       y       z     vdW  Elec       q    Type
REMARK                         _______ _______ _______ _____ _____    ______ ____
ROOT
ATOM      1  C   UNL     1       1.187  -3.235  -1.444  0.00  0.00    +0.119 A 
ATOM      2  C   UNL     1       1.500  -4.445  -2.043  0.00  0.00    +0.055 A 
ATOM      3  C   UNL     1       2.094  -4.421  -3.352  0.00  0.00    +0.031 A 
ATOM      4  C   UNL     1       2.467  -5.486  -4.196  0.00  0.00    -0.027 A 
ATOM      5  C   UNL     1       3.056  -5.198  -5.441  0.00  0.00    -0.018 A 
ATOM      6  C   UNL     1       3.285  -3.887  -5.834  0.00  0.00    +0.018 A 
ATOM      7  N   UNL     1       2.918  -2.879  -5.040  0.00  0.00    -0.352 N 
ATOM      8  C   UNL     1       2.353  -3.118  -3.881  0.00  0.00    +0.088 A 
ATOM      9  S   UNL     1       1.730  -2.028  -2.638  0.00  0.00    -0.062 S 
ATOM     10  C   UNL     1       3.943  -3.557  -7.148  0.00  0.00    +0.063 C 
ATOM     11  C   UNL     1       3.277  -6.502  -6.141  0.00  0.00    -0.002 C 
ATOM     12  C   UNL     1       4.494  -6.662  -7.019  0.00  0.00    +0.012 C 
ATOM     13  C   UNL     1       4.609  -8.131  -7.474  0.00  0.00    +0.005 C 
ATOM     14  C   UNL     1       4.692  -9.082  -6.295  0.00  0.00    +0.003 C 
ATOM     15  C   UNL     1       3.448  -8.951  -5.384  0.00  0.00    +0.001 C 
ATOM     16  C   UNL     1       3.365  -7.513  -4.989  0.00  0.00    +0.010 C 
ATOM     17  C   UNL     1       2.366  -6.975  -3.977  0.00  0.00    +0.021 C 
ATOM     18  C   UNL     1       0.937  -7.466  -4.144  0.00  0.00    +0.013 C 
ATOM     19  C   UNL     1       2.246  -9.575  -6.065  0.00  0.00    +0.031 C 
ATOM     20  C   UNL     1       2.568 -10.992  -6.473  0.00  0.00    -0.027 C 
ATOM     21  C   UNL     1       3.767 -11.389  -6.746  0.00  0.00    -0.065 C 
ATOM     22  C   UNL     1       4.991 -10.516  -6.651  0.00  0.00    -0.008 C 
ATOM     23  C   UNL     1       5.944 -11.150  -5.628  0.00  0.00    +0.014 C 
ATOM     24  C   UNL     1       5.389 -12.485  -5.140  0.00  0.00    +0.032 C 
ATOM     25  C   UNL     1       5.088 -13.424  -6.304  0.00  0.00    +0.119 C 
ATOM     26  C   UNL     1       3.987 -12.827  -7.186  0.00  0.00    +0.062 C 
ATOM     27  C   UNL     1       5.703 -10.577  -8.010  0.00  0.00    +0.016 C 
ATOM     28  C   UNL     1       2.042  -6.683  -7.020  0.00  0.00    +0.016 C 
ATOM     29  H   UNL     1       3.071  -1.960  -5.330  0.00  0.00    +0.166 HD
ENDROOT
BRANCH   2  30
ATOM     30  N   UNL     1       1.243  -5.639  -1.385  0.00  0.00    -0.356 N 
ATOM     31  H   UNL     1       0.842  -5.629  -0.502  0.00  0.00    +0.142 HD
ATOM     32  H   UNL     1       1.464  -6.483  -1.808  0.00  0.00    +0.142 HD
ENDBRANCH   2  30
BRANCH   1  33
ATOM     33  C   UNL     1       0.588  -3.023  -0.181  0.00  0.00    +0.348 C 
ATOM     34  O   UNL     1       0.276  -3.973   0.512  0.00  0.00    -0.244 OA
BRANCH  33  35
ATOM     35  O   UNL     1       0.362  -1.766   0.256  0.00  0.00    -0.461 OA
BRANCH  35  37
ATOM     36  C   UNL     1      -0.421  -0.140   1.863  0.00  0.00    +0.048 C 
ATOM     37  C   UNL     1      -0.246  -1.625   1.541  0.00  0.00    +0.229 C 
ENDBRANCH  35  37
ENDBRANCH  33  35
ENDBRANCH   1  33
BRANCH  25  38
ATOM     38  O   UNL     1       6.272 -13.625  -7.078  0.00  0.00    -0.391 OA
ATOM     39  H   UNL     1       6.152 -14.213  -7.836  0.00  0.00    +0.210 HD
ENDBRANCH  25  38
TORSDOF 5
