REMARK  Name = ZINC07417461
REMARK  10 active torsions:
REMARK  status: ('A' for Active; 'I' for Inactive)
REMARK    1  A    between atoms: C_1  and  C_2
REMARK    2  A    between atoms: C_4  and  C_30
REMARK    3  A    between atoms: C_5  and  S_9
REMARK    4  A    between atoms: C_6  and  C_8
REMARK    5  A    between atoms: S_9  and  N_12
REMARK    6  A    between atoms: C_17  and  C_19
REMARK    7  A    between atoms: C_17  and  C_20
REMARK    8  A    between atoms: C_17  and  N_61
REMARK    9  A    between atoms: N_22  and  C_23
REMARK   10  A    between atoms: N_22  and  C_24
REMARK                            x       y       z     vdW  Elec       q    Type
REMARK                         _______ _______ _______ _____ _____    ______ ____
ROOT
ATOM      1  N   UNL     1      -4.151  -1.787  -1.037  0.00  0.00    -0.180 NA
ATOM      2  C   UNL     1      -4.644  -0.495  -1.538  0.00  0.00    +0.091 C 
ATOM      3  C   UNL     1      -3.485   0.235  -2.224  0.00  0.00    -0.060 C 
ATOM      4  C   UNL     1      -1.841  -1.013  -0.951  0.00  0.00    -0.060 C 
ATOM      5  C   UNL     1      -2.933  -1.794  -0.212  0.00  0.00    +0.091 C 
ATOM      6  N   UNL     1      -2.357   0.336  -1.272  0.00  0.00    +0.389 N 
ATOM      7  H   UNL     1      -2.690   0.779  -0.408  0.00  0.00    -0.081 HD
ENDROOT
BRANCH   1   8
ATOM      8  S   UNL     1      -4.947  -3.196  -1.390  0.00  0.00    +0.061 S 
ATOM      9  O   UNL     1      -4.717  -4.077  -0.299  0.00  0.00    -0.153 OA
ATOM     10  O   UNL     1      -6.253  -2.829  -1.812  0.00  0.00    -0.153 OA
BRANCH   8  15
ATOM     11  C   UNL     1      -2.209  -5.635  -6.182  0.00  0.00    +0.044 C 
ATOM     12  C   UNL     1      -2.892  -5.025  -4.985  0.00  0.00    -0.050 A 
ATOM     13  C   UNL     1      -3.721  -3.931  -5.146  0.00  0.00    +0.008 A 
ATOM     14  C   UNL     1      -4.348  -3.372  -4.048  0.00  0.00    -0.024 A 
ATOM     15  C   UNL     1      -4.147  -3.908  -2.790  0.00  0.00    +0.111 A 
ATOM     16  C   UNL     1      -3.314  -5.000  -2.629  0.00  0.00    -0.024 A 
ATOM     17  C   UNL     1      -2.691  -5.561  -3.727  0.00  0.00    +0.008 A 
ATOM     18  C   UNL     1      -3.090  -5.580  -1.256  0.00  0.00    +0.046 C 
ATOM     19  C   UNL     1      -5.252  -2.178  -4.223  0.00  0.00    +0.046 C 
ENDBRANCH   8  15
ENDBRANCH   1   8
BRANCH   6  20
ATOM     20  C   UNL     1      -1.280   1.163  -1.852  0.00  0.00    +0.017 C 
ATOM     21  C   UNL     1      -0.975   0.721  -3.285  0.00  0.00    -0.004 C 
BRANCH  20  22
ATOM     22  C   UNL     1      -1.724   2.603  -1.854  0.00  0.00    +0.206 C 
ATOM     23  O   UNL     1      -2.892   2.877  -1.678  0.00  0.00    -0.277 OA
ATOM     24  N   UNL     1      -0.823   3.586  -2.053  0.00  0.00    -0.276 N 
ATOM     25  C   UNL     1       0.569   3.252  -2.362  0.00  0.00    +0.138 C 
BRANCH  24  26
ATOM     26  C   UNL     1      -1.218   4.925  -1.963  0.00  0.00    +0.036 A 
ATOM     27  C   UNL     1      -1.038   5.778  -3.045  0.00  0.00    +0.023 A 
ATOM     28  C   UNL     1      -1.434   7.098  -2.955  0.00  0.00    +0.002 A 
ATOM     29  C   UNL     1      -1.999   7.574  -1.786  0.00  0.00    +0.000 A 
ATOM     30  C   UNL     1      -2.175   6.729  -0.705  0.00  0.00    +0.002 A 
ATOM     31  C   UNL     1      -1.786   5.407  -0.791  0.00  0.00    +0.023 A 
ENDBRANCH  24  26
ENDBRANCH  20  22
ENDBRANCH   6  20
TORSDOF 5
