REMARK  Name = ZINC35193587
REMARK  8 active torsions:
REMARK  status: ('A' for Active; 'I' for Inactive)
REMARK    1  A    between atoms: C_1  and  C_2
REMARK    2  A    between atoms: C_2  and  O_3
REMARK    3  A    between atoms: O_3  and  C_4
REMARK    4  A    between atoms: C_4  and  C_6
REMARK    5  A    between atoms: C_6  and  C_28
REMARK    6  A    between atoms: C_7  and  C_22
REMARK    7  A    between atoms: C_17  and  C_20
REMARK    8  A    between atoms: C_18  and  N_19
REMARK                            x       y       z     vdW  Elec       q    Type
REMARK                         _______ _______ _______ _____ _____    ______ ____
ROOT
ATOM      1  C   UNL     1       1.468  -2.354  -2.550  0.00  0.00    +0.202 C 
ATOM      2  C   UNL     1       1.477  -3.876  -2.489  0.00  0.00    +0.082 C 
ATOM      3  C   UNL     1       2.385  -4.375  -1.381  0.00  0.00    -0.055 C 
ATOM      4  C   UNL     1       3.506  -3.759  -1.078  0.00  0.00    -0.029 C 
ATOM      5  C   UNL     1       4.545  -4.020  -0.005  0.00  0.00    +0.036 C 
ATOM      6  C   UNL     1       4.263  -5.202   0.920  0.00  0.00    +0.005 C 
ATOM      7  C   UNL     1       4.535  -6.529   0.225  0.00  0.00    +0.000 C 
ATOM      8  C   UNL     1       4.187  -6.561  -1.244  0.00  0.00    +0.000 C 
ATOM      9  C   UNL     1       2.688  -6.832  -1.258  0.00  0.00    +0.004 C 
ATOM     10  C   UNL     1       1.907  -5.640  -0.710  0.00  0.00    +0.032 C 
ATOM     11  C   UNL     1       3.842  -2.537  -1.885  0.00  0.00    +0.073 C 
ATOM     12  C   UNL     1       2.897  -1.874  -2.591  0.00  0.00    +0.051 C 
ENDROOT
BRANCH   2  13
ATOM     13  C   UNL     1       1.942  -4.432  -3.810  0.00  0.00    -0.038 A 
ATOM     14  C   UNL     1       3.200  -4.116  -4.288  0.00  0.00    +0.004 A 
ATOM     15  C   UNL     1       3.628  -4.626  -5.500  0.00  0.00    +0.000 A 
ATOM     16  C   UNL     1       2.797  -5.452  -6.234  0.00  0.00    +0.000 A 
ATOM     17  C   UNL     1       1.539  -5.768  -5.755  0.00  0.00    +0.000 A 
ATOM     18  C   UNL     1       1.114  -5.262  -4.542  0.00  0.00    +0.004 A 
ENDBRANCH   2  13
BRANCH  12  19
ATOM     19  N   UNL     1       3.236  -0.778  -3.336  0.00  0.00    -0.359 N 
ATOM     20  H   UNL     1       2.556  -0.305  -3.840  0.00  0.00    +0.142 HD
ATOM     21  H   UNL     1       4.157  -0.473  -3.359  0.00  0.00    +0.142 HD
ENDBRANCH  12  19
BRANCH   1  22
ATOM     22  C   UNL     1       0.775  -1.794  -1.334  0.00  0.00    +0.334 C 
ATOM     23  O   UNL     1       0.314  -2.540  -0.504  0.00  0.00    -0.249 OA
BRANCH  22  24
ATOM     24  O   UNL     1       0.671  -0.465  -1.174  0.00  0.00    -0.464 OA
BRANCH  24  26
ATOM     25  C   UNL     1      -0.019   1.526   0.010  0.00  0.00    +0.048 C 
ATOM     26  C   UNL     1       0.002  -0.004   0.002  0.00  0.00    +0.229 C 
ENDBRANCH  24  26
ENDBRANCH  22  24
ENDBRANCH   1  22
BRANCH  11  27
ATOM     27  C   UNL     1       5.190  -2.052  -1.926  0.00  0.00    +0.101 C 
ATOM     28  N   UNL     1       6.258  -1.668  -1.959  0.00  0.00    -0.191 NA
ENDBRANCH  11  27
BRANCH   1  29
ATOM     29  C   UNL     1       0.763  -1.909  -3.765  0.00  0.00    +0.088 C 
ATOM     30  N   UNL     1       0.219  -1.567  -4.702  0.00  0.00    -0.195 NA
ENDBRANCH   1  29
TORSDOF 7
