REMARK  Name = ZINC43287086
REMARK  6 active torsions:
REMARK  status: ('A' for Active; 'I' for Inactive)
REMARK    1  A    between atoms: C_1  and  N_2
REMARK    2  A    between atoms: C_3  and  C_5
REMARK    3  A    between atoms: N_10  and  C_11
REMARK    4  A    between atoms: C_11  and  C_13
REMARK    5  A    between atoms: C_11  and  C_15
REMARK    6  A    between atoms: C_13  and  N_14
REMARK                            x       y       z     vdW  Elec       q    Type
REMARK                         _______ _______ _______ _____ _____    ______ ____
ROOT
ATOM      1  C   UNL     1       0.625  -2.182   0.995  0.00  0.00    +0.020 C 
ATOM      2  C   UNL     1      -0.815  -2.727   1.052  0.00  0.00    -0.008 C 
ATOM      3  C   UNL     1      -0.871  -3.586   2.336  0.00  0.00    -0.020 C 
ATOM      4  C   UNL     1       0.618  -3.929   2.589  0.00  0.00    -0.077 C 
ATOM      5  N   UNL     1       1.330  -2.683   2.195  0.00  0.00    +0.393 N 
ATOM      6  H   UNL     1       1.277  -2.003   2.939  0.00  0.00    -0.080 HD
ENDROOT
BRANCH   1   9
ATOM      7  C   UNL     1      -0.018   1.461   0.010  0.00  0.00    +0.128 C 
ATOM      8  N   UNL     1       0.002  -0.004   0.002  0.00  0.00    -0.320 N 
ATOM      9  C   UNL     1       0.604  -0.675   1.004  0.00  0.00    +0.199 C 
ATOM     10  O   UNL     1       1.130  -0.067   1.911  0.00  0.00    -0.278 OA
ATOM     11  H   UNL     1      -0.418  -0.491  -0.724  0.00  0.00    +0.148 HD
ENDBRANCH   1   9
BRANCH   5  12
ATOM     12  C   UNL     1       2.733  -2.976   1.873  0.00  0.00    -0.016 C 
BRANCH  12  13
ATOM     13  C   UNL     1       3.436  -3.485   3.105  0.00  0.00    -0.021 A 
ATOM     14  C   UNL     1       4.352  -4.478   3.216  0.00  0.00    +0.025 A 
ATOM     15  C   UNL     1       4.869  -4.776   4.463  0.00  0.00    +0.025 A 
ATOM     16  C   UNL     1       4.443  -4.067   5.538  0.00  0.00    +0.060 A 
ATOM     17  S   UNL     1       3.284  -2.931   4.795  0.00  0.00    -0.102 S 
ATOM     18 BR   UNL     1       6.148  -6.153   4.668  0.00  0.00    -0.050 Br
ENDBRANCH  12  13
BRANCH  12  19
ATOM     19  C   UNL     1       3.421  -1.700   1.383  0.00  0.00    +0.067 C 
BRANCH  19  20
ATOM     20  N   UNL     1       2.666  -1.138   0.256  0.00  0.00    -0.331 NA
ATOM     21  H   UNL     1       3.100  -0.294  -0.086  0.00  0.00    +0.118 HD
ATOM     22  H   UNL     1       2.562  -1.817  -0.484  0.00  0.00    +0.118 HD
ENDBRANCH  19  20
ENDBRANCH  12  19
ENDBRANCH   5  12
TORSDOF 5
