REMARK  Name = ZINC16508370
REMARK  13 active torsions:
REMARK  status: ('A' for Active; 'I' for Inactive)
REMARK    1  A    between atoms: C_1  and  C_2
REMARK    2  A    between atoms: C_2  and  C_3
REMARK    3  A    between atoms: C_3  and  C_4
REMARK    4  A    between atoms: C_4  and  C_5
REMARK    5  A    between atoms: C_5  and  C_6
REMARK    6  A    between atoms: C_6  and  C_7
REMARK    7  A    between atoms: N_9  and  C_10
REMARK    8  A    between atoms: N_9  and  C_13
REMARK    9  A    between atoms: C_10  and  C_11
REMARK   10  A    between atoms: C_13  and  C_14
REMARK   11  A    between atoms: C_24  and  C_26
REMARK   12  A    between atoms: C_29  and  O_32
REMARK   13  A    between atoms: O_32  and  C_33
REMARK                            x       y       z     vdW  Elec       q    Type
REMARK                         _______ _______ _______ _____ _____    ______ ____
ROOT
ATOM      1  C   UNL     1       0.332   0.845  -3.145  0.00  0.00    +0.234 C 
ATOM      2  O   UNL     1       0.721   1.948  -2.823  0.00  0.00    -0.274 OA
ATOM      3  N   UNL     1      -0.223   0.654  -4.358  0.00  0.00    -0.289 N 
ATOM      4  C   UNL     1      -0.693  -0.680  -4.761  0.00  0.00    +0.114 C 
ATOM      5  C   UNL     1      -2.223  -0.615  -4.937  0.00  0.00    +0.062 C 
ATOM      6  C   UNL     1      -2.567   0.643  -5.666  0.00  0.00    -0.003 A 
ATOM      7  C   UNL     1      -1.784   1.740  -5.857  0.00  0.00    -0.012 A 
ATOM      8  C   UNL     1      -2.348   2.794  -6.573  0.00  0.00    +0.013 A 
ATOM      9  C   UNL     1      -3.613   2.693  -7.042  0.00  0.00    +0.046 A 
ATOM     10  S   UNL     1      -4.085   1.064  -6.481  0.00  0.00    -0.101 S 
ATOM     11  C   UNL     1      -0.363   1.774  -5.298  0.00  0.00    +0.137 C 
ENDROOT
BRANCH  11  12
ATOM     12  C   UNL     1       0.632   1.624  -6.421  0.00  0.00    -0.022 A 
ATOM     13  C   UNL     1       0.540   0.550  -7.286  0.00  0.00    +0.009 A 
ATOM     14  C   UNL     1       1.447   0.414  -8.319  0.00  0.00    +0.046 A 
ATOM     15  C   UNL     1       2.457   1.350  -8.481  0.00  0.00    +0.120 A 
ATOM     16  C   UNL     1       2.551   2.425  -7.608  0.00  0.00    +0.046 A 
ATOM     17  C   UNL     1       1.638   2.559  -6.580  0.00  0.00    +0.009 A 
BRANCH  15  18
ATOM     18  O   UNL     1       3.355   1.215  -9.493  0.00  0.00    -0.495 OA
ATOM     19  C   UNL     1       3.197   0.085 -10.353  0.00  0.00    +0.277 C 
ENDBRANCH  15  18
ENDBRANCH  11  12
BRANCH   1  20
ATOM     20  C   UNL     1       0.470  -0.311  -2.188  0.00  0.00    +0.204 C 
BRANCH  20  23
ATOM     21  C   UNL     1       2.441   0.124  -0.823  0.00  0.00    +0.216 C 
ATOM     22  O   UNL     1       3.127  -0.285  -1.735  0.00  0.00    -0.276 OA
ATOM     23  N   UNL     1       1.099   0.152  -0.949  0.00  0.00    -0.289 N 
BRANCH  21  24
ATOM     24  C   UNL     1       3.088   0.601   0.452  0.00  0.00    +0.096 C 
BRANCH  24  25
ATOM     25  C   UNL     1       4.607   0.464   0.335  0.00  0.00    +0.009 C 
BRANCH  25  26
ATOM     26  C   UNL     1       5.264   0.948   1.629  0.00  0.00    +0.000 C 
BRANCH  26  27
ATOM     27  C   UNL     1       6.784   0.811   1.512  0.00  0.00    -0.000 C 
BRANCH  27  29
ATOM     28  C   UNL     1       8.960   1.158   2.689  0.00  0.00    +0.004 C 
ATOM     29  C   UNL     1       7.440   1.295   2.806  0.00  0.00    -0.003 C 
ENDBRANCH  27  29
ENDBRANCH  26  27
ENDBRANCH  25  26
ENDBRANCH  24  25
ENDBRANCH  21  24
BRANCH  23  30
ATOM     30  C   UNL     1       0.270   0.647   0.153  0.00  0.00    +0.135 C 
BRANCH  30  31
ATOM     31  C   UNL     1       0.063   2.131  -0.001  0.00  0.00    -0.016 C 
ATOM     32  C   UNL     1      -1.150   2.624  -0.035  0.00  0.00    +0.005 C 
ENDBRANCH  30  31
ENDBRANCH  23  30
ENDBRANCH  20  23
ENDBRANCH   1  20
TORSDOF 11
