REMARK  Name = ZINC06473902
REMARK  4 active torsions:
REMARK  status: ('A' for Active; 'I' for Inactive)
REMARK    1  A    between atoms: C_5  and  N_7
REMARK    2  A    between atoms: C_8  and  C_10
REMARK    3  A    between atoms: C_10  and  C_11
REMARK    4  A    between atoms: N_17  and  C_18
REMARK                            x       y       z     vdW  Elec       q    Type
REMARK                         _______ _______ _______ _____ _____    ______ ____
ROOT
ATOM      1  C   UNL     1       0.003  -0.004  -0.022  0.00  0.00    +0.149 C 
ATOM      2  C   UNL     1      -1.401  -0.574  -0.147  0.00  0.00    +0.232 C 
ATOM      3  O   UNL     1      -2.097  -0.361  -1.116  0.00  0.00    -0.274 OA
ATOM      4  N   UNL     1      -1.815  -1.314   0.867  0.00  0.00    -0.264 N 
ATOM      5  C   UNL     1      -1.025  -1.558   1.973  0.00  0.00    +0.157 C 
ATOM      6  N   UNL     1      -1.314  -2.265   3.029  0.00  0.00    -0.260 NA
ATOM      7  S   UNL     1       0.488  -0.678   1.617  0.00  0.00    -0.077 S 
ATOM      8  H   UNL     1      -2.820  -1.760   0.848  0.00  0.00    +0.157 HD
ENDROOT
BRANCH   6   9
ATOM      9  C   UNL     1      -0.333  -2.407   4.107  0.00  0.00    +0.108 C 
ATOM     10  C   UNL     1      -0.019  -3.898   4.344  0.00  0.00    +0.027 C 
ATOM     11  C   UNL     1       0.150  -4.012   5.880  0.00  0.00    +0.002 C 
ATOM     12  C   UNL     1      -0.937  -3.046   6.416  0.00  0.00    +0.002 C 
ATOM     13  C   UNL     1      -0.916  -1.865   5.425  0.00  0.00    +0.027 C 
ENDBRANCH   6   9
BRANCH   1  14
ATOM     14  C   UNL     1      -0.018   1.525  -0.008  0.00  0.00    +0.120 C 
BRANCH  14  16
ATOM     15  N   UNL     1       1.623   3.376   0.005  0.00  0.00    -0.284 N 
ATOM     16  C   UNL     1       1.396   2.047  -0.007  0.00  0.00    +0.219 C 
ATOM     17  O   UNL     1       2.328   1.272  -0.016  0.00  0.00    -0.275 OA
ATOM     18  H   UNL     1       0.780   4.079  -0.061  0.00  0.00    +0.155 HD
BRANCH  15  23
ATOM     19  C   UNL     1       5.266   3.655  -0.413  0.00  0.00    +0.002 A 
ATOM     20  C   UNL     1       5.523   4.819   0.290  0.00  0.00    +0.002 A 
ATOM     21  C   UNL     1       4.488   5.505   0.898  0.00  0.00    +0.022 A 
ATOM     22  C   UNL     1       3.193   5.029   0.806  0.00  0.00    +0.062 A 
ATOM     23  C   UNL     1       2.933   3.860   0.100  0.00  0.00    +0.052 A 
ATOM     24  C   UNL     1       3.976   3.171  -0.504  0.00  0.00    +0.025 A 
ATOM     25 CL   UNL     1       1.894   5.890   1.571  0.00  0.00    -0.082 Cl
ENDBRANCH  15  23
ENDBRANCH  14  16
ENDBRANCH   1  14
TORSDOF 4
