REMARK  Name = ZINC34998439
REMARK  12 active torsions:
REMARK  status: ('A' for Active; 'I' for Inactive)
REMARK    1  A    between atoms: C_1  and  C_2
REMARK    2  A    between atoms: C_2  and  C_3
REMARK    3  A    between atoms: C_3  and  C_4
REMARK    4  A    between atoms: C_4  and  N_5
REMARK    5  A    between atoms: C_13  and  C_15
REMARK    6  A    between atoms: C_16  and  C_18
REMARK    7  A    between atoms: C_18  and  C_20
REMARK    8  A    between atoms: C_18  and  N_23
REMARK    9  A    between atoms: C_20  and  C_21
REMARK   10  A    between atoms: C_20  and  C_22
REMARK   11  A    between atoms: N_23  and  S_24
REMARK   12  A    between atoms: S_24  and  C_27
REMARK                            x       y       z     vdW  Elec       q    Type
REMARK                         _______ _______ _______ _____ _____    ______ ____
ROOT
ATOM      1  N   UNL     1       3.575  -2.797   1.370  0.00  0.00    -0.299 N 
ATOM      2  C   UNL     1       3.756  -4.126   1.506  0.00  0.00    +0.303 C 
ATOM      3  O   UNL     1       3.551  -4.867   0.564  0.00  0.00    -0.253 OA
ATOM      4  N   UNL     1       4.162  -4.633   2.687  0.00  0.00    -0.280 N 
ATOM      5  C   UNL     1       4.301  -3.767   3.865  0.00  0.00    +0.128 C 
ATOM      6  C   UNL     1       5.727  -3.909   4.413  0.00  0.00    +0.127 C 
ATOM      7  N   UNL     1       6.039  -5.339   4.544  0.00  0.00    -0.297 N 
ATOM      8  C   UNL     1       5.900  -6.205   3.365  0.00  0.00    +0.130 C 
ATOM      9  C   UNL     1       4.470  -6.065   2.819  0.00  0.00    +0.092 C 
ATOM     10  C   UNL     1       3.480  -6.714   3.788  0.00  0.00    +0.030 C 
ATOM     11  C   UNL     1       6.446  -5.847   5.725  0.00  0.00    +0.235 C 
ATOM     12  O   UNL     1       6.767  -7.014   5.805  0.00  0.00    -0.274 OA
ATOM     13  H   UNL     1       3.667  -2.214   2.140  0.00  0.00    +0.150 HD
ENDROOT
BRANCH   1  14
ATOM     14  C   UNL     1       3.241  -2.233   0.060  0.00  0.00    +0.106 C 
BRANCH  14  15
ATOM     15  C   UNL     1       3.092  -0.715   0.181  0.00  0.00    +0.018 C 
BRANCH  15  17
ATOM     16  C   UNL     1       2.594   1.391  -1.067  0.00  0.00    +0.004 C 
ATOM     17  C   UNL     1       2.743  -0.127  -1.187  0.00  0.00    -0.002 C 
ENDBRANCH  15  17
ENDBRANCH  14  15
ENDBRANCH   1  14
BRANCH  11  18
ATOM     18  C   UNL     1       6.502  -4.965   6.945  0.00  0.00    +0.165 C 
BRANCH  18  19
ATOM     19  C   UNL     1       7.649  -3.963   6.799  0.00  0.00    +0.010 C 
ATOM     20  C   UNL     1       7.697  -3.059   8.032  0.00  0.00    +0.009 C 
ATOM     21  C   UNL     1       8.973  -4.720   6.669  0.00  0.00    +0.009 C 
ENDBRANCH  18  19
BRANCH  18  22
ATOM     22  N   UNL     1       6.723  -5.790   8.135  0.00  0.00    -0.178 NA
ATOM     23  H   UNL     1       7.605  -6.151   8.318  0.00  0.00    +0.149 HD
BRANCH  22  24
ATOM     24  S   UNL     1       5.468  -6.109   9.167  0.00  0.00    +0.061 S 
ATOM     25  O   UNL     1       6.010  -6.856  10.248  0.00  0.00    -0.153 OA
ATOM     26  O   UNL     1       4.779  -4.881   9.360  0.00  0.00    -0.153 OA
BRANCH  24  27
ATOM     27  C   UNL     1       4.357  -7.183   8.320  0.00  0.00    +0.125 A 
ATOM     28  C   UNL     1       4.316  -8.527   8.640  0.00  0.00    +0.050 A 
ATOM     29  C   UNL     1       3.443  -9.370   7.975  0.00  0.00    +0.043 A 
ATOM     30  C   UNL     1       2.612  -8.868   6.990  0.00  0.00    +0.021 A 
ATOM     31  C   UNL     1       2.654  -7.524   6.669  0.00  0.00    +0.023 A 
ATOM     32  C   UNL     1       3.522  -6.680   7.338  0.00  0.00    +0.067 A 
ATOM     33 CL   UNL     1       3.569  -4.991   6.941  0.00  0.00    -0.082 Cl
ATOM     34 CL   UNL     1       3.392 -11.058   8.377  0.00  0.00    -0.083 Cl
ENDBRANCH  24  27
ENDBRANCH  22  24
ENDBRANCH  18  22
ENDBRANCH  11  18
TORSDOF 8
