REMARK  Name = ZINC63831366
REMARK  8 active torsions:
REMARK  status: ('A' for Active; 'I' for Inactive)
REMARK    1  A    between atoms: C_1  and  N_2
REMARK    2  A    between atoms: C_4  and  S_12
REMARK    3  A    between atoms: N_8  and  C_11
REMARK    4  A    between atoms: S_12  and  N_15
REMARK    5  A    between atoms: N_15  and  C_16
REMARK    6  A    between atoms: C_16  and  C_17
REMARK    7  A    between atoms: C_17  and  C_19
REMARK    8  A    between atoms: C_17  and  C_24
REMARK                            x       y       z     vdW  Elec       q    Type
REMARK                         _______ _______ _______ _____ _____    ______ ____
ROOT
ATOM      1  C   UNL     1       0.366  -3.771   3.301  0.00  0.00    +0.118 C 
ENDROOT
BRANCH   1   2
ATOM      2  N   UNL     1      -0.892  -3.026   3.392  0.00  0.00    -0.193 NA
ATOM      3  H   UNL     1      -1.658  -3.420   3.838  0.00  0.00    +0.148 HD
BRANCH   2   4
ATOM      4  S   UNL     1      -1.008  -1.511   2.732  0.00  0.00    +0.042 S 
ATOM      5  O   UNL     1       0.091  -0.794   3.278  0.00  0.00    -0.157 OA
ATOM      6  O   UNL     1      -2.342  -1.102   2.996  0.00  0.00    -0.157 OA
BRANCH   4  10
ATOM      7  C   UNL     1      -4.344  -2.816   0.681  0.00  0.00    +0.133 C 
ATOM      8  N   UNL     1      -3.127  -2.060   0.373  0.00  0.00    -0.286 N 
ATOM      9  C   UNL     1      -1.828  -2.732   0.425  0.00  0.00    +0.146 C 
ATOM     10  C   UNL     1      -0.770  -1.759   0.951  0.00  0.00    +0.251 C 
ATOM     11  C   UNL     1      -0.910  -0.440   0.235  0.00  0.00    +0.250 C 
ATOM     12  O   UNL     1       0.074   0.225  -0.009  0.00  0.00    -0.273 OA
ATOM     13  N   UNL     1      -2.127  -0.001  -0.134  0.00  0.00    -0.227 N 
ATOM     14  C   UNL     1      -3.220  -0.762   0.041  0.00  0.00    +0.311 C 
ATOM     15  O   UNL     1      -4.320  -0.263  -0.100  0.00  0.00    -0.252 OA
ATOM     16  C   UNL     1      -2.262   1.325  -0.742  0.00  0.00    +0.143 C 
ENDBRANCH   4  10
ENDBRANCH   2   4
ENDBRANCH   1   2
BRANCH   1  17
ATOM     17  C   UNL     1       0.349  -4.924   4.306  0.00  0.00    +0.069 C 
BRANCH  17  18
ATOM     18  C   UNL     1       1.689  -5.615   4.300  0.00  0.00    -0.032 C 
ATOM     19  C   UNL     1       2.535  -5.757   5.346  0.00  0.00    -0.000 A 
ATOM     20  C   UNL     1       2.464  -5.328   6.748  0.00  0.00    +0.010 A 
ATOM     21  C   UNL     1       3.491  -5.623   7.577  0.00  0.00    +0.001 A 
ATOM     22  C   UNL     1       4.619  -6.327   7.132  0.00  0.00    +0.002 A 
ATOM     23  C   UNL     1       4.756  -6.755   5.859  0.00  0.00    +0.026 A 
ATOM     24  C   UNL     1       3.736  -6.500   4.901  0.00  0.00    +0.043 A 
ATOM     25  N   UNL     1       3.636  -6.805   3.630  0.00  0.00    -0.380 N 
ATOM     26  C   UNL     1       2.356  -6.294   3.126  0.00  0.00    +0.145 C 
ATOM     27  H   UNL     1       4.296  -7.290   3.111  0.00  0.00    +0.160 HD
ENDBRANCH  17  18
BRANCH  17  28
ATOM     28  C   UNL     1      -0.725  -5.909   3.923  0.00  0.00    -0.002 A 
ATOM     29  C   UNL     1      -1.811  -6.306   4.631  0.00  0.00    +0.012 A 
ATOM     30  C   UNL     1      -2.672  -7.232   4.073  0.00  0.00    +0.008 A 
ATOM     31  C   UNL     1      -2.407  -7.714   2.834  0.00  0.00    +0.045 A 
ATOM     32  S   UNL     1      -0.903  -6.848   2.415  0.00  0.00    -0.101 S 
ENDBRANCH  17  28
ENDBRANCH   1  17
TORSDOF 6
