REMARK  Name = ZINC17952094
REMARK  8 active torsions:
REMARK  status: ('A' for Active; 'I' for Inactive)
REMARK    1  A    between atoms: C_1  and  O_2
REMARK    2  A    between atoms: O_2  and  C_3
REMARK    3  A    between atoms: C_3  and  C_5
REMARK    4  A    between atoms: C_5  and  C_15
REMARK    5  A    between atoms: C_15  and  C_17
REMARK    6  A    between atoms: C_17  and  S_18
REMARK    7  A    between atoms: S_18  and  C_19
REMARK    8  A    between atoms: N_23  and  C_24
REMARK                            x       y       z     vdW  Elec       q    Type
REMARK                         _______ _______ _______ _____ _____    ______ ____
ROOT
ATOM      1  C   UNL     1      -1.344   1.978  -0.332  0.00  0.00    +0.157 C 
ENDROOT
BRANCH   1   2
ATOM      2  C   UNL     1      -0.022   1.258  -0.396  0.00  0.00    +0.183 C 
ATOM      3  O   UNL     1       0.020   0.051  -0.257  0.00  0.00    -0.291 OA
BRANCH   2   4
ATOM      4  C   UNL     1       1.163   1.981  -0.621  0.00  0.00    +0.138 C 
ATOM      5  C   UNL     1       2.398   1.307  -0.686  0.00  0.00    +0.110 C 
ATOM      6  N   UNL     1       2.571  -0.031  -0.541  0.00  0.00    -0.301 N 
ATOM      7  C   UNL     1       3.925  -0.313  -0.673  0.00  0.00    +0.054 A 
ATOM      8  C   UNL     1       4.659  -1.490  -0.619  0.00  0.00    +0.025 A 
ATOM      9  C   UNL     1       6.029  -1.454  -0.784  0.00  0.00    +0.002 A 
ATOM     10  C   UNL     1       6.675  -0.249  -1.004  0.00  0.00    +0.002 A 
ATOM     11  C   UNL     1       5.955   0.927  -1.060  0.00  0.00    +0.025 A 
ATOM     12  C   UNL     1       4.577   0.903  -0.894  0.00  0.00    +0.054 A 
ATOM     13  N   UNL     1       3.603   1.894  -0.898  0.00  0.00    -0.301 N 
ATOM     14  H   UNL     1       1.869  -0.680  -0.376  0.00  0.00    +0.153 HD
ATOM     15  H   UNL     1       3.758   2.842  -1.029  0.00  0.00    +0.153 HD
BRANCH   4  16
ATOM     16  C   UNL     1       1.113   3.432  -0.788  0.00  0.00    +0.345 C 
ATOM     17  O   UNL     1       2.138   4.058  -0.984  0.00  0.00    -0.245 OA
BRANCH  16  19
ATOM     18  C   UNL     1      -0.044   5.496  -0.898  0.00  0.00    +0.280 C 
ATOM     19  O   UNL     1      -0.070   4.078  -0.726  0.00  0.00    -0.464 OA
ENDBRANCH  16  19
ENDBRANCH   4  16
ENDBRANCH   2   4
ENDBRANCH   1   2
BRANCH   1  20
ATOM     20  S   UNL     1      -2.673   0.779  -0.040  0.00  0.00    -0.078 S 
BRANCH  20  21
ATOM     21  C   UNL     1      -4.133   1.764   0.008  0.00  0.00    +0.198 A 
ATOM     22  N   UNL     1      -4.190   3.066  -0.135  0.00  0.00    -0.120 NA
ATOM     23  N   UNL     1      -5.532   3.455  -0.036  0.00  0.00    -0.112 NA
ATOM     24  C   UNL     1      -6.253   2.381   0.173  0.00  0.00    +0.225 A 
ATOM     25  N   UNL     1      -5.408   1.305   0.206  0.00  0.00    -0.259 N 
ATOM     26  N   UNL     1      -7.632   2.342   0.334  0.00  0.00    -0.299 N 
ATOM     27  C   UNL     1      -8.315   2.864  -0.857  0.00  0.00    +0.108 C 
ATOM     28  C   UNL     1      -9.826   2.671  -0.705  0.00  0.00    +0.019 C 
ATOM     29  C   UNL     1     -10.306   3.410   0.547  0.00  0.00    +0.003 C 
ATOM     30  C   UNL     1      -9.545   2.881   1.766  0.00  0.00    +0.019 C 
ATOM     31  C   UNL     1      -8.042   3.067   1.543  0.00  0.00    +0.108 C 
BRANCH  25  32
ATOM     32  C   UNL     1      -5.782  -0.032   0.408  0.00  0.00    +0.052 A 
ATOM     33  C   UNL     1      -6.550  -0.690  -0.542  0.00  0.00    +0.026 A 
ATOM     34  C   UNL     1      -6.912  -2.008  -0.343  0.00  0.00    +0.002 A 
ATOM     35  C   UNL     1      -6.520  -2.668   0.808  0.00  0.00    +0.000 A 
ATOM     36  C   UNL     1      -5.759  -2.013   1.758  0.00  0.00    +0.002 A 
ATOM     37  C   UNL     1      -5.389  -0.697   1.562  0.00  0.00    +0.026 A 
ENDBRANCH  25  32
ENDBRANCH  20  21
ENDBRANCH   1  20
TORSDOF 7
