REMARK  Name = ZINC04060799
REMARK  8 active torsions:
REMARK  status: ('A' for Active; 'I' for Inactive)
REMARK    1  A    between atoms: C_1  and  O_2
REMARK    2  A    between atoms: O_2  and  C_3
REMARK    3  A    between atoms: C_5  and  C_10
REMARK    4  A    between atoms: C_8  and  O_9
REMARK    5  A    between atoms: C_18  and  O_30
REMARK    6  A    between atoms: C_21  and  C_22
REMARK    7  A    between atoms: C_21  and  N_60
REMARK    8  A    between atoms: C_23  and  C_24
REMARK                            x       y       z     vdW  Elec       q    Type
REMARK                         _______ _______ _______ _____ _____    ______ ____
ROOT
ATOM      1  C   UNL     1       5.107   3.325  -0.034  0.00  0.00    -0.031 C 
ATOM      2  C   UNL     1       6.161   2.250  -0.301  0.00  0.00    +0.011 C 
ATOM      3  C   UNL     1       6.109   1.189   0.798  0.00  0.00    +0.005 C 
ATOM      4  C   UNL     1       6.398   1.839   2.152  0.00  0.00    +0.000 C 
ATOM      5  C   UNL     1       7.789   2.475   2.123  0.00  0.00    +0.003 C 
ATOM      6  C   UNL     1       7.837   3.542   1.028  0.00  0.00    +0.035 C 
ATOM      7  C   UNL     1       7.548   2.898  -0.329  0.00  0.00    +0.066 C 
ATOM      8  C   UNL     1       7.568   3.981  -1.413  0.00  0.00    +0.016 C 
ATOM      9  C   UNL     1       6.474   5.009  -1.116  0.00  0.00    -0.075 C 
ATOM     10  N   UNL     1       5.161   4.329  -1.118  0.00  0.00    +0.387 N 
ATOM     11  H   UNL     1       5.034   3.853  -2.019  0.00  0.00    -0.080 HD
ENDROOT
BRANCH   1  14
ATOM     12  C   UNL     1       1.866   1.824   1.198  0.00  0.00    +0.161 A 
ATOM     13  C   UNL     1       3.126   2.399   1.184  0.00  0.00    +0.051 A 
ATOM     14  C   UNL     1       3.738   2.693  -0.020  0.00  0.00    -0.057 A 
ATOM     15  C   UNL     1       3.098   2.410  -1.212  0.00  0.00    +0.006 A 
ATOM     16  C   UNL     1       1.843   1.830  -1.205  0.00  0.00    +0.049 A 
ATOM     17  C   UNL     1       1.224   1.533  -0.001  0.00  0.00    +0.158 A 
BRANCH  12  19
ATOM     18  C   UNL     1       1.978   1.865   3.574  0.00  0.00    +0.277 C 
ATOM     19  O   UNL     1       1.260   1.539   2.382  0.00  0.00    -0.491 OA
ENDBRANCH  12  19
BRANCH  17  20
ATOM     20  O   UNL     1      -0.011   0.963   0.007  0.00  0.00    -0.503 OA
ATOM     21  H   UNL     1       0.002  -0.004   0.002  0.00  0.00    +0.292 HD
ENDBRANCH  17  20
ENDBRANCH   1  14
BRANCH   7  22
ATOM     22  O   UNL     1       8.535   1.907  -0.623  0.00  0.00    -0.388 OA
ATOM     23  H   UNL     1       9.438   2.251  -0.663  0.00  0.00    +0.210 HD
ENDBRANCH   7  22
BRANCH  10  24
ATOM     24  C   UNL     1       4.080   5.320  -0.942  0.00  0.00    -0.050 C 
BRANCH  24  25
ATOM     25  C   UNL     1       4.021   6.196  -2.167  0.00  0.00    -0.045 C 
ATOM     26  C   UNL     1       2.889   6.308  -2.848  0.00  0.00    +0.002 C 
BRANCH  26  27
ATOM     27  C   UNL     1       2.832   7.167  -4.050  0.00  0.00    -0.025 A 
ATOM     28  C   UNL     1       3.965   7.866  -4.466  0.00  0.00    +0.008 A 
ATOM     29  C   UNL     1       3.906   8.662  -5.592  0.00  0.00    +0.001 A 
ATOM     30  C   UNL     1       2.724   8.776  -6.301  0.00  0.00    +0.000 A 
ATOM     31  C   UNL     1       1.595   8.090  -5.890  0.00  0.00    +0.001 A 
ATOM     32  C   UNL     1       1.642   7.286  -4.769  0.00  0.00    +0.008 A 
ENDBRANCH  26  27
ENDBRANCH  24  25
ENDBRANCH  10  24
TORSDOF 7
