REMARK  Name = ZINC22065922
REMARK  10 active torsions:
REMARK  status: ('A' for Active; 'I' for Inactive)
REMARK    1  A    between atoms: C_1  and  C_2
REMARK    2  A    between atoms: C_13  and  C_32
REMARK    3  A    between atoms: C_14  and  O_27
REMARK    4  A    between atoms: C_17  and  C_24
REMARK    5  A    between atoms: C_17  and  C_25
REMARK    6  A    between atoms: C_18  and  O_23
REMARK    7  A    between atoms: C_20  and  C_22
REMARK    8  A    between atoms: O_27  and  C_28
REMARK    9  A    between atoms: C_28  and  C_30
REMARK   10  A    between atoms: C_30  and  O_31
REMARK                            x       y       z     vdW  Elec       q    Type
REMARK                         _______ _______ _______ _____ _____    ______ ____
ROOT
ATOM      1  C   UNL     1       0.192   3.393  -0.806  0.00  0.00    +0.008 C 
ATOM      2  C   UNL     1      -1.059   2.799  -0.129  0.00  0.00    -0.004 C 
ATOM      3  C   UNL     1      -0.684   1.472   0.509  0.00  0.00    +0.004 C 
ATOM      4  C   UNL     1      -0.605   0.292  -0.449  0.00  0.00    +0.008 C 
ATOM      5  C   UNL     1      -1.694   0.243  -1.471  0.00  0.00    -0.014 C 
ATOM      6  C   UNL     1      -1.311  -0.540  -2.752  0.00  0.00    +0.015 C 
ATOM      7  C   UNL     1      -2.400  -0.066  -3.754  0.00  0.00    +0.075 C 
ATOM      8  C   UNL     1      -2.819   1.327  -3.277  0.00  0.00    +0.138 C 
ATOM      9  O   UNL     1      -3.719   2.003  -3.697  0.00  0.00    -0.297 OA
ATOM     10  C   UNL     1      -1.853   1.647  -2.173  0.00  0.00    +0.071 C 
ATOM     11  C   UNL     1      -2.163   2.682  -1.171  0.00  0.00    +0.018 C 
ATOM     12  C   UNL     1      -3.576   2.639  -0.638  0.00  0.00    +0.184 C 
ATOM     13  C   UNL     1      -3.552   2.440   0.885  0.00  0.00    +0.058 C 
ATOM     14  C   UNL     1      -4.230   1.043   1.065  0.00  0.00    +0.015 C 
ATOM     15  C   UNL     1      -3.350  -0.006   0.488  0.00  0.00    +0.128 C 
ATOM     16  C   UNL     1      -3.054  -0.233  -0.965  0.00  0.00    +0.022 C 
ATOM     17  C   UNL     1      -3.221  -1.743  -1.195  0.00  0.00    +0.011 C 
ATOM     18  C   UNL     1      -4.370   0.770   2.579  0.00  0.00    +0.018 C 
ATOM     19  C   UNL     1      -2.093   4.014  -1.955  0.00  0.00    +0.016 C 
ENDROOT
BRANCH  15  20
ATOM     20  O   UNL     1      -3.891  -1.259   0.959  0.00  0.00    -0.391 OA
ATOM     21  H   UNL     1      -3.414  -2.208   0.670  0.00  0.00    +0.210 HD
ENDBRANCH  15  20
BRANCH  14  22
ATOM     22  C   UNL     1      -5.610   1.002   0.465  0.00  0.00    -0.025 C 
ATOM     23  C   UNL     1      -5.924   0.065  -0.394  0.00  0.00    +0.004 C 
ENDBRANCH  14  22
BRANCH  12  24
ATOM     24  O   UNL     1      -4.255   3.893  -0.965  0.00  0.00    -0.459 OA
BRANCH  24  25
ATOM     25  C   UNL     1      -5.434   3.800  -1.600  0.00  0.00    +0.333 C 
ATOM     26  O   UNL     1      -5.843   2.722  -1.960  0.00  0.00    -0.248 OA
BRANCH  25  27
ATOM     27  C   UNL     1      -6.247   5.041  -1.865  0.00  0.00    +0.276 C 
BRANCH  27  28
ATOM     28  O   UNL     1      -7.451   4.686  -2.547  0.00  0.00    -0.384 OA
ATOM     29  H   UNL     1      -8.175   5.465  -2.826  0.00  0.00    +0.210 HD
ENDBRANCH  27  28
ENDBRANCH  25  27
ENDBRANCH  24  25
ENDBRANCH  12  24
TORSDOF 6
