REMARK  Name = ZINC34040655
REMARK  8 active torsions:
REMARK  status: ('A' for Active; 'I' for Inactive)
REMARK    1  A    between atoms: C_4  and  C_7
REMARK    2  A    between atoms: C_7  and  O_8
REMARK    3  A    between atoms: O_8  and  C_9
REMARK    4  A    between atoms: C_18  and  C_19
REMARK    5  A    between atoms: C_19  and  CA_20
REMARK    6  A    between atoms: CA_20  and  C_22
REMARK    7  A    between atoms: CA_20  and  N_24
REMARK    8  A    between atoms: C_22  and  O_23
REMARK                            x       y       z     vdW  Elec       q    Type
REMARK                         _______ _______ _______ _____ _____    ______ ____
ROOT
ATOM      1  C   UNL     1       5.288  -1.589  -1.585  0.00  0.00    +0.145 A 
ATOM      2  C   UNL     1       6.039  -2.003  -0.500  0.00  0.00    +0.048 A 
ATOM      3  C   UNL     1       7.236  -2.679  -0.687  0.00  0.00    +0.004 A 
ATOM      4  C   UNL     1       7.699  -2.938  -1.946  0.00  0.00    +0.010 A 
ATOM      5  C   UNL     1       6.960  -2.525  -3.058  0.00  0.00    +0.006 A 
ATOM      6  C   UNL     1       5.744  -1.845  -2.878  0.00  0.00    +0.089 A 
ATOM      7  N   UNL     1       5.244  -1.566  -4.133  0.00  0.00    -0.358 N 
ATOM      8  H   UNL     1       4.289  -1.031  -4.238  0.00  0.00    +0.165 HD
ATOM      9  C   UNL     1       6.098  -2.043  -5.089  0.00  0.00    +0.087 A 
ATOM     10  C   UNL     1       7.153  -2.634  -4.506  0.00  0.00    -0.024 A 
ENDROOT
BRANCH   1  11
ATOM     11  O   UNL     1       4.113  -0.932  -1.391  0.00  0.00    -0.485 OA
BRANCH  11  12
ATOM     12  C   UNL     1       3.711  -0.707  -0.039  0.00  0.00    +0.264 C 
BRANCH  12  16
ATOM     13  C   UNL     1      -0.017   1.378   0.010  0.00  0.00    +0.000 A 
ATOM     14  C   UNL     1       1.171   2.086   0.002  0.00  0.00    +0.000 A 
ATOM     15  C   UNL     1       2.377   1.411  -0.014  0.00  0.00    +0.007 A 
ATOM     16  C   UNL     1       2.396   0.029  -0.022  0.00  0.00    -0.010 A 
ATOM     17  C   UNL     1       1.208  -0.679  -0.014  0.00  0.00    +0.007 A 
ATOM     18  C   UNL     1       0.002  -0.004   0.002  0.00  0.00    +0.000 A 
ENDBRANCH  12  16
ENDBRANCH  11  12
ENDBRANCH   1  11
BRANCH  10  19
ATOM     19  C   UNL     1       8.317  -3.284  -5.208  0.00  0.00    +0.023 C 
BRANCH  19  20
ATOM     20  CA  UNL     1       8.061  -4.787  -5.335  0.00  0.00    -0.045 C 
BRANCH  20  21
ATOM     21  N   UNL     1       8.027  -5.392  -3.996  0.00  0.00    +0.382 N 
ATOM     22  H1  UNL     1       7.843  -6.473  -4.087  0.00  0.00    -0.090 HD
ATOM     23  H2  UNL     1       7.222  -4.931  -3.406  0.00  0.00    -0.090 HD
ATOM     24  H3  UNL     1       8.992  -5.226  -3.494  0.00  0.00    -0.090 HD
ENDBRANCH  20  21
BRANCH  20  25
ATOM     25  C   UNL     1       9.181  -5.428  -6.156  0.00  0.00    +0.140 C 
BRANCH  25  26
ATOM     26  O   UNL     1       8.883  -6.809  -6.373  0.00  0.00    -0.397 OA
ATOM     27  H   UNL     1       9.578  -7.438  -6.947  0.00  0.00    +0.209 HD
ENDBRANCH  25  26
ENDBRANCH  20  25
ENDBRANCH  19  20
ENDBRANCH  10  19
TORSDOF 8
