REMARK  Name = ZINC21327535
REMARK  6 active torsions:
REMARK  status: ('A' for Active; 'I' for Inactive)
REMARK    1  A    between atoms: C_6  and  N_7
REMARK    2  A    between atoms: C_8  and  C_10
REMARK    3  A    between atoms: C_10  and  S_11
REMARK    4  A    between atoms: S_11  and  C_12
REMARK    5  A    between atoms: N_16  and  N_17
REMARK    6  A    between atoms: N_18  and  N_19
REMARK                            x       y       z     vdW  Elec       q    Type
REMARK                         _______ _______ _______ _____ _____    ______ ____
ROOT
ATOM      1  C   UNL     1      -2.077   1.772  -1.028  0.00  0.00    +0.210 A 
ATOM      2  N   UNL     1      -2.407   2.231  -2.211  0.00  0.00    -0.119 NA
ATOM      3  N   UNL     1      -1.252   2.257  -3.003  0.00  0.00    -0.109 NA
ATOM      4  C   UNL     1      -0.253   1.818  -2.276  0.00  0.00    +0.254 A 
ATOM      5  N   UNL     1      -0.738   1.503  -1.037  0.00  0.00    -0.211 N 
ATOM      6  N   UNL     1       1.066   1.693  -2.692  0.00  0.00    -0.204 N 
ATOM      7  H   UNL     1       1.828   1.310  -1.997  0.00  0.00    +0.177 HD
ENDROOT
BRANCH   6   8
ATOM      8  N   UNL     1       1.427   2.056  -3.996  0.00  0.00    -0.189 NA
ATOM      9  C   UNL     1       2.643   1.941  -4.379  0.00  0.00    +0.037 C 
ATOM     10  C   UNL     1       3.803   1.438  -3.545  0.00  0.00    +0.052 C 
ATOM     11  C   UNL     1       5.056   1.491  -4.444  0.00  0.00    +0.006 C 
ATOM     12  C   UNL     1       4.696   2.557  -5.510  0.00  0.00    +0.006 C 
ATOM     13  C   UNL     1       3.190   2.289  -5.752  0.00  0.00    +0.052 C 
ENDBRANCH   6   8
BRANCH   5  14
ATOM     14  N   UNL     1      -0.011   1.010   0.008  0.00  0.00    -0.294 N 
ATOM     15  H   UNL     1       1.068   0.829  -0.109  0.00  0.00    +0.163 HD
ATOM     16  H   UNL     1      -0.503   0.794   0.968  0.00  0.00    +0.163 HD
ENDBRANCH   5  14
BRANCH   1  17
ATOM     17  S   UNL     1      -3.170   1.545   0.336  0.00  0.00    -0.075 S 
BRANCH  17  18
ATOM     18  C   UNL     1      -4.782   2.083  -0.298  0.00  0.00    +0.173 C 
BRANCH  18  20
ATOM     19  N   UNL     1      -7.101   2.280   0.538  0.00  0.00    -0.285 N 
ATOM     20  C   UNL     1      -5.821   1.938   0.783  0.00  0.00    +0.227 C 
ATOM     21  O   UNL     1      -5.505   1.513   1.875  0.00  0.00    -0.275 OA
ATOM     22  H   UNL     1      -7.374   2.736  -0.425  0.00  0.00    +0.155 HD
BRANCH  19  28
ATOM     23  C   UNL     1      -9.371   1.700   1.126  0.00  0.00    +0.024 A 
ATOM     24  C   UNL     1     -10.338   1.473   2.087  0.00  0.00    +0.016 A 
ATOM     25  C   UNL     1     -10.027   1.610   3.428  0.00  0.00    +0.013 A 
ATOM     26  C   UNL     1      -8.748   1.968   3.811  0.00  0.00    +0.016 A 
ATOM     27  C   UNL     1      -7.776   2.191   2.856  0.00  0.00    +0.024 A 
ATOM     28  C   UNL     1      -8.084   2.055   1.509  0.00  0.00    +0.033 A 
ATOM     29  I   UNL     1     -11.499   1.273   4.881  0.00  0.00    -0.044 I 
ENDBRANCH  19  28
ENDBRANCH  18  20
ENDBRANCH  17  18
ENDBRANCH   1  17
TORSDOF 6
