REMARK  Name = ZINC12160689
REMARK  8 active torsions:
REMARK  status: ('A' for Active; 'I' for Inactive)
REMARK    1  A    between atoms: C_1  and  C_2
REMARK    2  A    between atoms: C_2  and  C_3
REMARK    3  A    between atoms: C_3  and  C_4
REMARK    4  A    between atoms: C_4  and  C_18
REMARK    5  A    between atoms: N_7  and  C_11
REMARK    6  A    between atoms: C_11  and  C_12
REMARK    7  A    between atoms: C_24  and  C_26
REMARK    8  A    between atoms: C_31  and  C_32
REMARK                            x       y       z     vdW  Elec       q    Type
REMARK                         _______ _______ _______ _____ _____    ______ ____
ROOT
ATOM      1  C   UNL     1      -2.920   0.764   2.388  0.00  0.00    +0.115 C 
ATOM      2  C   UNL     1      -2.788   2.272   2.309  0.00  0.00    +0.247 C 
ATOM      3  O   UNL     1      -3.272   3.007   1.476  0.00  0.00    -0.273 OA
ATOM      4  N   UNL     1      -2.022   2.625   3.360  0.00  0.00    -0.222 N 
ATOM      5  C   UNL     1      -1.655   1.562   4.083  0.00  0.00    +0.309 C 
ATOM      6  O   UNL     1      -0.961   1.628   5.079  0.00  0.00    -0.252 OA
ATOM      7  N   UNL     1      -2.142   0.406   3.586  0.00  0.00    -0.285 N 
ATOM      8  H   UNL     1      -2.007  -0.485   3.945  0.00  0.00    +0.151 HD
ENDROOT
BRANCH   1   9
ATOM      9  C   UNL     1      -4.386   0.360   2.558  0.00  0.00    +0.024 C 
ATOM     10  C   UNL     1      -5.158   0.692   1.278  0.00  0.00    +0.025 C 
ATOM     11  C   UNL     1      -6.617   0.255   1.439  0.00  0.00    +0.108 C 
ATOM     12  N   UNL     1      -7.166   0.875   2.653  0.00  0.00    -0.297 N 
ATOM     13  C   UNL     1      -6.450   0.695   3.924  0.00  0.00    +0.108 C 
ATOM     14  C   UNL     1      -4.993   1.127   3.735  0.00  0.00    +0.025 C 
ATOM     15  C   UNL     1      -8.303   1.597   2.602  0.00  0.00    +0.247 C 
ATOM     16  O   UNL     1      -8.785   2.044   3.624  0.00  0.00    -0.270 OA
BRANCH  15  17
ATOM     17  C   UNL     1      -8.964   1.843   1.302  0.00  0.00    +0.040 A 
ATOM     18  C   UNL     1      -9.316   0.772   0.480  0.00  0.00    +0.013 A 
ATOM     19  C   UNL     1      -9.936   1.009  -0.729  0.00  0.00    +0.001 A 
ATOM     20  C   UNL     1     -10.200   2.306  -1.132  0.00  0.00    +0.000 A 
ATOM     21  C   UNL     1      -9.850   3.373  -0.324  0.00  0.00    +0.004 A 
ATOM     22  C   UNL     1      -9.233   3.149   0.890  0.00  0.00    -0.038 A 
ATOM     23  C   UNL     1      -8.851   4.312   1.769  0.00  0.00    +0.044 C 
ENDBRANCH  15  17
ENDBRANCH   1   9
BRANCH   1  24
ATOM     24  C   UNL     1      -2.323   0.106   1.142  0.00  0.00    +0.035 C 
BRANCH  24  26
ATOM     25  C   UNL     1      -0.232  -0.234  -0.182  0.00  0.00    +0.004 C 
ATOM     26  C   UNL     1      -0.829   0.424   1.064  0.00  0.00    -0.001 C 
ENDBRANCH  24  26
ENDBRANCH   1  24
BRANCH   4  27
ATOM     27  C   UNL     1      -1.637   4.004   3.671  0.00  0.00    +0.149 C 
BRANCH  27  28
ATOM     28  C   UNL     1      -2.685   4.631   4.592  0.00  0.00    +0.136 C 
ATOM     29  C   UNL     1      -2.352   6.120   4.828  0.00  0.00    +0.035 C 
ATOM     30  C   UNL     1      -2.702   6.301   6.332  0.00  0.00    +0.031 C 
ATOM     31  C   UNL     1      -2.310   4.911   6.895  0.00  0.00    +0.160 C 
ATOM     32  O   UNL     1      -2.667   3.975   5.865  0.00  0.00    -0.375 OA
ENDBRANCH  27  28
ENDBRANCH   4  27
TORSDOF 6
