REMARK  Name = ZINC03840245
REMARK  8 active torsions:
REMARK  status: ('A' for Active; 'I' for Inactive)
REMARK    1  A    between atoms: C_1  and  C_2
REMARK    2  A    between atoms: C_5  and  O_9
REMARK    3  A    between atoms: C_7  and  C_8
REMARK    4  A    between atoms: O_9  and  C_10
REMARK    5  A    between atoms: C_13  and  C_21
REMARK    6  A    between atoms: C_15  and  O_20
REMARK    7  A    between atoms: C_17  and  O_19
REMARK    8  A    between atoms: N_23  and  C_24
REMARK                            x       y       z     vdW  Elec       q    Type
REMARK                         _______ _______ _______ _____ _____    ______ ____
ROOT
ATOM      1  C   UNL     1      -4.942   0.909   0.041  0.00  0.00    +0.228 C 
ATOM      2  C   UNL     1      -3.675   1.688   0.238  0.00  0.00    +0.028 C 
ATOM      3  C   UNL     1      -2.478   1.143   0.271  0.00  0.00    +0.016 C 
ATOM      4  C   UNL     1      -2.225  -0.326   0.099  0.00  0.00    +0.074 C 
ATOM      5  C   UNL     1      -3.521  -1.112   0.323  0.00  0.00    +0.151 C 
ATOM      6  C   UNL     1      -4.626  -0.475  -0.529  0.00  0.00    +0.188 C 
ENDROOT
BRANCH   3   7
ATOM      7  C   UNL     1      -1.320   2.026   0.481  0.00  0.00    +0.241 C 
ATOM      8  O   UNL     1      -1.485   3.223   0.619  0.00  0.00    -0.271 OA
ATOM      9  N   UNL     1      -0.077   1.508   0.521  0.00  0.00    -0.300 N 
ATOM     10  H   UNL     1       0.055   0.553   0.410  0.00  0.00    +0.150 HD
BRANCH   9  11
ATOM     11  C   UNL     1       1.077   2.387   0.724  0.00  0.00    +0.159 C 
ATOM     12  C   UNL     1       2.227   1.584   1.335  0.00  0.00    +0.033 C 
ATOM     13  C   UNL     1       3.497   2.441   1.287  0.00  0.00    +0.021 C 
ATOM     14  C   UNL     1       3.909   2.621  -0.175  0.00  0.00    +0.104 C 
ATOM     15  N   UNL     1       2.778   3.080  -0.971  0.00  0.00    -0.314 N 
ATOM     16  C   UNL     1       1.503   2.964  -0.595  0.00  0.00    +0.233 C 
ATOM     17  O   UNL     1       0.643   3.346  -1.360  0.00  0.00    -0.274 OA
ATOM     18  H   UNL     1       2.963   3.495  -1.827  0.00  0.00    +0.149 HD
ENDBRANCH   9  11
ENDBRANCH   3   7
BRANCH   6  19
ATOM     19  O   UNL     1      -5.798  -1.291  -0.489  0.00  0.00    -0.385 OA
ATOM     20  H   UNL     1      -5.669  -2.184  -0.836  0.00  0.00    +0.210 HD
ENDBRANCH   6  19
BRANCH   5  21
ATOM     21  O   UNL     1      -3.888  -1.057   1.703  0.00  0.00    -0.389 OA
ATOM     22  H   UNL     1      -3.233  -1.443   2.300  0.00  0.00    +0.210 HD
ENDBRANCH   5  21
BRANCH   1  23
ATOM     23  O   UNL     1      -5.794   1.611  -0.867  0.00  0.00    -0.482 OA
BRANCH  23  28
ATOM     24  C   UNL     1      -9.061   5.655   1.301  0.00  0.00    +0.044 C 
ATOM     25  C   UNL     1      -8.187   4.573   0.721  0.00  0.00    -0.047 A 
ATOM     26  C   UNL     1      -8.312   4.224  -0.611  0.00  0.00    +0.007 A 
ATOM     27  C   UNL     1      -7.513   3.233  -1.145  0.00  0.00    +0.046 A 
ATOM     28  C   UNL     1      -6.582   2.587  -0.344  0.00  0.00    +0.122 A 
ATOM     29  C   UNL     1      -6.462   2.935   0.993  0.00  0.00    +0.049 A 
ATOM     30  C   UNL     1      -7.260   3.931   1.521  0.00  0.00    -0.044 A 
ATOM     31  C   UNL     1      -7.125   4.314   2.973  0.00  0.00    +0.044 C 
ENDBRANCH  23  28
ENDBRANCH   1  23
TORSDOF 6
