REMARK  Name = ZINC33318768
REMARK  2 active torsions:
REMARK  status: ('A' for Active; 'I' for Inactive)
REMARK    1  A    between atoms: C_3  and  C_6
REMARK    2  A    between atoms: CA_15  and  C_18
REMARK                            x       y       z     vdW  Elec       q    Type
REMARK                         _______ _______ _______ _____ _____    ______ ____
ROOT
ATOM      1  C   UNL     1       3.662   1.828   0.420  0.00  0.00    +0.140 C 
ATOM      2  C   UNL     1       3.946   1.801  -1.059  0.00  0.00    +0.061 A 
ATOM      3  C   UNL     1       5.112   1.372  -1.592  0.00  0.00    +0.066 A 
ATOM      4  N   UNL     1       5.025   1.479  -2.918  0.00  0.00    -0.240 NA
ATOM      5  C   UNL     1       3.849   1.961  -3.232  0.00  0.00    +0.197 A 
ATOM      6  N   UNL     1       3.148   2.174  -2.094  0.00  0.00    -0.346 N 
ATOM      7  H   UNL     1       2.246   2.527  -2.029  0.00  0.00    +0.167 HD
ATOM      8  C   UNL     1       6.266   0.876  -0.755  0.00  0.00    +0.087 C 
ATOM      9  CA  UNL     1       6.025   1.324   0.693  0.00  0.00    +0.174 C 
ATOM     10  N   UNL     1       4.655   0.977   1.097  0.00  0.00    -0.292 NA
ATOM     11  H   UNL     1       4.550   1.026   2.100  0.00  0.00    +0.124 HD
ENDROOT
BRANCH   1  14
ATOM     12  C   UNL     1      -0.038   1.278   1.140  0.00  0.00    +0.008 A 
ATOM     13  C   UNL     1       1.132   1.982   0.927  0.00  0.00    +0.013 A 
ATOM     14  C   UNL     1       2.276   1.297   0.681  0.00  0.00    +0.013 A 
ATOM     15  S   UNL     1       1.714  -0.396   0.745  0.00  0.00    -0.100 S 
ATOM     16  C   UNL     1      -0.007  -0.077   1.096  0.00  0.00    +0.045 A 
ENDBRANCH   1  14
BRANCH   9  17
ATOM     17  C   UNL     1       6.212   2.816   0.793  0.00  0.00    +0.373 C 
ATOM     18  O   UNL     1       5.399   3.493   1.399  0.00  0.00    -0.245 OA
ATOM     19  OXT UNL     1       7.177   3.346   0.269  0.00  0.00    -0.245 OA
ENDBRANCH   9  17
TORSDOF 2
