REMARK  Name = ZINC31057420
REMARK  7 active torsions:
REMARK  status: ('A' for Active; 'I' for Inactive)
REMARK    1  A    between atoms: C_3  and  C_6
REMARK    2  A    between atoms: C_8  and  C_11
REMARK    3  A    between atoms: C_11  and  N_12
REMARK    4  A    between atoms: C_16  and  C_19
REMARK    5  A    between atoms: N_21  and  C_22
REMARK    6  A    between atoms: C_22  and  C_23
REMARK    7  A    between atoms: C_26  and  N_29
REMARK                            x       y       z     vdW  Elec       q    Type
REMARK                         _______ _______ _______ _____ _____    ______ ____
ROOT
ATOM      1  N   UNL     1       2.112   1.560  -1.198  0.00  0.00    +0.386 N 
ATOM      2  C   UNL     1       1.419   2.052  -0.001  0.00  0.00    -0.078 C 
ATOM      3  C   UNL     1      -0.019   1.527   0.010  0.00  0.00    -0.018 C 
ATOM      4  C   UNL     1       0.002  -0.004   0.002  0.00  0.00    +0.009 C 
ATOM      5  C   UNL     1       0.771  -0.489  -1.230  0.00  0.00    +0.058 C 
ATOM      6  C   UNL     1       2.186   0.094  -1.205  0.00  0.00    -0.065 C 
ATOM      7  H   UNL     1       1.525   1.870  -2.076  0.00  0.00    -0.081 HD
ENDROOT
BRANCH   5   8
ATOM      8  C   UNL     1       0.847  -1.994  -1.215  0.00  0.00    +0.215 C 
ATOM      9  O   UNL     1       1.926  -2.547  -1.190  0.00  0.00    -0.276 OA
ATOM     10  N   UNL     1      -0.284  -2.727  -1.228  0.00  0.00    -0.311 N 
ATOM     11  H   UNL     1      -1.264  -2.225  -1.251  0.00  0.00    +0.149 HD
BRANCH  10  12
ATOM     12  C   UNL     1      -0.211  -4.190  -1.214  0.00  0.00    +0.139 C 
BRANCH  12  13
ATOM     13  C   UNL     1      -1.604  -4.763  -1.234  0.00  0.00    -0.030 A 
ATOM     14  C   UNL     1      -2.261  -5.020  -0.044  0.00  0.00    +0.007 A 
ATOM     15  C   UNL     1      -3.540  -5.542  -0.060  0.00  0.00    +0.026 A 
ATOM     16  C   UNL     1      -4.162  -5.817  -1.270  0.00  0.00    +0.047 A 
ATOM     17  C   UNL     1      -3.497  -5.563  -2.462  0.00  0.00    +0.026 A 
ATOM     18  C   UNL     1      -2.220  -5.037  -2.441  0.00  0.00    +0.007 A 
BRANCH  16  19
ATOM     19  N   UNL     1      -5.459  -6.351  -1.288  0.00  0.00    -0.306 N 
ATOM     20  C   UNL     1      -6.232  -6.651  -0.197  0.00  0.00    +0.112 A 
ATOM     21  C   UNL     1      -7.397  -7.137  -0.666  0.00  0.00    +0.130 A 
ATOM     22  N   UNL     1      -7.342  -7.136  -2.006  0.00  0.00    -0.244 NA
ATOM     23  C   UNL     1      -6.188  -6.662  -2.391  0.00  0.00    +0.204 A 
ENDBRANCH  16  19
ENDBRANCH  12  13
ENDBRANCH  10  12
ENDBRANCH   5   8
BRANCH   1  24
ATOM     24  C   UNL     1       3.450   2.156  -1.314  0.00  0.00    +0.022 C 
BRANCH  24  27
ATOM     25  C   UNL     1       3.336   5.557  -0.155  0.00  0.00    +0.209 A 
ATOM     26  N   UNL     1       3.478   4.235   0.101  0.00  0.00    -0.192 NA
ATOM     27  C   UNL     1       3.364   3.638  -1.059  0.00  0.00    +0.211 A 
ATOM     28  O   UNL     1       3.151   4.590  -1.974  0.00  0.00    -0.340 OA
ATOM     29  N   UNL     1       3.138   5.681  -1.444  0.00  0.00    -0.056 NA
BRANCH  25  32
ATOM     30  C   UNL     1       3.339   8.842   1.723  0.00  0.00    +0.008 A 
ATOM     31  C   UNL     1       3.255   8.002   0.636  0.00  0.00    +0.019 A 
ATOM     32  C   UNL     1       3.390   6.653   0.834  0.00  0.00    +0.060 A 
ATOM     33  S   UNL     1       3.655   6.565   2.598  0.00  0.00    -0.093 S 
ATOM     34  C   UNL     1       3.563   8.312   2.954  0.00  0.00    +0.046 A 
ENDBRANCH  25  32
ENDBRANCH  24  27
ENDBRANCH   1  24
TORSDOF 7
