REMARK  Name = ZINC56919128
REMARK  4 active torsions:
REMARK  status: ('A' for Active; 'I' for Inactive)
REMARK    1  A    between atoms: C_8  and  N_12
REMARK    2  A    between atoms: C_13  and  C_15
REMARK    3  A    between atoms: C_15  and  C_18
REMARK    4  A    between atoms: C_20  and  C_23
REMARK                            x       y       z     vdW  Elec       q    Type
REMARK                         _______ _______ _______ _____ _____    ______ ____
ROOT
ATOM      1  N   UNL     1       2.754  -4.052   0.158  0.00  0.00    -0.279 N 
ATOM      2  C   UNL     1       3.938  -4.671   0.334  0.00  0.00    +0.229 C 
ATOM      3  O   UNL     1       4.945  -4.016   0.503  0.00  0.00    -0.274 OA
ATOM      4  H   UNL     1       1.939  -4.574   0.093  0.00  0.00    +0.155 HD
ENDROOT
BRANCH   1  12
ATOM      5  C   UNL     1       1.353   1.508  -1.920  0.00  0.00    +0.001 A 
ATOM      6  C   UNL     1       2.123   2.198  -0.994  0.00  0.00    +0.004 A 
ATOM      7  C   UNL     1       2.900   1.517  -0.079  0.00  0.00    +0.047 A 
ATOM      8  C   UNL     1       2.912   0.130  -0.082  0.00  0.00    +0.139 A 
ATOM      9  C   UNL     1       2.128  -0.568  -1.019  0.00  0.00    +0.019 A 
ATOM     10  C   UNL     1       1.350   0.141  -1.940  0.00  0.00    +0.011 A 
ATOM     11  C   UNL     1       2.140  -2.035  -1.013  0.00  0.00    +0.042 A 
ATOM     12  C   UNL     1       2.700  -2.656   0.069  0.00  0.00    +0.120 A 
ATOM     13  C   UNL     1       3.243  -1.801   1.135  0.00  0.00    +0.359 A 
ATOM     14  O   UNL     1       3.307  -2.199   2.284  0.00  0.00    -0.243 OA
ATOM     15  O   UNL     1       3.669  -0.561   0.804  0.00  0.00    -0.421 OA
ENDBRANCH   1  12
BRANCH   2  16
ATOM     16  C   UNL     1       4.011  -6.176   0.319  0.00  0.00    +0.092 C 
ATOM     17  C   UNL     1       4.154  -6.890   1.665  0.00  0.00    +0.024 C 
ATOM     18  C   UNL     1       5.343  -6.822   0.705  0.00  0.00    +0.024 C 
BRANCH  16  19
ATOM     19  C   UNL     1       3.191  -6.856  -0.747  0.00  0.00    +0.099 A 
ATOM     20  C   UNL     1       1.803  -6.753  -0.903  0.00  0.00    +0.080 A 
ATOM     21  C   UNL     1       1.443  -7.514  -1.978  0.00  0.00    +0.202 A 
ATOM     22  O   UNL     1       2.563  -8.073  -2.476  0.00  0.00    -0.351 OA
ATOM     23  N   UNL     1       3.653  -7.638  -1.684  0.00  0.00    -0.081 NA
BRANCH  21  24
ATOM     24  C   UNL     1       0.079  -7.691  -2.497  0.00  0.00    +0.172 A 
ATOM     25  C   UNL     1      -0.276  -8.457  -3.568  0.00  0.00    +0.053 A 
ATOM     26  C   UNL     1      -1.671  -8.336  -3.707  0.00  0.00    +0.042 A 
ATOM     27  C   UNL     1      -2.097  -7.513  -2.726  0.00  0.00    +0.196 A 
ATOM     28  O   UNL     1      -1.039  -7.131  -1.995  0.00  0.00    -0.460 OA
ENDBRANCH  21  24
ENDBRANCH  16  19
ENDBRANCH   2  16
TORSDOF 4
