REMARK  Name = ZINC14530677
REMARK  12 active torsions:
REMARK  status: ('A' for Active; 'I' for Inactive)
REMARK    1  A    between atoms: C_1  and  N_2
REMARK    2  A    between atoms: N_2  and  C_3
REMARK    3  A    between atoms: N_2  and  C_4
REMARK    4  A    between atoms: C_7  and  C_10
REMARK    5  A    between atoms: C_11  and  C_12
REMARK    6  A    between atoms: C_12  and  N_69
REMARK    7  A    between atoms: C_17  and  C_24
REMARK    8  A    between atoms: N_19  and  C_20
REMARK    9  A    between atoms: C_20  and  C_21
REMARK   10  A    between atoms: N_26  and  C_27
REMARK   11  A    between atoms: N_26  and  C_28
REMARK   12  A    between atoms: C_28  and  C_29
REMARK                            x       y       z     vdW  Elec       q    Type
REMARK                         _______ _______ _______ _____ _____    ______ ____
ROOT
ATOM      1  C   UNL     1      -2.741   1.929   2.130  0.00  0.00    -0.072 C 
ATOM      2  C   UNL     1      -3.456   2.679   3.263  0.00  0.00    +0.037 C 
ATOM      3  C   UNL     1      -4.910   2.281   3.233  0.00  0.00    +0.040 A 
ATOM      4  C   UNL     1      -5.485   1.667   2.167  0.00  0.00    -0.011 A 
ATOM      5  C   UNL     1      -6.826   1.457   2.522  0.00  0.00    +0.149 A 
ATOM      6  N   UNL     1      -6.976   1.944   3.743  0.00  0.00    -0.166 NA
ATOM      7  N   UNL     1      -5.859   2.430   4.168  0.00  0.00    -0.267 N 
ATOM      8  C   UNL     1      -4.752   1.323   0.901  0.00  0.00    -0.038 C 
ATOM      9  N   UNL     1      -3.499   2.119   0.872  0.00  0.00    +0.385 N 
ATOM     10  H   UNL     1      -3.739   3.113   0.776  0.00  0.00    -0.081 HD
ENDROOT
BRANCH   5  11
ATOM     11  C   UNL     1      -7.868   0.816   1.694  0.00  0.00    +0.267 C 
ATOM     12  O   UNL     1      -7.589   0.386   0.592  0.00  0.00    -0.268 OA
ATOM     13  N   UNL     1      -9.128   0.709   2.161  0.00  0.00    -0.293 N 
ATOM     14  C   UNL     1      -9.438   1.117   3.533  0.00  0.00    +0.133 C 
BRANCH  13  15
ATOM     15  C   UNL     1     -10.187   0.184   1.295  0.00  0.00    +0.163 C 
BRANCH  15  16
ATOM     16  C   UNL     1     -10.270  -1.313   1.454  0.00  0.00    +0.066 A 
ATOM     17  C   UNL     1     -11.149  -1.872   2.323  0.00  0.00    +0.071 A 
ATOM     18  S   UNL     1     -10.797  -3.607   2.076  0.00  0.00    -0.084 S 
ATOM     19  C   UNL     1      -9.548  -3.414   0.884  0.00  0.00    +0.156 A 
ATOM     20  N   UNL     1      -9.487  -2.109   0.756  0.00  0.00    -0.251 NA
ENDBRANCH  15  16
ENDBRANCH  13  15
ENDBRANCH   5  11
BRANCH   9  21
ATOM     21  C   UNL     1      -2.670   1.713  -0.281  0.00  0.00    -0.051 C 
BRANCH  21  23
ATOM     22  C   UNL     1      -0.274   2.220  -0.450  0.00  0.00    +0.002 C 
ATOM     23  C   UNL     1      -1.519   2.676  -0.413  0.00  0.00    -0.045 C 
BRANCH  22  27
ATOM     24  C   UNL     1       2.972   4.934  -0.841  0.00  0.00    +0.029 A 
ATOM     25  C   UNL     1       3.216   3.568  -0.757  0.00  0.00    +0.023 A 
ATOM     26  C   UNL     1       2.166   2.685  -0.630  0.00  0.00    +0.010 A 
ATOM     27  C   UNL     1       0.855   3.164  -0.586  0.00  0.00    -0.025 A 
ATOM     28  C   UNL     1       0.612   4.536  -0.675  0.00  0.00    +0.010 A 
ATOM     29  C   UNL     1       1.667   5.414  -0.797  0.00  0.00    +0.023 A 
BRANCH  24  31
ATOM     30  C   UNL     1       5.415   5.340  -0.860  0.00  0.00    +0.129 C 
ATOM     31  N   UNL     1       4.038   5.825  -0.970  0.00  0.00    -0.336 N 
ATOM     32  C   UNL     1       3.779   7.246  -1.214  0.00  0.00    +0.129 C 
ENDBRANCH  24  31
ENDBRANCH  22  27
ENDBRANCH  21  23
ENDBRANCH   9  21
BRANCH   7  33
ATOM     33  C   UNL     1      -5.659   3.053   5.478  0.00  0.00    +0.147 C 
BRANCH  33  34
ATOM     34  C   UNL     1      -5.936   4.554   5.377  0.00  0.00    +0.010 C 
ATOM     35  C   UNL     1      -4.769   5.508   5.643  0.00  0.00    +0.005 C 
ATOM     36  C   UNL     1      -5.894   5.370   6.671  0.00  0.00    +0.005 C 
ENDBRANCH  33  34
ENDBRANCH   7  33
TORSDOF 9
