REMARK  Name = ZINC14461038
REMARK  6 active torsions:
REMARK  status: ('A' for Active; 'I' for Inactive)
REMARK    1  A    between atoms: C_1  and  C_2
REMARK    2  A    between atoms: C_2  and  C_4
REMARK    3  A    between atoms: C_2  and  N_10
REMARK    4  A    between atoms: C_11  and  C_13
REMARK    5  A    between atoms: C_20  and  C_29
REMARK    6  A    between atoms: C_34  and  O_35
REMARK                            x       y       z     vdW  Elec       q    Type
REMARK                         _______ _______ _______ _____ _____    ______ ____
ROOT
ATOM      1  C   UNL     1      -1.800  -2.154   2.417  0.00  0.00    +0.058 A 
ATOM      2  C   UNL     1      -2.895  -1.335   2.689  0.00  0.00    +0.015 A 
ATOM      3  C   UNL     1      -3.919  -1.794   3.487  0.00  0.00    +0.001 A 
ATOM      4  C   UNL     1      -3.855  -3.069   4.026  0.00  0.00    +0.006 A 
ATOM      5  C   UNL     1      -2.777  -3.888   3.776  0.00  0.00    -0.019 A 
ATOM      6  C   UNL     1      -1.733  -3.457   2.952  0.00  0.00    +0.044 A 
ATOM      7  N   UNL     1      -0.639  -4.234   2.611  0.00  0.00    -0.336 N 
ATOM      8  C   UNL     1      -0.532  -5.553   3.255  0.00  0.00    +0.108 C 
ATOM      9  C   UNL     1      -1.930  -6.131   3.320  0.00  0.00    +0.029 C 
ATOM     10  C   UNL     1      -2.671  -5.238   4.372  0.00  0.00    +0.049 C 
ATOM     11  C   UNL     1      -3.854  -6.083   4.726  0.00  0.00    -0.023 C 
ATOM     12  C   UNL     1      -3.549  -7.363   4.538  0.00  0.00    -0.030 C 
ATOM     13  C   UNL     1      -2.117  -7.487   4.011  0.00  0.00    +0.033 C 
ATOM     14  H   UNL     1       0.220  -3.713   2.709  0.00  0.00    +0.147 HD
ENDROOT
BRANCH   8  15
ATOM     15  C   UNL     1       0.360  -6.452   2.439  0.00  0.00    +0.015 A 
ATOM     16  C   UNL     1       0.471  -6.263   1.075  0.00  0.00    +0.024 A 
ATOM     17  C   UNL     1       1.293  -7.085   0.326  0.00  0.00    +0.018 A 
ATOM     18  C   UNL     1       1.997  -8.106   0.939  0.00  0.00    +0.019 A 
ATOM     19  C   UNL     1       1.885  -8.303   2.301  0.00  0.00    +0.047 A 
ATOM     20  C   UNL     1       1.065  -7.476   3.055  0.00  0.00    +0.122 A 
ATOM     21 BR   UNL     1       1.448  -6.819  -1.540  0.00  0.00    -0.050 Br
BRANCH  20  22
ATOM     22  O   UNL     1       0.953  -7.667   4.396  0.00  0.00    -0.506 OA
ATOM     23  H   UNL     1       0.300  -8.336   4.644  0.00  0.00    +0.292 HD
ENDBRANCH  20  22
ENDBRANCH   8  15
BRANCH   1  25
ATOM     24  N   UNL     1      -0.771  -0.413   1.043  0.00  0.00    -0.305 N 
ATOM     25  C   UNL     1      -0.708  -1.656   1.561  0.00  0.00    +0.246 C 
ATOM     26  O   UNL     1       0.249  -2.367   1.321  0.00  0.00    -0.270 OA
ATOM     27  H   UNL     1      -1.534   0.154   1.234  0.00  0.00    +0.150 HD
BRANCH  24  29
ATOM     28  C   UNL     1       0.079  -0.373  -1.250  0.00  0.00    +0.033 C 
ATOM     29  C   UNL     1       0.315   0.081   0.192  0.00  0.00    +0.100 C 
BRANCH  29  30
ATOM     30  C   UNL     1       0.349   1.587   0.245  0.00  0.00    -0.027 A 
ATOM     31  C   UNL     1      -0.832   2.305   0.243  0.00  0.00    +0.005 A 
ATOM     32  C   UNL     1      -0.801   3.686   0.296  0.00  0.00    +0.000 A 
ATOM     33  C   UNL     1       0.411   4.349   0.343  0.00  0.00    +0.000 A 
ATOM     34  C   UNL     1       1.592   3.630   0.340  0.00  0.00    +0.000 A 
ATOM     35  C   UNL     1       1.561   2.249   0.291  0.00  0.00    +0.005 A 
ENDBRANCH  29  30
ENDBRANCH  24  29
ENDBRANCH   1  25
TORSDOF 5
