REMARK  Name = ZINC39450833
REMARK  4 active torsions:
REMARK  status: ('A' for Active; 'I' for Inactive)
REMARK    1  A    between atoms: C_1  and  S_2
REMARK    2  A    between atoms: S_2  and  C_3
REMARK    3  A    between atoms: N_9  and  S_12
REMARK    4  A    between atoms: S_12  and  C_15
REMARK                            x       y       z     vdW  Elec       q    Type
REMARK                         _______ _______ _______ _____ _____    ______ ____
ROOT
ATOM      1  C   UNL     1       1.594  -0.364  -1.212  0.00  0.00    +0.026 A 
ATOM      2  C   UNL     1       1.821  -1.694  -1.555  0.00  0.00    +0.031 A 
ATOM      3  C   UNL     1       2.112  -1.984  -2.886  0.00  0.00    +0.069 A 
ATOM      4  C   UNL     1       2.167  -0.932  -3.827  0.00  0.00    +0.099 A 
ATOM      5  C   UNL     1       2.476  -1.266  -5.223  0.00  0.00    +0.085 A 
ATOM      6  C   UNL     1       2.707  -2.583  -5.580  0.00  0.00    +0.134 A 
ATOM      7  N   UNL     1       2.644  -3.600  -4.635  0.00  0.00    -0.170 N 
ATOM      8  C   UNL     1       2.365  -3.359  -3.341  0.00  0.00    +0.281 A 
ATOM      9  O   UNL     1       2.321  -4.280  -2.546  0.00  0.00    -0.265 OA
ATOM     10  C   UNL     1       3.015  -2.902  -6.920  0.00  0.00    +0.187 C 
ATOM     11  O   UNL     1       3.168  -4.064  -7.241  0.00  0.00    -0.290 OA
ATOM     12  C   UNL     1       3.155  -1.818  -7.956  0.00  0.00    +0.138 C 
ATOM     13  C   UNL     1       2.255  -0.636  -7.579  0.00  0.00    +0.259 C 
ATOM     14  N   UNL     1       2.534  -0.272  -6.181  0.00  0.00    -0.311 N 
ATOM     15  F   UNL     1       0.912  -1.004  -7.713  0.00  0.00    -0.224 F 
ATOM     16  N   UNL     1       1.943   0.321  -3.448  0.00  0.00    -0.252 NA
ATOM     17  C   UNL     1       1.661   0.621  -2.200  0.00  0.00    +0.126 A 
ATOM     18  H   UNL     1       2.752   0.641  -5.939  0.00  0.00    +0.149 HD
ENDROOT
BRANCH   7  19
ATOM     19  S   UNL     1       2.921  -5.160  -5.117  0.00  0.00    +0.087 S 
ATOM     20  O   UNL     1       3.969  -5.108  -6.076  0.00  0.00    -0.148 OA
ATOM     21  O   UNL     1       3.009  -5.942  -3.934  0.00  0.00    -0.148 OA
BRANCH  19  22
ATOM     22  C   UNL     1       1.481  -5.704  -5.975  0.00  0.00    +0.111 A 
ATOM     23  C   UNL     1       0.452  -6.313  -5.281  0.00  0.00    +0.029 A 
ATOM     24  C   UNL     1      -0.677  -6.740  -5.954  0.00  0.00    +0.002 A 
ATOM     25  C   UNL     1      -0.778  -6.557  -7.320  0.00  0.00    +0.000 A 
ATOM     26  C   UNL     1       0.250  -5.947  -8.014  0.00  0.00    +0.002 A 
ATOM     27  C   UNL     1       1.378  -5.517  -7.340  0.00  0.00    +0.029 A 
ENDBRANCH  19  22
ENDBRANCH   7  19
BRANCH   1  29
ATOM     28  C   UNL     1       1.005   1.873   0.398  0.00  0.00    +0.090 C 
ATOM     29  S   UNL     1       1.220   0.073   0.454  0.00  0.00    -0.127 S 
ENDBRANCH   1  29
TORSDOF 3
