REMARK  Name = ZINC41584278
REMARK  16 active torsions:
REMARK  status: ('A' for Active; 'I' for Inactive)
REMARK    1  A    between atoms: C_1  and  C_2
REMARK    2  A    between atoms: C_2  and  C_3
REMARK    3  A    between atoms: C_3  and  C_4
REMARK    4  A    between atoms: C_4  and  N_5
REMARK    5  A    between atoms: N_5  and  C_6
REMARK    6  A    between atoms: N_5  and  C_10
REMARK    7  A    between atoms: C_6  and  C_7
REMARK    8  A    between atoms: C_7  and  C_8
REMARK    9  A    between atoms: C_8  and  C_9
REMARK   10  A    between atoms: C_10  and  C_11
REMARK   11  A    between atoms: C_12  and  O_35
REMARK   12  A    between atoms: C_18  and  C_31
REMARK   13  A    between atoms: C_19  and  O_22
REMARK   14  A    between atoms: O_22  and  C_23
REMARK   15  A    between atoms: C_27  and  O_29
REMARK   16  A    between atoms: O_29  and  C_30
REMARK                            x       y       z     vdW  Elec       q    Type
REMARK                         _______ _______ _______ _____ _____    ______ ____
ROOT
ATOM      1  C   UNL     1      -2.004  -4.329   1.888  0.00  0.00    +0.020 A 
ATOM      2  C   UNL     1      -0.644  -4.563   2.004  0.00  0.00    +0.122 A 
ATOM      3  C   UNL     1      -0.061  -4.748   3.256  0.00  0.00    +0.046 A 
ATOM      4  C   UNL     1      -0.824  -4.701   4.387  0.00  0.00    +0.019 A 
ATOM      5  C   UNL     1      -2.196  -4.466   4.287  0.00  0.00    +0.068 A 
ATOM      6  C   UNL     1      -2.792  -4.272   3.028  0.00  0.00    +0.144 A 
ATOM      7  O   UNL     1      -4.118  -4.040   2.943  0.00  0.00    -0.447 OA
ATOM      8  C   UNL     1      -4.907  -3.980   4.025  0.00  0.00    +0.254 A 
ATOM      9  C   UNL     1      -4.439  -4.145   5.278  0.00  0.00    +0.222 A 
ATOM     10  C   UNL     1      -3.055  -4.408   5.482  0.00  0.00    +0.235 A 
ATOM     11  O   UNL     1      -2.596  -4.563   6.602  0.00  0.00    -0.283 OA
ENDROOT
BRANCH   8  12
ATOM     12  C   UNL     1      -6.378  -3.716   3.832  0.00  0.00    +0.454 C 
ATOM     13  F   UNL     1      -6.992  -3.565   5.079  0.00  0.00    -0.163 F 
ATOM     14  F   UNL     1      -6.547  -2.545   3.084  0.00  0.00    -0.163 F 
ATOM     15  F   UNL     1      -6.959  -4.791   3.152  0.00  0.00    -0.163 F 
ENDBRANCH   8  12
BRANCH   2  16
ATOM     16  O   UNL     1       0.128  -4.614   0.888  0.00  0.00    -0.506 OA
ATOM     17  H   UNL     1       0.496  -3.759   0.626  0.00  0.00    +0.292 HD
ENDBRANCH   2  16
BRANCH   1  18
ATOM     18  C   UNL     1      -2.624  -4.131   0.528  0.00  0.00    -0.036 C 
BRANCH  18  19
ATOM     19  N   UNL     1      -2.593  -2.704   0.180  0.00  0.00    +0.383 N 
ATOM     20  H   UNL     1      -3.042  -2.170   0.908  0.00  0.00    -0.081 HD
BRANCH  19  21
ATOM     21  C   UNL     1      -1.198  -2.265   0.038  0.00  0.00    -0.078 C 
BRANCH  21  22
ATOM     22  C   UNL     1      -1.162  -0.759  -0.231  0.00  0.00    -0.019 C 
BRANCH  22  24
ATOM     23  C   UNL     1       0.326   1.228  -0.514  0.00  0.00    +0.004 C 
ATOM     24  C   UNL     1       0.290  -0.278  -0.245  0.00  0.00    -0.005 C 
ENDBRANCH  22  24
ENDBRANCH  21  22
ENDBRANCH  19  21
BRANCH  19  25
ATOM     25  C   UNL     1      -3.303  -2.494  -1.089  0.00  0.00    -0.078 C 
BRANCH  25  26
ATOM     26  C   UNL     1      -4.785  -2.825  -0.904  0.00  0.00    -0.019 C 
BRANCH  26  27
ATOM     27  C   UNL     1      -5.548  -2.481  -2.186  0.00  0.00    -0.005 C 
ATOM     28  C   UNL     1      -7.030  -2.811  -2.001  0.00  0.00    +0.004 C 
ENDBRANCH  26  27
ENDBRANCH  25  26
ENDBRANCH  19  25
ENDBRANCH  18  19
ENDBRANCH   1  18
BRANCH   9  29
ATOM     29  O   UNL     1      -5.287  -4.073   6.340  0.00  0.00    -0.448 OA
BRANCH  29  30
ATOM     30  C   UNL     1      -5.135  -3.038   7.208  0.00  0.00    +0.132 A 
ATOM     31  C   UNL     1      -4.223  -2.029   6.933  0.00  0.00    +0.046 A 
ATOM     32  C   UNL     1      -4.069  -0.977   7.815  0.00  0.00    +0.007 A 
ATOM     33  C   UNL     1      -4.822  -0.926   8.973  0.00  0.00    +0.046 A 
ATOM     34  C   UNL     1      -5.735  -1.933   9.252  0.00  0.00    +0.124 A 
ATOM     35  C   UNL     1      -5.896  -2.987   8.366  0.00  0.00    +0.091 A 
BRANCH  34  36
ATOM     36  O   UNL     1      -6.475  -1.883  10.391  0.00  0.00    -0.495 OA
ATOM     37  C   UNL     1      -6.261  -0.765  11.255  0.00  0.00    +0.277 C 
ENDBRANCH  34  36
ENDBRANCH  29  30
ENDBRANCH   9  29
TORSDOF 13
