REMARK  Name = ZINC48858708
REMARK  5 active torsions:
REMARK  status: ('A' for Active; 'I' for Inactive)
REMARK    1  A    between atoms: C_1  and  C_2
REMARK    2  A    between atoms: C_7  and  C_9
REMARK    3  A    between atoms: C_7  and  N_12
REMARK    4  A    between atoms: C_20  and  C_22
REMARK    5  A    between atoms: C_22  and  O_23
REMARK                            x       y       z     vdW  Elec       q    Type
REMARK                         _______ _______ _______ _____ _____    ______ ____
ROOT
ATOM      1  N   UNL     1      -0.648  -2.535   1.742  0.00  0.00    -0.283 N 
ATOM      2  C   UNL     1      -0.857  -3.853   1.556  0.00  0.00    +0.303 C 
ATOM      3  O   UNL     1       0.088  -4.603   1.409  0.00  0.00    -0.253 OA
ATOM      4  N   UNL     1      -2.114  -4.339   1.531  0.00  0.00    -0.280 N 
ATOM      5  C   UNL     1      -3.269  -3.432   1.573  0.00  0.00    +0.110 C 
ATOM      6  C   UNL     1      -4.190  -3.859   2.720  0.00  0.00    +0.019 C 
ATOM      7  C   UNL     1      -4.556  -5.335   2.553  0.00  0.00    +0.003 C 
ATOM      8  C   UNL     1      -3.286  -6.188   2.610  0.00  0.00    +0.025 C 
ATOM      9  C   UNL     1      -2.355  -5.787   1.456  0.00  0.00    +0.103 C 
ATOM     10  H   UNL     1      -1.402  -1.926   1.786  0.00  0.00    +0.151 HD
ENDROOT
BRANCH   1  16
ATOM     11  C   UNL     1      -0.041   1.666   1.072  0.00  0.00    +0.007 C 
ATOM     12  C   UNL     1       0.001   0.150   0.871  0.00  0.00    -0.012 C 
ATOM     13  C   UNL     1       0.797  -0.175  -0.394  0.00  0.00    +0.003 C 
ATOM     14  C   UNL     1       0.840  -1.691  -0.595  0.00  0.00    +0.003 C 
ATOM     15  C   UNL     1       1.513  -2.346   0.613  0.00  0.00    +0.037 C 
ATOM     16  C   UNL     1       0.717  -2.021   1.879  0.00  0.00    +0.137 C 
ATOM     17  C   UNL     1       0.674  -0.505   2.079  0.00  0.00    +0.040 C 
BRANCH  16  18
ATOM     18  C   UNL     1       1.380  -2.667   3.068  0.00  0.00    +0.379 C 
ATOM     19  O   UNL     1       2.527  -2.375   3.360  0.00  0.00    -0.244 OA
ATOM     20  O   UNL     1       0.768  -3.480   3.740  0.00  0.00    -0.244 OA
ENDBRANCH  16  18
ENDBRANCH   1  16
BRANCH   9  21
ATOM     21  C   UNL     1      -1.026  -6.535   1.583  0.00  0.00    +0.178 C 
BRANCH  21  22
ATOM     22  O   UNL     1      -0.447  -6.265   2.860  0.00  0.00    -0.393 OA
ATOM     23  H   UNL     1       0.399  -6.708   3.010  0.00  0.00    +0.209 HD
ENDBRANCH  21  22
ENDBRANCH   9  21
TORSDOF 4
