REMARK  Name = ZINC06879816
REMARK  7 active torsions:
REMARK  status: ('A' for Active; 'I' for Inactive)
REMARK    1  A    between atoms: C_1  and  C_2
REMARK    2  A    between atoms: C_2  and  C_3
REMARK    3  A    between atoms: C_3  and  N_4
REMARK    4  A    between atoms: N_7  and  N_8
REMARK    5  A    between atoms: C_9  and  C_11
REMARK    6  A    between atoms: C_13  and  C_21
REMARK    7  A    between atoms: C_24  and  C_26
REMARK                            x       y       z     vdW  Elec       q    Type
REMARK                         _______ _______ _______ _____ _____    ______ ____
ROOT
ATOM      1  C   UNL     1       0.002  -0.004   0.002  0.00  0.00    +0.049 A 
ATOM      2  C   UNL     1      -1.166  -0.741   0.118  0.00  0.00    +0.042 A 
ATOM      3  C   UNL     1      -1.101  -2.145   0.101  0.00  0.00    +0.079 A 
ATOM      4  N   UNL     1       0.042  -2.795  -0.013  0.00  0.00    -0.246 NA
ATOM      5  C   UNL     1       1.212  -2.164  -0.125  0.00  0.00    +0.072 A 
ATOM      6  C   UNL     1       1.257  -0.747  -0.123  0.00  0.00    +0.013 A 
ATOM      7  C   UNL     1       2.486  -0.090  -0.239  0.00  0.00    +0.011 A 
ATOM      8  C   UNL     1       3.632  -0.820  -0.354  0.00  0.00    +0.001 A 
ATOM      9  C   UNL     1       3.595  -2.212  -0.356  0.00  0.00    +0.002 A 
ATOM     10  C   UNL     1       2.415  -2.883  -0.244  0.00  0.00    +0.028 A 
ENDROOT
BRANCH   3  11
ATOM     11  C   UNL     1      -2.352  -2.919   0.219  0.00  0.00    +0.038 A 
ATOM     12  C   UNL     1      -2.530  -4.278   0.225  0.00  0.00    +0.018 A 
ATOM     13  C   UNL     1      -3.805  -4.778   0.351  0.00  0.00    +0.011 A 
ATOM     14  C   UNL     1      -4.848  -3.912   0.456  0.00  0.00    -0.013 A 
ATOM     15  S   UNL     1      -4.028  -2.328   0.384  0.00  0.00    -0.092 S 
ATOM     16  C   UNL     1      -6.318  -4.213   0.597  0.00  0.00    +0.051 C 
ENDBRANCH   3  11
BRANCH   1  18
ATOM     17  N   UNL     1      -1.194   2.133   0.011  0.00  0.00    -0.229 N 
ATOM     18  C   UNL     1      -0.018   1.475   0.010  0.00  0.00    +0.261 C 
ATOM     19  O   UNL     1       1.026   2.097   0.011  0.00  0.00    -0.269 OA
ATOM     20  H   UNL     1      -2.028   1.637   0.006  0.00  0.00    +0.173 HD
BRANCH  17  24
ATOM     21  N   UNL     1      -3.547   3.502   0.013  0.00  0.00    -0.298 N 
ATOM     22  C   UNL     1      -2.389   4.192   0.019  0.00  0.00    +0.316 C 
ATOM     23  O   UNL     1      -2.406   5.407   0.026  0.00  0.00    -0.251 OA
ATOM     24  N   UNL     1      -1.213   3.534   0.019  0.00  0.00    -0.218 N 
ATOM     25  H   UNL     1      -3.534   2.532   0.008  0.00  0.00    +0.150 HD
ATOM     26  H   UNL     1      -0.380   4.030   0.023  0.00  0.00    +0.174 HD
BRANCH  21  27
ATOM     27  C   UNL     1      -4.826   4.217   0.014  0.00  0.00    +0.105 C 
BRANCH  27  29
ATOM     28  C   UNL     1      -7.311   3.954   0.006  0.00  0.00    +0.005 C 
ATOM     29  C   UNL     1      -5.975   3.207   0.006  0.00  0.00    +0.015 C 
ENDBRANCH  27  29
ENDBRANCH  21  27
ENDBRANCH  17  24
ENDBRANCH   1  18
TORSDOF 5
