REMARK  Name = ZINC04517760
REMARK  7 active torsions:
REMARK  status: ('A' for Active; 'I' for Inactive)
REMARK    1  A    between atoms: C_1  and  C_2
REMARK    2  A    between atoms: C_2  and  N_48
REMARK    3  A    between atoms: C_8  and  N_13
REMARK    4  A    between atoms: C_9  and  C_10
REMARK    5  A    between atoms: C_14  and  C_16
REMARK    6  A    between atoms: C_21  and  S_22
REMARK    7  A    between atoms: S_22  and  C_25
REMARK                            x       y       z     vdW  Elec       q    Type
REMARK                         _______ _______ _______ _____ _____    ______ ____
ROOT
ATOM      1  C   UNL     1       7.044   0.002   0.379  0.00  0.00    -0.074 C 
ATOM      2  C   UNL     1       6.216   1.218  -0.046  0.00  0.00    +0.018 C 
ATOM      3  C   UNL     1       4.745   0.818  -0.038  0.00  0.00    -0.027 A 
ATOM      4  C   UNL     1       4.398  -0.489  -0.042  0.00  0.00    -0.021 A 
ATOM      5  S   UNL     1       2.629  -0.486  -0.018  0.00  0.00    -0.079 S 
ATOM      6  C   UNL     1       2.353   1.225  -0.014  0.00  0.00    +0.085 A 
ATOM      7  C   UNL     1       3.637   1.754  -0.023  0.00  0.00    +0.068 A 
ATOM      8  C   UNL     1       5.333  -1.658  -0.059  0.00  0.00    -0.035 C 
ATOM      9  N   UNL     1       6.673  -1.160  -0.455  0.00  0.00    +0.383 N 
ATOM     10  H   UNL     1       6.644  -0.868  -1.439  0.00  0.00    -0.081 HD
ENDROOT
BRANCH   7  11
ATOM     11  C   UNL     1       3.864   3.202  -0.018  0.00  0.00    +0.244 C 
ATOM     12  O   UNL     1       3.968   3.798   1.038  0.00  0.00    -0.270 OA
ATOM     13  N   UNL     1       3.958   3.874  -1.183  0.00  0.00    -0.325 N 
ATOM     14  H   UNL     1       3.875   3.399  -2.024  0.00  0.00    +0.145 HD
ATOM     15  H   UNL     1       4.108   4.832  -1.179  0.00  0.00    +0.145 HD
ENDBRANCH   7  11
BRANCH   6  16
ATOM     16  N   UNL     1       1.143   1.901   0.001  0.00  0.00    -0.275 N 
ATOM     17  C   UNL     1      -0.014   1.211   0.009  0.00  0.00    +0.250 C 
ATOM     18  O   UNL     1       0.002  -0.004   0.002  0.00  0.00    -0.270 OA
ATOM     19  H   UNL     1       1.130   2.871   0.007  0.00  0.00    +0.156 HD
BRANCH  17  20
ATOM     20  C   UNL     1      -1.304   1.933   0.019  0.00  0.00    +0.062 A 
ATOM     21  C   UNL     1      -1.327   3.329   0.032  0.00  0.00    +0.015 A 
ATOM     22  C   UNL     1      -2.534   3.996   0.037  0.00  0.00    +0.001 A 
ATOM     23  C   UNL     1      -3.721   3.285   0.038  0.00  0.00    +0.002 A 
ATOM     24  C   UNL     1      -3.706   1.901   0.030  0.00  0.00    +0.028 A 
ATOM     25  C   UNL     1      -2.505   1.222   0.021  0.00  0.00    +0.100 A 
BRANCH  25  26
ATOM     26  S   UNL     1      -2.488  -0.540   0.011  0.00  0.00    -0.005 S 
ATOM     27  O   UNL     1      -1.615  -0.900   1.073  0.00  0.00    -0.170 OA
ATOM     28  O   UNL     1      -3.858  -0.916   0.040  0.00  0.00    -0.170 OA
ATOM     29  C   UNL     1      -1.750  -0.991  -1.584  0.00  0.00    +0.200 C 
ENDBRANCH  25  26
ENDBRANCH  17  20
ENDBRANCH   6  16
BRANCH   9  31
ATOM     30  C   UNL     1       7.825  -2.621   1.171  0.00  0.00    -0.017 C 
ATOM     31  C   UNL     1       7.678  -2.234  -0.302  0.00  0.00    -0.082 C 
ENDBRANCH   9  31
TORSDOF 5
