REMARK  Name = ZINC09351192
REMARK  12 active torsions:
REMARK  status: ('A' for Active; 'I' for Inactive)
REMARK    1  A    between atoms: C_1  and  C_2
REMARK    2  A    between atoms: C_2  and  C_3
REMARK    3  A    between atoms: C_3  and  C_5
REMARK    4  A    between atoms: C_3  and  N_6
REMARK    5  A    between atoms: N_6  and  C_7
REMARK    6  A    between atoms: C_15  and  C_17
REMARK    7  A    between atoms: C_17  and  O_18
REMARK    8  A    between atoms: O_18  and  C_19
REMARK    9  A    between atoms: C_19  and  C_21
REMARK   10  A    between atoms: C_26  and  S_27
REMARK   11  A    between atoms: S_27  and  C_28
REMARK   12  A    between atoms: C_28  and  C_29
REMARK                            x       y       z     vdW  Elec       q    Type
REMARK                         _______ _______ _______ _____ _____    ______ ____
ROOT
ATOM      1  C   UNL     1       0.929  -2.420   4.160  0.00  0.00    +0.341 C 
ATOM      2  O   UNL     1       1.591  -2.867   3.243  0.00  0.00    -0.245 OA
ENDROOT
BRANCH   1   3
ATOM      3  C   UNL     1       1.275  -2.759   5.550  0.00  0.00    +0.072 A 
ATOM      4  C   UNL     1       0.514  -2.253   6.608  0.00  0.00    +0.016 A 
ATOM      5  C   UNL     1       0.842  -2.574   7.906  0.00  0.00    +0.001 A 
ATOM      6  C   UNL     1       1.925  -3.398   8.172  0.00  0.00    +0.001 A 
ATOM      7  C   UNL     1       2.687  -3.906   7.141  0.00  0.00    +0.015 A 
ATOM      8  C   UNL     1       2.368  -3.599   5.823  0.00  0.00    +0.022 A 
BRANCH   8   9
ATOM      9  S   UNL     1       3.335  -4.251   4.502  0.00  0.00    -0.115 S 
BRANCH   9  10
ATOM     10  C   UNL     1       4.598  -5.251   5.335  0.00  0.00    +0.170 C 
BRANCH  10  11
ATOM     11  C   UNL     1       5.505  -5.875   4.306  0.00  0.00    +0.226 C 
ATOM     12  O   UNL     1       5.317  -5.666   3.126  0.00  0.00    -0.275 OA
ATOM     13  N   UNL     1       6.524  -6.665   4.696  0.00  0.00    -0.301 N 
ATOM     14  C   UNL     1       6.861  -7.006   6.086  0.00  0.00    +0.108 C 
ATOM     15  C   UNL     1       8.111  -7.910   6.047  0.00  0.00    +0.020 C 
ATOM     16  C   UNL     1       8.745  -7.567   4.673  0.00  0.00    +0.020 C 
ATOM     17  C   UNL     1       7.483  -7.337   3.800  0.00  0.00    +0.108 C 
ENDBRANCH  10  11
ENDBRANCH   9  10
ENDBRANCH   8   9
ENDBRANCH   1   3
BRANCH   1  18
ATOM     18  O   UNL     1      -0.120  -1.615   3.903  0.00  0.00    -0.452 OA
BRANCH  18  19
ATOM     19  C   UNL     1      -0.398  -1.328   2.531  0.00  0.00    +0.328 C 
BRANCH  19  21
ATOM     20  N   UNL     1      -2.104  -0.090   1.236  0.00  0.00    -0.291 N 
ATOM     21  C   UNL     1      -1.597  -0.420   2.441  0.00  0.00    +0.254 C 
ATOM     22  O   UNL     1      -2.106   0.015   3.452  0.00  0.00    -0.272 OA
BRANCH  20  23
ATOM     23  C   UNL     1      -3.330   0.706   1.150  0.00  0.00    +0.099 C 
ATOM     24  C   UNL     1      -4.475  -0.042   1.854  0.00  0.00    +0.046 C 
ATOM     25  C   UNL     1      -5.665   0.945   2.024  0.00  0.00    +0.168 C 
ATOM     26  S   UNL     1      -4.765   2.481   2.499  0.00  0.00    -0.029 S 
ATOM     27  O   UNL     1      -4.687   2.552   3.916  0.00  0.00    -0.174 OA
ATOM     28  O   UNL     1      -5.305   3.576   1.773  0.00  0.00    -0.174 OA
ATOM     29  C   UNL     1      -3.101   2.078   1.829  0.00  0.00    +0.188 C 
ENDBRANCH  20  23
BRANCH  20  30
ATOM     30  C   UNL     1      -1.427  -0.528   0.013  0.00  0.00    +0.073 C 
ATOM     31  C   UNL     1      -1.014   0.696  -0.808  0.00  0.00    +0.028 C 
BRANCH  30  33
ATOM     32  C   UNL     1      -2.682  -2.688  -0.048  0.00  0.00    +0.005 C 
ATOM     33  C   UNL     1      -2.378  -1.398  -0.812  0.00  0.00    +0.019 C 
ENDBRANCH  30  33
ENDBRANCH  20  30
ENDBRANCH  19  21
ENDBRANCH  18  19
ENDBRANCH   1  18
TORSDOF 10
