REMARK  Name = ZINC47021846
REMARK  8 active torsions:
REMARK  status: ('A' for Active; 'I' for Inactive)
REMARK    1  A    between atoms: C_1  and  C_2
REMARK    2  A    between atoms: C_2  and  C_4
REMARK    3  A    between atoms: C_6  and  C_10
REMARK    4  A    between atoms: N_12  and  C_13
REMARK    5  A    between atoms: C_13  and  C_14
REMARK    6  A    between atoms: C_14  and  C_15
REMARK    7  A    between atoms: C_14  and  C_16
REMARK    8  A    between atoms: C_14  and  C_17
REMARK                            x       y       z     vdW  Elec       q    Type
REMARK                         _______ _______ _______ _____ _____    ______ ____
ROOT
ATOM      1  C   UNL     1       0.012  -3.700  -3.417  0.00  0.00    +0.260 C 
ATOM      2  O   UNL     1       0.026  -4.704  -2.730  0.00  0.00    -0.269 OA
ATOM      3  N   UNL     1       0.004  -3.802  -4.761  0.00  0.00    -0.309 N 
ATOM      4  H   UNL     1      -0.007  -3.001  -5.308  0.00  0.00    +0.149 HD
ENDROOT
BRANCH   1   7
ATOM      5  C   UNL     1      -0.000  -0.730  -1.272  0.00  0.00    +0.035 A 
ATOM      6  C   UNL     1       0.012  -2.136  -1.440  0.00  0.00    +0.043 A 
ATOM      7  C   UNL     1       0.005  -2.376  -2.781  0.00  0.00    +0.102 A 
ATOM      8  N   UNL     1      -0.011  -1.165  -3.440  0.00  0.00    -0.356 N 
ATOM      9  H   UNL     1      -0.019  -1.051  -4.403  0.00  0.00    +0.165 HD
ATOM     10  C   UNL     1      -0.020  -0.171  -2.540  0.00  0.00    +0.094 A 
BRANCH   5  12
ATOM     11  C   UNL     1      -0.018   1.503   0.010  0.00  0.00    +0.091 C 
ATOM     12  C   UNL     1       0.002  -0.004   0.002  0.00  0.00    +0.162 C 
ATOM     13  O   UNL     1       0.020  -0.616   1.049  0.00  0.00    -0.292 OA
ENDBRANCH   5  12
ENDBRANCH   1   7
BRANCH   3  14
ATOM     14  C   UNL     1       0.012  -5.123  -5.395  0.00  0.00    +0.115 C 
BRANCH  14  15
ATOM     15  C   UNL     1      -0.000  -4.958  -6.916  0.00  0.00    +0.006 C 
ATOM     16  C   UNL     1      -1.260  -4.198  -7.336  0.00  0.00    +0.017 C 
ATOM     17  C   UNL     1       1.239  -4.175  -7.354  0.00  0.00    +0.017 C 
BRANCH  15  18
ATOM     18  C   UNL     1       0.008  -6.317  -7.568  0.00  0.00    -0.040 A 
ATOM     19  C   UNL     1       0.018  -7.458  -6.788  0.00  0.00    +0.005 A 
ATOM     20  C   UNL     1       0.025  -8.704  -7.386  0.00  0.00    +0.015 A 
ATOM     21  C   UNL     1       0.021  -8.809  -8.765  0.00  0.00    +0.018 A 
ATOM     22  C   UNL     1       0.011  -7.667  -9.545  0.00  0.00    +0.015 A 
ATOM     23  C   UNL     1      -0.001  -6.421  -8.946  0.00  0.00    +0.005 A 
ATOM     24 BR   UNL     1       0.032 -10.514  -9.583  0.00  0.00    -0.050 Br
ENDBRANCH  15  18
ENDBRANCH  14  15
ENDBRANCH   3  14
TORSDOF 5
