REMARK  Name = ZINC09291945
REMARK  9 active torsions:
REMARK  status: ('A' for Active; 'I' for Inactive)
REMARK    1  A    between atoms: C_1  and  C_2
REMARK    2  A    between atoms: C_2  and  C_3
REMARK    3  A    between atoms: C_3  and  O_4
REMARK    4  A    between atoms: O_4  and  C_5
REMARK    5  A    between atoms: C_8  and  C_11
REMARK    6  A    between atoms: C_12  and  C_22
REMARK    7  A    between atoms: N_24  and  N_25
REMARK    8  A    between atoms: C_26  and  C_27
REMARK    9  A    between atoms: C_26  and  C_28
REMARK                            x       y       z     vdW  Elec       q    Type
REMARK                         _______ _______ _______ _____ _____    ______ ____
ROOT
ATOM      1  C   UNL     1       7.378   9.519  -0.020  0.00  0.00    +0.109 A 
ATOM      2  C   UNL     1       7.254   8.133  -0.021  0.00  0.00    +0.177 A 
ATOM      3  N   UNL     1       8.488   7.603  -0.036  0.00  0.00    -0.124 NA
ATOM      4  N   UNL     1       9.370   8.539  -0.039  0.00  0.00    -0.058 NA
ATOM      5  N   UNL     1       8.719   9.780  -0.026  0.00  0.00    -0.187 N 
ATOM      6  C   UNL     1       9.324  11.041  -0.026  0.00  0.00    +0.241 A 
ATOM      7  C   UNL     1      10.767  11.300  -0.038  0.00  0.00    +0.206 A 
ATOM      8  N   UNL     1      10.952  12.591  -0.033  0.00  0.00    -0.032 NA
ATOM      9  O   UNL     1       9.678  13.212  -0.018  0.00  0.00    -0.239 OA
ATOM     10  N   UNL     1       8.702  12.185  -0.020  0.00  0.00    -0.027 NA
ATOM     11  N   UNL     1      11.767  10.334  -0.052  0.00  0.00    -0.337 N 
ATOM     12  H   UNL     1      11.533   9.393  -0.055  0.00  0.00    +0.144 HD
ATOM     13  H   UNL     1      12.700  10.602  -0.059  0.00  0.00    +0.144 HD
ENDROOT
BRANCH   1  17
ATOM     14  C   UNL     1       4.224  12.362   0.005  0.00  0.00    +0.121 A 
ATOM     15  C   UNL     1       4.162  11.267  -0.848  0.00  0.00    +0.046 A 
ATOM     16  C   UNL     1       5.183  10.342  -0.859  0.00  0.00    +0.013 A 
ATOM     17  C   UNL     1       6.282  10.507  -0.012  0.00  0.00    +0.003 A 
ATOM     18  C   UNL     1       6.337  11.607   0.848  0.00  0.00    +0.013 A 
ATOM     19  C   UNL     1       5.314  12.530   0.849  0.00  0.00    +0.046 A 
BRANCH  14  20
ATOM     20  O   UNL     1       3.215  13.271   0.013  0.00  0.00    -0.492 OA
BRANCH  20  21
ATOM     21  C   UNL     1       3.342  14.373   0.914  0.00  0.00    +0.229 C 
BRANCH  21  23
ATOM     22  C   UNL     1       2.255  16.464   1.746  0.00  0.00    +0.007 C 
ATOM     23  C   UNL     1       2.119  15.284   0.782  0.00  0.00    +0.038 C 
ENDBRANCH  21  23
ENDBRANCH  20  21
ENDBRANCH  14  20
ENDBRANCH   1  17
BRANCH   2  24
ATOM     24  C   UNL     1       5.991   7.379  -0.013  0.00  0.00    +0.286 C 
ATOM     25  O   UNL     1       4.928   7.972  -0.001  0.00  0.00    -0.267 OA
ATOM     26  N   UNL     1       6.010   6.031  -0.021  0.00  0.00    -0.201 N 
ATOM     27  H   UNL     1       6.857   5.559  -0.031  0.00  0.00    +0.178 HD
BRANCH  26  28
ATOM     28  N   UNL     1       4.807   5.313  -0.014  0.00  0.00    -0.184 NA
ATOM     29  C   UNL     1       4.826   4.015  -0.021  0.00  0.00    +0.063 C 
ATOM     30  C   UNL     1       6.142   3.281  -0.037  0.00  0.00    +0.068 C 
BRANCH  29  31
ATOM     31  C   UNL     1       3.560   3.260  -0.013  0.00  0.00    -0.002 A 
ATOM     32  C   UNL     1       3.586   1.853  -0.021  0.00  0.00    +0.010 A 
ATOM     33  C   UNL     1       2.434   1.136  -0.015  0.00  0.00    +0.009 A 
ATOM     34  C   UNL     1       1.193   1.798   0.000  0.00  0.00    -0.018 A 
ATOM     35  C   UNL     1      -0.013   1.076   0.008  0.00  0.00    +0.008 A 
ATOM     36  C   UNL     1      -1.199   1.743   0.017  0.00  0.00    +0.001 A 
ATOM     37  C   UNL     1      -1.239   3.136   0.031  0.00  0.00    +0.001 A 
ATOM     38  C   UNL     1      -0.093   3.870   0.024  0.00  0.00    +0.008 A 
ATOM     39  C   UNL     1       1.152   3.215   0.008  0.00  0.00    -0.017 A 
ATOM     40  C   UNL     1       2.353   3.941   0.001  0.00  0.00    +0.018 A 
ENDBRANCH  29  31
ENDBRANCH  26  28
ENDBRANCH   2  24
TORSDOF 7
