REMARK  Name = ZINC67045374
REMARK  9 active torsions:
REMARK  status: ('A' for Active; 'I' for Inactive)
REMARK    1  A    between atoms: C_1  and  N_2
REMARK    2  A    between atoms: N_2  and  C_3
REMARK    3  A    between atoms: C_4  and  S_6
REMARK    4  A    between atoms: S_6  and  C_7
REMARK    5  A    between atoms: C_12  and  N_13
REMARK    6  A    between atoms: C_14  and  C_16
REMARK    7  A    between atoms: C_19  and  C_22
REMARK    8  A    between atoms: N_23  and  O_24
REMARK    9  A    between atoms: O_24  and  C_25
REMARK                            x       y       z     vdW  Elec       q    Type
REMARK                         _______ _______ _______ _____ _____    ______ ____
ROOT
ATOM      1  N   UNL     1      -0.107  -5.338  -2.150  0.00  0.00    -0.281 N 
ATOM      2  C   UNL     1      -0.074  -6.644  -2.482  0.00  0.00    +0.248 C 
ATOM      3  O   UNL     1      -0.032  -6.974  -3.651  0.00  0.00    -0.270 OA
ATOM      4  H   UNL     1      -0.219  -5.076  -1.223  0.00  0.00    +0.155 HD
ENDROOT
BRANCH   1  10
ATOM      5  C   UNL     1      -0.506  -3.085  -2.942  0.00  0.00    +0.038 A 
ATOM      6  C   UNL     1      -0.372  -2.119  -3.929  0.00  0.00    +0.017 A 
ATOM      7  C   UNL     1       0.277  -2.424  -5.110  0.00  0.00    +0.001 A 
ATOM      8  C   UNL     1       0.794  -3.691  -5.313  0.00  0.00    +0.002 A 
ATOM      9  C   UNL     1       0.665  -4.660  -4.335  0.00  0.00    +0.024 A 
ATOM     10  C   UNL     1       0.020  -4.361  -3.144  0.00  0.00    +0.048 A 
BRANCH   5  11
ATOM     11  S   UNL     1      -1.333  -2.699  -1.434  0.00  0.00    -0.030 S 
BRANCH  11  15
ATOM     12  C   UNL     1      -5.047  -4.182  -0.670  0.00  0.00    +0.132 C 
ATOM     13  N   UNL     1      -3.752  -3.508  -0.546  0.00  0.00    -0.298 N 
ATOM     14  C   UNL     1      -3.394  -2.833   0.703  0.00  0.00    +0.132 C 
ATOM     15  C   UNL     1      -2.890  -3.510  -1.583  0.00  0.00    +0.279 C 
ATOM     16  O   UNL     1      -3.188  -4.070  -2.620  0.00  0.00    -0.262 OA
ENDBRANCH  11  15
ENDBRANCH   5  11
ENDBRANCH   1  10
BRANCH   2  17
ATOM     17  C   UNL     1      -0.088  -7.676  -1.423  0.00  0.00    +0.037 A 
ATOM     18  C   UNL     1      -0.141  -7.297  -0.080  0.00  0.00    +0.014 A 
ATOM     19  C   UNL     1      -0.154  -8.258   0.906  0.00  0.00    +0.010 A 
ATOM     20  C   UNL     1      -0.115  -9.611   0.563  0.00  0.00    -0.004 A 
ATOM     21  C   UNL     1      -0.061  -9.990  -0.781  0.00  0.00    +0.010 A 
ATOM     22  C   UNL     1      -0.053  -9.029  -1.767  0.00  0.00    +0.014 A 
BRANCH  20  23
ATOM     23  C   UNL     1      -0.129 -10.642   1.620  0.00  0.00    +0.160 C 
ATOM     24  N   UNL     1      -0.092 -11.895   1.302  0.00  0.00    -0.093 NA
BRANCH  24  25
ATOM     25  O   UNL     1      -0.105 -12.883   2.316  0.00  0.00    -0.397 OA
ATOM     26  C   UNL     1      -0.061 -14.223   1.822  0.00  0.00    +0.313 C 
ENDBRANCH  24  25
ENDBRANCH  20  23
ENDBRANCH   2  17
TORSDOF 6
