REMARK  Name = ZINC12347352
REMARK  4 active torsions:
REMARK  status: ('A' for Active; 'I' for Inactive)
REMARK    1  A    between atoms: C_3  and  C_9
REMARK    2  A    between atoms: C_15  and  C_17
REMARK    3  A    between atoms: N_20  and  S_23
REMARK    4  A    between atoms: S_23  and  C_26
REMARK                            x       y       z     vdW  Elec       q    Type
REMARK                         _______ _______ _______ _____ _____    ______ ____
ROOT
ATOM      1  C   UNL     1       7.012  -0.567  -4.753  0.00  0.00    +0.083 A 
ATOM      2  C   UNL     1       6.330  -1.447  -5.546  0.00  0.00    +0.077 A 
ATOM      3  S   UNL     1       4.751  -1.494  -4.709  0.00  0.00    -0.060 S 
ATOM      4  C   UNL     1       5.156  -0.339  -3.406  0.00  0.00    +0.165 A 
ATOM      5  N   UNL     1       6.406  -0.035  -3.703  0.00  0.00    -0.225 NA
ATOM      6  N   UNL     1       4.367   0.114  -2.356  0.00  0.00    -0.264 N 
ATOM      7  C   UNL     1       3.098  -0.324  -2.228  0.00  0.00    +0.222 C 
ATOM      8  O   UNL     1       2.646  -1.113  -3.030  0.00  0.00    -0.275 OA
ATOM      9  H   UNL     1       4.728   0.746  -1.714  0.00  0.00    +0.157 HD
ENDROOT
BRANCH   1  12
ATOM     10  C   UNL     1      10.359  -0.439  -6.460  0.00  0.00    +0.039 A 
ATOM     11  C   UNL     1       9.053  -0.777  -6.170  0.00  0.00    +0.016 A 
ATOM     12  C   UNL     1       8.417  -0.211  -5.067  0.00  0.00    +0.036 A 
ATOM     13  C   UNL     1       9.110   0.689  -4.254  0.00  0.00    +0.135 A 
ATOM     14  C   UNL     1      10.419   1.016  -4.551  0.00  0.00    +0.077 A 
ATOM     15  C   UNL     1      11.043   0.453  -5.652  0.00  0.00    +0.126 A 
ATOM     16  F   UNL     1      12.323   0.776  -5.938  0.00  0.00    -0.205 F 
ATOM     17  F   UNL     1       8.501   1.238  -3.180  0.00  0.00    -0.205 F 
ENDBRANCH   1  12
BRANCH   7  18
ATOM     18  C   UNL     1       2.242   0.168  -1.090  0.00  0.00    +0.078 C 
ATOM     19  C   UNL     1       0.858  -0.479  -1.176  0.00  0.00    +0.030 C 
ATOM     20  C   UNL     1       0.002  -0.004   0.002  0.00  0.00    +0.110 C 
ATOM     21  N   UNL     1      -0.018   1.465   0.010  0.00  0.00    -0.176 NA
ATOM     22  C   UNL     1       1.261   2.189   0.002  0.00  0.00    +0.110 C 
ATOM     23  C   UNL     1       2.103   1.689  -1.177  0.00  0.00    +0.030 C 
BRANCH  21  24
ATOM     24  S   UNL     1      -1.454   2.289   0.021  0.00  0.00    +0.067 S 
ATOM     25  O   UNL     1      -1.189   3.575  -0.524  0.00  0.00    -0.152 OA
ATOM     26  O   UNL     1      -2.429   1.414  -0.530  0.00  0.00    -0.152 OA
BRANCH  24  27
ATOM     27  C   UNL     1      -1.898   2.539   1.708  0.00  0.00    +0.144 A 
ATOM     28  C   UNL     1      -1.589   3.574   2.527  0.00  0.00    +0.038 A 
ATOM     29  C   UNL     1      -2.052   3.559   3.830  0.00  0.00    +0.030 A 
ATOM     30  C   UNL     1      -2.802   2.509   4.249  0.00  0.00    +0.080 A 
ATOM     31  S   UNL     1      -2.878   1.500   2.779  0.00  0.00    -0.057 S 
ATOM     32 CL   UNL     1      -3.510   2.225   5.808  0.00  0.00    -0.076 Cl
ENDBRANCH  24  27
ENDBRANCH  21  24
ENDBRANCH   7  18
TORSDOF 4
