REMARK  Name = ZINC39926805
REMARK  8 active torsions:
REMARK  status: ('A' for Active; 'I' for Inactive)
REMARK    1  A    between atoms: C_1  and  C_2
REMARK    2  A    between atoms: C_2  and  O_3
REMARK    3  A    between atoms: O_3  and  C_4
REMARK    4  A    between atoms: C_7  and  C_10
REMARK    5  A    between atoms: C_14  and  S_17
REMARK    6  A    between atoms: N_15  and  N_16
REMARK    7  A    between atoms: S_17  and  C_18
REMARK    8  A    between atoms: C_18  and  C_19
REMARK                            x       y       z     vdW  Elec       q    Type
REMARK                         _______ _______ _______ _____ _____    ______ ____
ROOT
ATOM      1  C   UNL     1       1.144  -6.059   1.764  0.00  0.00    +0.223 C 
ATOM      2  N   UNL     1      -0.043  -6.736   1.215  0.00  0.00    -0.241 N 
ATOM      3  N   UNL     1      -0.636  -7.414   2.288  0.00  0.00    -0.161 NA
ATOM      4  C   UNL     1       0.025  -7.237   3.382  0.00  0.00    +0.189 C 
ATOM      5  N   UNL     1       1.137  -6.427   3.190  0.00  0.00    -0.221 N 
ATOM      6  H   UNL     1      -0.352  -6.716   0.296  0.00  0.00    +0.171 HD
ENDROOT
BRANCH   1  10
ATOM      7  C   UNL     1       0.802  -1.824   1.306  0.00  0.00    +0.121 A 
ATOM      8  C   UNL     1       0.260  -2.673   0.351  0.00  0.00    +0.046 A 
ATOM      9  C   UNL     1       0.372  -4.041   0.502  0.00  0.00    +0.011 A 
ATOM     10  C   UNL     1       1.024  -4.566   1.603  0.00  0.00    -0.007 A 
ATOM     11  C   UNL     1       1.565  -3.722   2.555  0.00  0.00    +0.011 A 
ATOM     12  C   UNL     1       1.460  -2.353   2.406  0.00  0.00    +0.046 A 
BRANCH   7  13
ATOM     13  O   UNL     1       0.693  -0.477   1.160  0.00  0.00    -0.492 OA
BRANCH  13  15
ATOM     14  C   UNL     1      -0.019   1.526   0.010  0.00  0.00    +0.048 C 
ATOM     15  C   UNL     1       0.002  -0.004   0.002  0.00  0.00    +0.225 C 
ENDBRANCH  13  15
ENDBRANCH   7  13
ENDBRANCH   1  10
BRANCH   5  16
ATOM     16  N   UNL     1       2.046  -6.045   4.137  0.00  0.00    -0.250 NA
ATOM     17  H   UNL     1       1.813  -6.433   5.038  0.00  0.00    +0.141 HD
ATOM     18  H   UNL     1       2.982  -6.300   3.863  0.00  0.00    +0.141 HD
ENDBRANCH   5  16
BRANCH   4  19
ATOM     19  S   UNL     1      -0.428  -7.941   4.932  0.00  0.00    -0.080 S 
BRANCH  19  20
ATOM     20  C   UNL     1      -1.934  -8.883   4.564  0.00  0.00    +0.151 C 
BRANCH  20  21
ATOM     21  C   UNL     1      -2.433  -9.544   5.823  0.00  0.00    +0.118 A 
ATOM     22  N   UNL     1      -3.272  -9.011   6.662  0.00  0.00    -0.232 NA
ATOM     23  C   UNL     1      -3.507  -9.875   7.683  0.00  0.00    +0.089 A 
ATOM     24  C   UNL     1      -4.304  -9.818   8.829  0.00  0.00    +0.030 A 
ATOM     25  C   UNL     1      -4.332 -10.877   9.692  0.00  0.00    +0.002 A 
ATOM     26  C   UNL     1      -3.576 -12.013   9.443  0.00  0.00    +0.002 A 
ATOM     27  C   UNL     1      -2.782 -12.091   8.319  0.00  0.00    +0.028 A 
ATOM     28  C   UNL     1      -2.741 -11.025   7.431  0.00  0.00    +0.066 A 
ATOM     29  N   UNL     1      -2.077 -10.788   6.244  0.00  0.00    -0.341 N 
ATOM     30  H   UNL     1      -1.468 -11.394   5.794  0.00  0.00    +0.167 HD
ENDBRANCH  20  21
ENDBRANCH  19  20
ENDBRANCH   4  19
TORSDOF 7
