REMARK  Name = ZINC66080501
REMARK  8 active torsions:
REMARK  status: ('A' for Active; 'I' for Inactive)
REMARK    1  A    between atoms: C_1  and  O_2
REMARK    2  A    between atoms: O_2  and  C_3
REMARK    3  A    between atoms: C_6  and  C_9
REMARK    4  A    between atoms: N_14  and  C_16
REMARK    5  A    between atoms: C_16  and  N_17
REMARK    6  A    between atoms: C_21  and  C_24
REMARK    7  A    between atoms: C_24  and  C_25
REMARK    8  A    between atoms: C_25  and  C_26
REMARK                            x       y       z     vdW  Elec       q    Type
REMARK                         _______ _______ _______ _____ _____    ______ ____
ROOT
ATOM      1  C   UNL     1       2.494  -2.493  -4.363  0.00  0.00    +0.160 A 
ATOM      2  N   UNL     1       2.606  -3.855  -4.558  0.00  0.00    -0.317 N 
ATOM      3  H   UNL     1       2.268  -4.544  -3.965  0.00  0.00    +0.169 HD
ATOM      4  C   UNL     1       3.265  -4.063  -5.716  0.00  0.00    +0.174 A 
ATOM      5  S   UNL     1       3.654  -5.585  -6.397  0.00  0.00    -0.012 S 
ATOM      6  N   UNL     1       3.562  -2.857  -6.240  0.00  0.00    -0.257 N 
ATOM      7  N   UNL     1       3.058  -1.882  -5.367  0.00  0.00    -0.153 NA
ENDROOT
BRANCH   1  11
ATOM      8  C   UNL     1       0.606  -0.607  -1.055  0.00  0.00    +0.120 A 
ATOM      9  C   UNL     1       1.172   0.164  -2.061  0.00  0.00    +0.046 A 
ATOM     10  C   UNL     1       1.786  -0.444  -3.136  0.00  0.00    +0.015 A 
ATOM     11  C   UNL     1       1.837  -1.836  -3.212  0.00  0.00    +0.019 A 
ATOM     12  C   UNL     1       1.266  -2.608  -2.198  0.00  0.00    +0.015 A 
ATOM     13  C   UNL     1       0.659  -1.993  -1.125  0.00  0.00    +0.046 A 
BRANCH   8  15
ATOM     14  C   UNL     1      -0.017   1.425   0.010  0.00  0.00    +0.277 C 
ATOM     15  O   UNL     1       0.002  -0.004   0.002  0.00  0.00    -0.495 OA
ENDBRANCH   8  15
ENDBRANCH   1  11
BRANCH   6  16
ATOM     16  C   UNL     1       4.276  -2.609  -7.495  0.00  0.00    +0.072 C 
BRANCH  16  17
ATOM     17  N   UNL     1       3.322  -2.174  -8.524  0.00  0.00    +0.393 N 
ATOM     18  C   UNL     1       2.742  -0.883  -8.136  0.00  0.00    -0.076 C 
ATOM     19  C   UNL     1       1.688  -0.464  -9.164  0.00  0.00    -0.018 C 
ATOM     20  C   UNL     1       2.348  -0.337 -10.540  0.00  0.00    -0.000 C 
ATOM     21  C   UNL     1       3.013  -1.668 -10.901  0.00  0.00    -0.027 C 
ATOM     22  C   UNL     1       4.018  -2.042  -9.809  0.00  0.00    -0.073 C 
ATOM     23  H   UNL     1       2.586  -2.859  -8.609  0.00  0.00    -0.079 HD
BRANCH  21  24
ATOM     24  C   UNL     1       3.741  -1.529 -12.240  0.00  0.00    +0.011 C 
BRANCH  24  25
ATOM     25  C   UNL     1       2.720  -1.273 -13.351  0.00  0.00    +0.096 C 
BRANCH  25  26
ATOM     26  C   UNL     1       3.436  -1.136 -14.669  0.00  0.00    +0.210 C 
ATOM     27  O   UNL     1       4.644  -1.234 -14.716  0.00  0.00    -0.276 OA
ATOM     28  N   UNL     1       2.735  -0.905 -15.797  0.00  0.00    -0.329 N 
ATOM     29  H   UNL     1       1.768  -0.827 -15.759  0.00  0.00    +0.145 HD
ATOM     30  H   UNL     1       3.196  -0.817 -16.645  0.00  0.00    +0.145 HD
ENDBRANCH  25  26
ENDBRANCH  24  25
ENDBRANCH  21  24
ENDBRANCH  16  17
ENDBRANCH   6  16
TORSDOF 7
