REMARK  Name = ZINC05131275
REMARK  10 active torsions:
REMARK  status: ('A' for Active; 'I' for Inactive)
REMARK    1  A    between atoms: C_1  and  C_2
REMARK    2  A    between atoms: C_2  and  N_3
REMARK    3  A    between atoms: C_4  and  C_19
REMARK    4  A    between atoms: C_7  and  S_8
REMARK    5  A    between atoms: S_8  and  C_9
REMARK    6  A    between atoms: C_9  and  C_11
REMARK    7  A    between atoms: C_9  and  C_12
REMARK    8  A    between atoms: N_17  and  C_18
REMARK    9  A    between atoms: C_24  and  O_25
REMARK   10  A    between atoms: O_25  and  C_26
REMARK                            x       y       z     vdW  Elec       q    Type
REMARK                         _______ _______ _______ _____ _____    ______ ____
ROOT
ATOM      1  N   UNL     1       0.162  -2.999   0.085  0.00  0.00    -0.302 N 
ATOM      2  C   UNL     1       1.233  -2.168  -0.150  0.00  0.00    +0.168 A 
ATOM      3  N   UNL     1       2.304  -2.925  -0.203  0.00  0.00    -0.128 NA
ATOM      4  N   UNL     1       1.981  -4.156  -0.024  0.00  0.00    -0.122 NA
ATOM      5  C   UNL     1       0.683  -4.260   0.154  0.00  0.00    +0.193 A 
ENDROOT
BRANCH   2   6
ATOM      6  C   UNL     1       1.186  -0.699  -0.308  0.00  0.00    +0.061 A 
ATOM      7  C   UNL     1       0.485   0.083   0.611  0.00  0.00    +0.015 A 
ATOM      8  C   UNL     1       0.445   1.453   0.458  0.00  0.00    +0.001 A 
ATOM      9  C   UNL     1       1.098   2.057  -0.603  0.00  0.00    +0.004 A 
ATOM     10  C   UNL     1       1.796   1.292  -1.518  0.00  0.00    +0.046 A 
ATOM     11  C   UNL     1       1.846  -0.085  -1.379  0.00  0.00    +0.131 A 
BRANCH  11  12
ATOM     12  O   UNL     1       2.532  -0.837  -2.279  0.00  0.00    -0.494 OA
ATOM     13  C   UNL     1       3.180  -0.141  -3.346  0.00  0.00    +0.277 C 
ENDBRANCH  11  12
ENDBRANCH   2   6
BRANCH   1  15
ATOM     14  C   UNL     1      -1.911  -2.595  -1.147  0.00  0.00    +0.027 C 
ATOM     15  C   UNL     1      -1.244  -2.613   0.230  0.00  0.00    +0.122 C 
ENDBRANCH   1  15
BRANCH   5  16
ATOM     16  S   UNL     1      -0.216  -5.749   0.436  0.00  0.00    -0.074 S 
BRANCH  16  17
ATOM     17  C   UNL     1       1.139  -6.948   0.395  0.00  0.00    +0.137 C 
ATOM     18  C   UNL     1       2.084  -6.690   1.571  0.00  0.00    +0.029 C 
BRANCH  17  19
ATOM     19  C   UNL     1       0.579  -8.343   0.497  0.00  0.00    +0.233 C 
ATOM     20  O   UNL     1      -0.535  -8.518   0.943  0.00  0.00    -0.274 OA
ATOM     21  N   UNL     1       1.316  -9.396   0.092  0.00  0.00    -0.239 N 
ATOM     22  C   UNL     1       0.815 -10.644   0.184  0.00  0.00    +0.306 C 
ATOM     23  O   UNL     1      -0.301 -10.820   0.631  0.00  0.00    -0.252 OA
ATOM     24  N   UNL     1       1.552 -11.697  -0.221  0.00  0.00    -0.302 N 
ATOM     25  C   UNL     1       1.007 -13.054  -0.122  0.00  0.00    +0.129 C 
ATOM     26  H   UNL     1       2.207  -9.256  -0.265  0.00  0.00    +0.159 HD
ATOM     27  H   UNL     1       2.443 -11.558  -0.578  0.00  0.00    +0.150 HD
ENDBRANCH  17  19
ENDBRANCH  16  17
ENDBRANCH   5  16
TORSDOF 6
