REMARK  Name = ZINC59387922
REMARK  7 active torsions:
REMARK  status: ('A' for Active; 'I' for Inactive)
REMARK    1  A    between atoms: C_3  and  C_6
REMARK    2  A    between atoms: C_9  and  C_27
REMARK    3  A    between atoms: C_12  and  C_14
REMARK    4  A    between atoms: C_14  and  N_15
REMARK    5  A    between atoms: N_15  and  C_16
REMARK    6  A    between atoms: N_15  and  C_24
REMARK    7  A    between atoms: C_16  and  C_17
REMARK                            x       y       z     vdW  Elec       q    Type
REMARK                         _______ _______ _______ _____ _____    ______ ____
ROOT
ATOM      1  C   UNL     1       3.249   0.733   0.168  0.00  0.00    +0.173 C 
ATOM      2  C   UNL     1       3.634   0.385  -1.283  0.00  0.00    +0.093 C 
ATOM      3  C   UNL     1       4.383  -0.923  -1.158  0.00  0.00    +0.104 C 
ATOM      4  N   UNL     1       4.432  -1.274   0.084  0.00  0.00    -0.178 NA
ATOM      5  N   UNL     1       3.803  -0.381   0.954  0.00  0.00    -0.184 N 
ATOM      6  C   UNL     1       3.716  -0.515   2.292  0.00  0.00    +0.219 C 
ATOM      7  O   UNL     1       3.142   0.327   2.950  0.00  0.00    -0.276 OA
ENDROOT
BRANCH   1  10
ATOM      8  C   UNL     1      -0.337   1.510   0.517  0.00  0.00    +0.041 A 
ATOM      9  C   UNL     1       1.010   1.915   0.375  0.00  0.00    +0.046 A 
ATOM     10  C   UNL     1       1.750   0.794   0.319  0.00  0.00    +0.128 A 
ATOM     11  O   UNL     1       0.928  -0.263   0.419  0.00  0.00    -0.466 OA
ATOM     12  C   UNL     1      -0.339   0.166   0.540  0.00  0.00    +0.195 A 
ENDBRANCH   1  10
BRANCH   3  13
ATOM     13  C   UNL     1       4.963  -1.676  -2.274  0.00  0.00    +0.150 A 
ATOM     14  C   UNL     1       5.636  -2.859  -2.179  0.00  0.00    +0.051 A 
ATOM     15  C   UNL     1       6.012  -3.217  -3.487  0.00  0.00    +0.042 A 
ATOM     16  C   UNL     1       5.557  -2.250  -4.309  0.00  0.00    +0.196 A 
ATOM     17  O   UNL     1       4.920  -1.323  -3.575  0.00  0.00    -0.462 OA
ENDBRANCH   3  13
BRANCH   6  18
ATOM     18  C   UNL     1       4.332  -1.711   2.971  0.00  0.00    +0.021 C 
BRANCH  18  19
ATOM     19  N   UNL     1       4.102  -1.625   4.419  0.00  0.00    +0.390 N 
ATOM     20  H   UNL     1       4.451  -0.743   4.763  0.00  0.00    -0.080 HD
BRANCH  19  21
ATOM     21  C   UNL     1       2.662  -1.721   4.693  0.00  0.00    -0.068 C 
ATOM     22  C   UNL     1       1.982  -0.510   5.334  0.00  0.00    -0.017 C 
ATOM     23  C   UNL     1       2.224  -1.776   6.158  0.00  0.00    -0.017 C 
ENDBRANCH  19  21
BRANCH  19  24
ATOM     24  C   UNL     1       4.804  -2.726   5.093  0.00  0.00    -0.042 C 
BRANCH  24  25
ATOM     25  C   UNL     1       6.291  -2.558   4.914  0.00  0.00    -0.064 A 
ATOM     26  C   UNL     1       6.942  -3.220   3.890  0.00  0.00    +0.003 A 
ATOM     27  C   UNL     1       8.306  -3.067   3.725  0.00  0.00    +0.020 A 
ATOM     28  C   UNL     1       9.019  -2.251   4.585  0.00  0.00    +0.041 A 
ATOM     29  C   UNL     1       8.366  -1.588   5.609  0.00  0.00    +0.020 A 
ATOM     30  C   UNL     1       7.002  -1.737   5.770  0.00  0.00    +0.003 A 
ATOM     31 CL   UNL     1      10.732  -2.058   4.379  0.00  0.00    -0.084 Cl
ENDBRANCH  24  25
ENDBRANCH  19  24
ENDBRANCH  18  19
ENDBRANCH   6  18
TORSDOF 7
