REMARK  Name = ZINC08384579
REMARK  6 active torsions:
REMARK  status: ('A' for Active; 'I' for Inactive)
REMARK    1  A    between atoms: C_1  and  C_2
REMARK    2  A    between atoms: C_5  and  C_8
REMARK    3  A    between atoms: C_8  and  C_10
REMARK    4  A    between atoms: C_12  and  C_24
REMARK    5  A    between atoms: C_18  and  C_19
REMARK    6  A    between atoms: C_18  and  O_23
REMARK                            x       y       z     vdW  Elec       q    Type
REMARK                         _______ _______ _______ _____ _____    ______ ____
ROOT
ATOM      1  C   UNL     1       2.200   1.285   0.578  0.00  0.00    +0.144 C 
ATOM      2  C   UNL     1       1.396   2.298  -0.243  0.00  0.00    +0.120 C 
ATOM      3  N   UNL     1      -0.033   2.075  -0.014  0.00  0.00    -0.292 N 
ATOM      4  C   UNL     1      -0.509   0.859   0.290  0.00  0.00    +0.302 C 
ATOM      5  O   UNL     1      -1.706   0.726   0.461  0.00  0.00    -0.253 OA
ATOM      6  N   UNL     1       0.282  -0.217   0.414  0.00  0.00    -0.264 N 
ATOM      7  C   UNL     1       1.729  -0.126   0.209  0.00  0.00    +0.243 C 
ATOM      8  H   UNL     1      -0.648   2.821  -0.088  0.00  0.00    +0.151 HD
ATOM      9  H   UNL     1      -0.112  -1.073   0.643  0.00  0.00    +0.153 HD
ENDROOT
BRANCH   2  10
ATOM     10  C   UNL     1       1.705   2.119  -1.707  0.00  0.00    -0.025 A 
ATOM     11  C   UNL     1       0.814   1.448  -2.525  0.00  0.00    +0.007 A 
ATOM     12  C   UNL     1       1.097   1.284  -3.868  0.00  0.00    +0.022 A 
ATOM     13  C   UNL     1       2.271   1.791  -4.394  0.00  0.00    +0.059 A 
ATOM     14  C   UNL     1       3.163   2.463  -3.576  0.00  0.00    +0.060 A 
ATOM     15  C   UNL     1       2.876   2.632  -2.233  0.00  0.00    +0.027 A 
ATOM     16 CL   UNL     1       4.637   3.100  -4.236  0.00  0.00    -0.082 Cl
ATOM     17 CL   UNL     1       2.626   1.584  -6.081  0.00  0.00    -0.082 Cl
ENDBRANCH   2  10
BRANCH   7  18
ATOM     18  C   UNL     1       2.436  -1.150   1.099  0.00  0.00    +0.436 C 
ATOM     19  F   UNL     1       2.118  -2.442   0.666  0.00  0.00    -0.166 F 
ATOM     20  F   UNL     1       3.820  -0.960   1.020  0.00  0.00    -0.166 F 
ATOM     21  F   UNL     1       2.018  -0.986   2.423  0.00  0.00    -0.166 F 
ENDBRANCH   7  18
BRANCH   1  22
ATOM     22  C   UNL     1       1.975   1.526   2.048  0.00  0.00    +0.173 C 
ATOM     23  O   UNL     1       0.873   1.367   2.527  0.00  0.00    -0.292 OA
BRANCH  22  28
ATOM     24  C   UNL     1       6.346   3.195   5.389  0.00  0.00    +0.044 C 
ATOM     25  C   UNL     1       5.200   2.757   4.513  0.00  0.00    -0.050 A 
ATOM     26  C   UNL     1       3.975   2.454   5.082  0.00  0.00    +0.004 A 
ATOM     27  C   UNL     1       2.922   2.054   4.288  0.00  0.00    +0.011 A 
ATOM     28  C   UNL     1       3.094   1.953   2.903  0.00  0.00    +0.018 A 
ATOM     29  C   UNL     1       4.336   2.256   2.337  0.00  0.00    +0.011 A 
ATOM     30  C   UNL     1       5.378   2.661   3.144  0.00  0.00    +0.004 A 
ENDBRANCH  22  28
ENDBRANCH   1  22
BRANCH   7  31
ATOM     31  O   UNL     1       2.035  -0.390  -1.161  0.00  0.00    -0.364 OA
ATOM     32  H   UNL     1       1.759  -1.265  -1.465  0.00  0.00    +0.212 HD
ENDBRANCH   7  31
TORSDOF 5
