REMARK  Name = ZINC61595085
REMARK  11 active torsions:
REMARK  status: ('A' for Active; 'I' for Inactive)
REMARK    1  A    between atoms: C_1  and  C_2
REMARK    2  A    between atoms: C_2  and  C_3
REMARK    3  A    between atoms: C_3  and  C_5
REMARK    4  A    between atoms: C_3  and  N_24
REMARK    5  A    between atoms: C_5  and  C_7
REMARK    6  A    between atoms: C_5  and  S_13
REMARK    7  A    between atoms: N_10  and  C_12
REMARK    8  A    between atoms: S_13  and  C_14
REMARK    9  A    between atoms: N_20  and  C_21
REMARK   10  A    between atoms: C_21  and  C_22
REMARK   11  A    between atoms: C_21  and  C_23
REMARK                            x       y       z     vdW  Elec       q    Type
REMARK                         _______ _______ _______ _____ _____    ______ ____
ROOT
ATOM      1  C   UNL     1       0.833  -2.136  -1.200  0.00  0.00    +0.073 C 
ENDROOT
BRANCH   1   2
ATOM      2  C   UNL     1       1.614  -2.899  -0.162  0.00  0.00    +0.002 A 
ATOM      3  C   UNL     1       3.005  -2.896  -0.011  0.00  0.00    +0.139 A 
ATOM      4  N   UNL     1       3.309  -3.674   0.995  0.00  0.00    -0.180 NA
ATOM      5  N   UNL     1       2.120  -4.199   1.518  0.00  0.00    -0.274 N 
ATOM      6  C   UNL     1       1.094  -3.704   0.794  0.00  0.00    +0.112 A 
ATOM      7  C   UNL     1       2.009  -5.118   2.653  0.00  0.00    +0.172 C 
ENDBRANCH   1   2
BRANCH   1   8
ATOM      8  C   UNL     1       0.899  -0.639  -0.891  0.00  0.00    -0.057 C 
BRANCH   8   9
ATOM      9  N   UNL     1       0.446  -0.403   0.486  0.00  0.00    +0.381 N 
ATOM     10  H   UNL     1       0.397   0.590   0.658  0.00  0.00    -0.090 HD
ATOM     11  H   UNL     1      -0.468  -0.812   0.614  0.00  0.00    -0.090 HD
ATOM     12  H   UNL     1       1.097  -0.825   1.131  0.00  0.00    -0.090 HD
ENDBRANCH   8   9
BRANCH   8  14
ATOM     13  C   UNL     1       2.385   1.369  -0.878  0.00  0.00    +0.002 C 
ATOM     14  C   UNL     1       2.341  -0.151  -1.044  0.00  0.00    -0.018 C 
ENDBRANCH   8  14
ENDBRANCH   1   8
BRANCH   1  15
ATOM     15  S   UNL     1       1.543  -2.447  -2.840  0.00  0.00    -0.079 S 
BRANCH  15  16
ATOM     16  C   UNL     1       0.398  -1.696  -3.950  0.00  0.00    +0.193 A 
ATOM     17  N   UNL     1      -0.650  -1.006  -3.606  0.00  0.00    -0.145 NA
ATOM     18  N   UNL     1      -1.295  -0.583  -4.777  0.00  0.00    -0.226 N 
ATOM     19  H   UNL     1      -2.104  -0.051  -4.827  0.00  0.00    +0.194 HD
ATOM     20  C   UNL     1      -0.582  -1.054  -5.822  0.00  0.00    +0.345 A 
ATOM     21  O   UNL     1      -0.838  -0.887  -7.001  0.00  0.00    -0.245 OA
ATOM     22  N   UNL     1       0.468  -1.736  -5.324  0.00  0.00    -0.268 N 
BRANCH  22  23
ATOM     23  C   UNL     1       1.504  -2.410  -6.111  0.00  0.00    +0.088 C 
ATOM     24  C   UNL     1       0.858  -3.477  -6.997  0.00  0.00    +0.031 C 
ATOM     25  C   UNL     1       2.224  -1.385  -6.989  0.00  0.00    +0.031 C 
ENDBRANCH  22  23
ENDBRANCH  15  16
ENDBRANCH   1  15
TORSDOF 7
