REMARK  Name = ZINC39760040
REMARK  12 active torsions:
REMARK  status: ('A' for Active; 'I' for Inactive)
REMARK    1  A    between atoms: C_1  and  C_2
REMARK    2  A    between atoms: C_2  and  C_3
REMARK    3  A    between atoms: C_2  and  C_4
REMARK    4  A    between atoms: C_4  and  C_6
REMARK    5  A    between atoms: C_4  and  N_26
REMARK    6  A    between atoms: C_9  and  S_12
REMARK    7  A    between atoms: N_10  and  C_11
REMARK    8  A    between atoms: S_12  and  C_13
REMARK    9  A    between atoms: C_13  and  C_14
REMARK   10  A    between atoms: C_14  and  C_16
REMARK   11  A    between atoms: C_20  and  N_22
REMARK   12  A    between atoms: C_27  and  C_29
REMARK                            x       y       z     vdW  Elec       q    Type
REMARK                         _______ _______ _______ _____ _____    ______ ____
ROOT
ATOM      1  C   UNL     1      -2.162  -0.034  -1.208  0.00  0.00    +0.155 A 
ATOM      2  N   UNL     1      -2.017  -0.472  -2.427  0.00  0.00    -0.132 NA
ATOM      3  N   UNL     1      -2.792   0.174  -3.223  0.00  0.00    -0.122 NA
ATOM      4  C   UNL     1      -3.480   1.066  -2.549  0.00  0.00    +0.192 A 
ATOM      5  N   UNL     1      -3.103   0.958  -1.241  0.00  0.00    -0.308 N 
ATOM      6  C   UNL     1      -3.601   1.743  -0.109  0.00  0.00    +0.152 C 
ENDROOT
BRANCH   1   7
ATOM      7  C   UNL     1      -1.433  -0.534   0.013  0.00  0.00    +0.144 C 
BRANCH   7   8
ATOM      8  N   UNL     1      -1.413  -1.998   0.005  0.00  0.00    -0.301 N 
ATOM      9  C   UNL     1      -1.292  -2.677   1.163  0.00  0.00    +0.245 C 
ATOM     10  O   UNL     1      -1.198  -2.074   2.214  0.00  0.00    -0.270 OA
ATOM     11  H   UNL     1      -1.488  -2.480  -0.834  0.00  0.00    +0.150 HD
BRANCH   9  12
ATOM     12  C   UNL     1      -1.271  -4.155   1.155  0.00  0.00    +0.037 A 
ATOM     13  C   UNL     1      -1.373  -4.851  -0.051  0.00  0.00    +0.013 A 
ATOM     14  C   UNL     1      -1.353  -6.231  -0.052  0.00  0.00    +0.001 A 
ATOM     15  C   UNL     1      -1.233  -6.924   1.139  0.00  0.00    +0.000 A 
ATOM     16  C   UNL     1      -1.133  -6.241   2.338  0.00  0.00    +0.001 A 
ATOM     17  C   UNL     1      -1.145  -4.861   2.352  0.00  0.00    +0.013 A 
ENDBRANCH   9  12
ENDBRANCH   7   8
BRANCH   7  19
ATOM     18  C   UNL     1      -0.019   1.526   0.010  0.00  0.00    +0.009 C 
ATOM     19  C   UNL     1       0.002  -0.004   0.002  0.00  0.00    +0.011 C 
ATOM     20  C   UNL     1       0.742  -0.511   1.242  0.00  0.00    +0.009 C 
ENDBRANCH   7  19
ENDBRANCH   1   7
BRANCH   4  21
ATOM     21  S   UNL     1      -4.669   2.188  -3.207  0.00  0.00    -0.078 S 
BRANCH  21  22
ATOM     22  C   UNL     1      -4.698   1.807  -4.980  0.00  0.00    +0.157 C 
BRANCH  22  23
ATOM     23  C   UNL     1      -5.688   2.708  -5.671  0.00  0.00    +0.173 C 
ATOM     24  O   UNL     1      -6.314   3.526  -5.031  0.00  0.00    -0.291 OA
BRANCH  23  25
ATOM     25  C   UNL     1      -5.897   2.595  -7.123  0.00  0.00    +0.020 A 
ATOM     26  C   UNL     1      -5.182   1.648  -7.864  0.00  0.00    +0.013 A 
ATOM     27  C   UNL     1      -5.382   1.547  -9.224  0.00  0.00    +0.023 A 
ATOM     28  C   UNL     1      -6.290   2.381  -9.857  0.00  0.00    +0.071 A 
ATOM     29  C   UNL     1      -7.001   3.322  -9.130  0.00  0.00    +0.145 A 
ATOM     30  C   UNL     1      -6.816   3.429  -7.768  0.00  0.00    +0.045 A 
ATOM     31 CL   UNL     1      -6.536   2.248 -11.570  0.00  0.00    -0.081 Cl
BRANCH  29  32
ATOM     32  N   UNL     1      -7.968   4.208  -9.815  0.00  0.00    +0.058 N 
ATOM     33  O   UNL     1      -8.590   5.029  -9.182  0.00  0.00    -0.126 OA
ATOM     34  O   UNL     1      -8.136   4.112 -11.009  0.00  0.00    -0.126 OA
ENDBRANCH  29  32
ENDBRANCH  23  25
ENDBRANCH  22  23
ENDBRANCH  21  22
ENDBRANCH   4  21
TORSDOF 9
