REMARK  Name = ZINC02732343
REMARK  9 active torsions:
REMARK  status: ('A' for Active; 'I' for Inactive)
REMARK    1  A    between atoms: C_1  and  C_2
REMARK    2  A    between atoms: C_3  and  C_8
REMARK    3  A    between atoms: N_5  and  C_7
REMARK    4  A    between atoms: C_8  and  N_9
REMARK    5  A    between atoms: C_10  and  C_12
REMARK    6  A    between atoms: N_17  and  S_19
REMARK    7  A    between atoms: S_19  and  C_22
REMARK    8  A    between atoms: N_25  and  C_28
REMARK    9  A    between atoms: C_26  and  C_27
REMARK                            x       y       z     vdW  Elec       q    Type
REMARK                         _______ _______ _______ _____ _____    ______ ____
ROOT
ATOM      1  C   UNL     1      -1.119   2.801  -2.514  0.00  0.00    +0.091 C 
ATOM      2  C   UNL     1      -1.558   4.256  -2.692  0.00  0.00    +0.015 C 
ATOM      3  C   UNL     1      -2.197   4.760  -1.396  0.00  0.00    +0.018 C 
ATOM      4  C   UNL     1      -3.442   3.915  -1.084  0.00  0.00    +0.109 C 
ATOM      5  N   UNL     1      -3.049   2.500  -1.052  0.00  0.00    -0.176 NA
ATOM      6  C   UNL     1      -2.346   1.935  -2.212  0.00  0.00    +0.122 C 
ENDROOT
BRANCH   1   8
ATOM      7  N   UNL     1       0.646   2.932  -4.243  0.00  0.00    -0.311 N 
ATOM      8  C   UNL     1      -0.460   2.316  -3.780  0.00  0.00    +0.218 C 
ATOM      9  O   UNL     1      -0.925   1.372  -4.382  0.00  0.00    -0.275 OA
ATOM     10  H   UNL     1       1.018   3.688  -3.761  0.00  0.00    +0.149 HD
BRANCH   7  11
ATOM     11  C   UNL     1       1.286   2.461  -5.473  0.00  0.00    +0.143 C 
BRANCH  11  14
ATOM     12  C   UNL     1       4.135   2.192  -4.112  0.00  0.00    +0.068 C 
ATOM     13  C   UNL     1       3.751   3.195  -5.169  0.00  0.00    +0.065 A 
ATOM     14  C   UNL     1       2.493   3.313  -5.769  0.00  0.00    +0.010 A 
ATOM     15  C   UNL     1       2.550   4.331  -6.659  0.00  0.00    +0.113 A 
ATOM     16  N   UNL     1       3.801   4.836  -6.627  0.00  0.00    -0.274 N 
ATOM     17  N   UNL     1       4.538   4.103  -5.687  0.00  0.00    -0.176 NA
ATOM     18  C   UNL     1       4.301   5.952  -7.433  0.00  0.00    +0.172 C 
ENDBRANCH  11  14
ENDBRANCH   7  11
ENDBRANCH   1   8
BRANCH   5  19
ATOM     19  S   UNL     1      -3.399   1.556   0.263  0.00  0.00    +0.064 S 
ATOM     20  O   UNL     1      -3.558   0.229  -0.220  0.00  0.00    -0.153 OA
ATOM     21  O   UNL     1      -4.419   2.231   0.987  0.00  0.00    -0.153 OA
BRANCH  19  22
ATOM     22  C   UNL     1      -1.970   1.550   1.294  0.00  0.00    +0.146 A 
ATOM     23  C   UNL     1      -1.153   0.446   1.560  0.00  0.00    +0.163 A 
ATOM     24  N   UNL     1      -0.199   0.830   2.369  0.00  0.00    -0.178 NA
ATOM     25  N   UNL     1      -0.376   2.193   2.640  0.00  0.00    -0.270 N 
ATOM     26  C   UNL     1      -1.468   2.611   1.966  0.00  0.00    +0.062 A 
ATOM     27  C   UNL     1      -2.031   4.009   1.967  0.00  0.00    +0.067 C 
ATOM     28  C   UNL     1       0.473   3.018   3.502  0.00  0.00    +0.172 C 
ENDBRANCH  19  22
ENDBRANCH   5  19
TORSDOF 5
