REMARK  Name = ZINC01961674
REMARK  3 active torsions:
REMARK  status: ('A' for Active; 'I' for Inactive)
REMARK    1  A    between atoms: C_1  and  C_2
REMARK    2  A    between atoms: C_13  and  C_19
REMARK    3  A    between atoms: C_21  and  C_23
REMARK                            x       y       z     vdW  Elec       q    Type
REMARK                         _______ _______ _______ _____ _____    ______ ____
ROOT
ATOM      1  C   UNL     1       8.557   5.857  -0.098  0.00  0.00    +0.044 C 
ATOM      2  C   UNL     1       7.218   5.169  -0.026  0.00  0.00    -0.050 A 
ATOM      3  C   UNL     1       7.155   3.785   0.031  0.00  0.00    +0.007 A 
ATOM      4  C   UNL     1       5.938   3.139   0.097  0.00  0.00    +0.047 A 
ATOM      5  C   UNL     1       4.761   3.876   0.106  0.00  0.00    +0.138 A 
ATOM      6  C   UNL     1       4.827   5.277   0.048  0.00  0.00    +0.041 A 
ATOM      7  C   UNL     1       6.061   5.919  -0.018  0.00  0.00    +0.017 A 
ATOM      8  C   UNL     1       3.563   6.042   0.059  0.00  0.00    +0.055 A 
ATOM      9  N   UNL     1       3.558   7.370   0.005  0.00  0.00    -0.334 N 
ATOM     10  C   UNL     1       4.714   8.051   0.100  0.00  0.00    +0.172 A 
ATOM     11  N   UNL     1       5.462   8.554  -0.868  0.00  0.00    -0.222 NA
ATOM     12  C   UNL     1       6.608   9.220  -0.621  0.00  0.00    +0.083 A 
ATOM     13  C   UNL     1       7.496   9.803  -1.555  0.00  0.00    -0.024 A 
ATOM     14  C   UNL     1       8.628  10.451  -1.134  0.00  0.00    +0.005 A 
ATOM     15  C   UNL     1       8.944  10.558   0.212  0.00  0.00    +0.001 A 
ATOM     16  C   UNL     1       8.099   9.999   1.154  0.00  0.00    +0.017 A 
ATOM     17  C   UNL     1       6.963   9.348   0.743  0.00  0.00    +0.041 A 
ATOM     18  S   UNL     1       5.627   8.514   1.565  0.00  0.00    -0.050 S 
ATOM     19  C   UNL     1       7.194   9.712  -3.029  0.00  0.00    +0.046 C 
ATOM     20  C   UNL     1       2.356   5.303   0.128  0.00  0.00    +0.073 A 
ATOM     21  C   UNL     1       2.404   3.946   0.181  0.00  0.00    +0.138 A 
ATOM     22  O   UNL     1       3.561   3.263   0.175  0.00  0.00    -0.455 OA
ATOM     23  H   UNL     1       2.609   7.912  -0.116  0.00  0.00    +0.168 HD
ENDROOT
BRANCH  21  24
ATOM     24  C   UNL     1       1.136   3.193   0.253  0.00  0.00    +0.017 A 
ATOM     25  C   UNL     1       1.151   1.798   0.308  0.00  0.00    +0.013 A 
ATOM     26  C   UNL     1      -0.037   1.101   0.375  0.00  0.00    +0.021 A 
ATOM     27  C   UNL     1      -1.243   1.781   0.382  0.00  0.00    +0.041 A 
ATOM     28  C   UNL     1      -1.265   3.165   0.333  0.00  0.00    +0.021 A 
ATOM     29  C   UNL     1      -0.084   3.874   0.266  0.00  0.00    +0.013 A 
ATOM     30 CL   UNL     1      -2.734   0.896   0.460  0.00  0.00    -0.084 Cl
ENDBRANCH  21  24
TORSDOF 1
