REMARK  Name = ZINC39147129
REMARK  8 active torsions:
REMARK  status: ('A' for Active; 'I' for Inactive)
REMARK    1  A    between atoms: C_1  and  C_2
REMARK    2  A    between atoms: C_2  and  C_3
REMARK    3  A    between atoms: C_7  and  N_10
REMARK    4  A    between atoms: C_11  and  C_13
REMARK    5  A    between atoms: N_18  and  C_20
REMARK    6  A    between atoms: C_20  and  C_21
REMARK    7  A    between atoms: C_21  and  C_22
REMARK    8  A    between atoms: C_25  and  C_31
REMARK                            x       y       z     vdW  Elec       q    Type
REMARK                         _______ _______ _______ _____ _____    ______ ____
ROOT
ATOM      1  C   UNL     1      -6.669  -1.002   3.162  0.00  0.00    +0.101 C 
ATOM      2  C   UNL     1      -7.131   0.164   2.258  0.00  0.00    +0.110 C 
ATOM      3  C   UNL     1      -8.249   0.819   3.040  0.00  0.00    +0.216 C 
ATOM      4  O   UNL     1      -9.063   1.589   2.576  0.00  0.00    -0.276 OA
ATOM      5  N   UNL     1      -8.209   0.422   4.323  0.00  0.00    -0.300 N 
ATOM      6  C   UNL     1      -7.096  -0.506   4.561  0.00  0.00    +0.121 C 
ENDROOT
BRANCH   1   8
ATOM      7  N   UNL     1      -4.598  -1.551   1.926  0.00  0.00    -0.290 N 
ATOM      8  C   UNL     1      -5.175  -1.183   3.087  0.00  0.00    +0.220 C 
ATOM      9  O   UNL     1      -4.491  -0.996   4.071  0.00  0.00    -0.275 OA
ATOM     10  H   UNL     1      -5.144  -1.700   1.139  0.00  0.00    +0.151 HD
BRANCH   7  14
ATOM     11  C   UNL     1      -1.433  -0.534   0.013  0.00  0.00    +0.129 C 
ATOM     12  N   UNL     1      -1.464  -2.027   0.109  0.00  0.00    -0.241 NA
ATOM     13  N   UNL     1      -2.757  -2.467   0.621  0.00  0.00    -0.227 NA
ATOM     14  C   UNL     1      -3.145  -1.726   1.853  0.00  0.00    +0.216 C 
ATOM     15  S   UNL     1      -2.296  -0.111   1.589  0.00  0.00    -0.102 S 
ATOM     16  H   UNL     1      -0.711  -2.368   0.687  0.00  0.00    +0.142 HD
ATOM     17  H   UNL     1      -2.762  -3.463   0.781  0.00  0.00    +0.143 HD
BRANCH  11  19
ATOM     18  C   UNL     1      -0.019   1.526   0.010  0.00  0.00    +0.006 C 
ATOM     19  C   UNL     1       0.002  -0.004   0.002  0.00  0.00    +0.027 C 
ENDBRANCH  11  19
ENDBRANCH   7  14
ENDBRANCH   1   8
BRANCH   5  20
ATOM     20  C   UNL     1      -9.154   0.860   5.354  0.00  0.00    +0.112 C 
BRANCH  20  21
ATOM     21  C   UNL     1     -10.344  -0.102   5.396  0.00  0.00    +0.056 C 
BRANCH  21  22
ATOM     22  C   UNL     1     -11.316   0.348   6.455  0.00  0.00    -0.021 A 
ATOM     23  C   UNL     1     -12.377   1.346   6.297  0.00  0.00    +0.003 A 
ATOM     24  C   UNL     1     -12.813   2.139   5.234  0.00  0.00    +0.013 A 
ATOM     25  C   UNL     1     -13.862   2.996   5.413  0.00  0.00    -0.050 A 
ATOM     26  C   UNL     1     -14.499   3.084   6.643  0.00  0.00    +0.005 A 
ATOM     27  C   UNL     1     -14.085   2.311   7.705  0.00  0.00    +0.026 A 
ATOM     28  C   UNL     1     -13.019   1.431   7.546  0.00  0.00    +0.047 A 
ATOM     29  N   UNL     1     -12.386   0.547   8.390  0.00  0.00    -0.360 N 
ATOM     30  C   UNL     1     -11.378  -0.093   7.722  0.00  0.00    +0.087 A 
ATOM     31  C   UNL     1     -14.332   3.852   4.265  0.00  0.00    +0.044 C 
ATOM     32  H   UNL     1     -12.621   0.397   9.319  0.00  0.00    +0.165 HD
ENDBRANCH  21  22
ENDBRANCH  20  21
ENDBRANCH   5  20
TORSDOF 6
