REMARK  Name = ZINC49789324
REMARK  5 active torsions:
REMARK  status: ('A' for Active; 'I' for Inactive)
REMARK    1  A    between atoms: C_1  and  C_2
REMARK    2  A    between atoms: C_2  and  C_4
REMARK    3  A    between atoms: C_2  and  N_11
REMARK    4  A    between atoms: N_14  and  N_15
REMARK    5  A    between atoms: C_16  and  C_18
REMARK                            x       y       z     vdW  Elec       q    Type
REMARK                         _______ _______ _______ _____ _____    ______ ____
ROOT
ATOM      1  N   UNL     1       0.711  -0.489   1.189  0.00  0.00    -0.292 N 
ATOM      2  C   UNL     1       2.054  -0.600   1.174  0.00  0.00    +0.316 C 
ATOM      3  O   UNL     1       2.677  -0.297   0.175  0.00  0.00    -0.251 OA
ATOM      4  N   UNL     1       2.706  -1.046   2.266  0.00  0.00    -0.218 N 
ATOM      5  H   UNL     1       0.213  -0.731   1.986  0.00  0.00    +0.151 HD
ATOM      6  H   UNL     1       3.672  -1.126   2.255  0.00  0.00    +0.174 HD
ENDROOT
BRANCH   4   7
ATOM      7  N   UNL     1       1.987  -1.396   3.416  0.00  0.00    -0.229 N 
ATOM      8  C   UNL     1       2.639  -1.842   4.508  0.00  0.00    +0.262 C 
ATOM      9  O   UNL     1       3.850  -1.942   4.495  0.00  0.00    -0.269 OA
ATOM     10  H   UNL     1       1.020  -1.316   3.427  0.00  0.00    +0.173 HD
BRANCH   8  11
ATOM     11  C   UNL     1       1.881  -2.211   5.722  0.00  0.00    +0.056 A 
ATOM     12  C   UNL     1       0.489  -2.103   5.739  0.00  0.00    +0.014 A 
ATOM     13  C   UNL     1      -0.212  -2.448   6.875  0.00  0.00    +0.001 A 
ATOM     14  C   UNL     1       0.460  -2.901   7.998  0.00  0.00    +0.001 A 
ATOM     15  C   UNL     1       1.838  -3.010   7.989  0.00  0.00    +0.021 A 
ATOM     16  C   UNL     1       2.553  -2.674   6.856  0.00  0.00    +0.053 A 
ATOM     17 CL   UNL     1       4.283  -2.818   6.843  0.00  0.00    -0.083 Cl
ENDBRANCH   8  11
ENDBRANCH   4   7
BRANCH   1  19
ATOM     18  C   UNL     1      -0.019   1.526   0.010  0.00  0.00    +0.033 C 
ATOM     19  C   UNL     1       0.002  -0.004   0.002  0.00  0.00    +0.103 C 
BRANCH  19  20
ATOM     20  C   UNL     1      -1.412  -0.526   0.013  0.00  0.00    -0.013 A 
ATOM     21  C   UNL     1      -2.015  -0.864   1.210  0.00  0.00    +0.006 A 
ATOM     22  C   UNL     1      -3.312  -1.342   1.220  0.00  0.00    +0.000 A 
ATOM     23  C   UNL     1      -4.006  -1.482   0.033  0.00  0.00    +0.001 A 
ATOM     24  C   UNL     1      -3.404  -1.144  -1.165  0.00  0.00    +0.015 A 
ATOM     25  C   UNL     1      -2.108  -0.661  -1.175  0.00  0.00    +0.023 A 
ATOM     26 BR   UNL     1      -1.286  -0.192  -2.812  0.00  0.00    -0.050 Br
ENDBRANCH  19  20
ENDBRANCH   1  19
TORSDOF 4
