REMARK  Name = ZINC36249074
REMARK  12 active torsions:
REMARK  status: ('A' for Active; 'I' for Inactive)
REMARK    1  A    between atoms: C_1  and  N_2
REMARK    2  A    between atoms: N_2  and  C_3
REMARK    3  A    between atoms: N_2  and  C_4
REMARK    4  A    between atoms: C_4  and  C_5
REMARK    5  A    between atoms: C_5  and  N_6
REMARK    6  A    between atoms: N_6  and  C_7
REMARK    7  A    between atoms: N_6  and  C_29
REMARK    8  A    between atoms: C_7  and  C_8
REMARK    9  A    between atoms: C_9  and  C_23
REMARK   10  A    between atoms: C_12  and  N_13
REMARK   11  A    between atoms: C_29  and  N_31
REMARK   12  A    between atoms: N_31  and  C_32
REMARK                            x       y       z     vdW  Elec       q    Type
REMARK                         _______ _______ _______ _____ _____    ______ ____
ROOT
ATOM      1  C   UNL     1       0.574   1.314   5.723  0.00  0.00    +0.059 A 
ATOM      2  C   UNL     1      -0.192   2.491   5.585  0.00  0.00    +0.120 A 
ATOM      3  N   UNL     1      -0.780   2.728   6.735  0.00  0.00    -0.076 NA
ATOM      4  O   UNL     1      -0.403   1.705   7.639  0.00  0.00    -0.339 OA
ATOM      5  C   UNL     1       0.416   0.859   6.992  0.00  0.00    +0.226 A 
ENDROOT
BRANCH   5   6
ATOM      6  N   UNL     1       0.998  -0.277   7.526  0.00  0.00    -0.294 N 
ATOM      7  C   UNL     1       2.370  -0.254   8.061  0.00  0.00    +0.113 C 
ATOM      8  C   UNL     1       2.293  -0.544   9.559  0.00  0.00    +0.054 C 
ATOM      9  C   UNL     1       1.413  -1.735   9.831  0.00  0.00    -0.041 A 
ATOM     10  C   UNL     1       1.567  -2.386  11.049  0.00  0.00    +0.004 A 
ATOM     11  C   UNL     1       0.786  -3.478  11.365  0.00  0.00    +0.000 A 
ATOM     12  C   UNL     1      -0.162  -3.929  10.465  0.00  0.00    +0.000 A 
ATOM     13  C   UNL     1      -0.315  -3.286   9.254  0.00  0.00    +0.005 A 
ATOM     14  C   UNL     1       0.475  -2.191   8.932  0.00  0.00    -0.027 A 
ATOM     15  C   UNL     1       0.272  -1.550   7.587  0.00  0.00    +0.143 C 
ENDBRANCH   5   6
BRANCH   2  16
ATOM     16  C   UNL     1      -0.312   3.316   4.357  0.00  0.00    +0.004 A 
ATOM     17  C   UNL     1       0.800   3.523   3.543  0.00  0.00    +0.010 A 
ATOM     18  C   UNL     1       0.683   4.291   2.402  0.00  0.00    +0.001 A 
ATOM     19  C   UNL     1      -0.535   4.854   2.066  0.00  0.00    +0.000 A 
ATOM     20  C   UNL     1      -1.642   4.651   2.871  0.00  0.00    +0.001 A 
ATOM     21  C   UNL     1      -1.537   3.881   4.011  0.00  0.00    +0.010 A 
ENDBRANCH   2  16
BRANCH   1  22
ATOM     22  C   UNL     1       1.414   0.673   4.649  0.00  0.00    +0.149 C 
BRANCH  22  23
ATOM     23  N   UNL     1       0.836  -0.623   4.286  0.00  0.00    -0.310 N 
BRANCH  23  24
ATOM     24  C   UNL     1       1.427  -1.763   4.696  0.00  0.00    +0.137 C 
ATOM     25  S   UNL     1       2.944  -1.704   5.487  0.00  0.00    -0.018 S 
BRANCH  24  26
ATOM     26  N   UNL     1       0.823  -2.949   4.484  0.00  0.00    -0.297 N 
ATOM     27  H   UNL     1       0.344  -3.386   5.205  0.00  0.00    +0.154 HD
BRANCH  26  28
ATOM     28  C   UNL     1       0.887  -3.551   3.221  0.00  0.00    +0.033 A 
ATOM     29  C   UNL     1       1.765  -3.063   2.262  0.00  0.00    +0.026 A 
ATOM     30  C   UNL     1       1.827  -3.658   1.017  0.00  0.00    +0.040 A 
ATOM     31  C   UNL     1       1.013  -4.740   0.725  0.00  0.00    +0.124 A 
ATOM     32  C   UNL     1       0.137  -5.228   1.679  0.00  0.00    +0.040 A 
ATOM     33  C   UNL     1       0.077  -4.640   2.928  0.00  0.00    +0.026 A 
ATOM     34  F   UNL     1       1.075  -5.320  -0.494  0.00  0.00    -0.205 F 
ENDBRANCH  26  28
ENDBRANCH  24  26
ENDBRANCH  23  24
BRANCH  23  35
ATOM     35  C   UNL     1      -0.384  -0.681   3.477  0.00  0.00    +0.088 C 
BRANCH  35  36
ATOM     36  C   UNL     1      -0.020  -0.555   1.996  0.00  0.00    -0.060 C 
BRANCH  36  38
ATOM     37  C   UNL     1      -2.165   0.365   1.443  0.00  0.00    -0.097 C 
ATOM     38  N   UNL     1      -1.228  -0.734   1.179  0.00  0.00    +0.377 N 
ATOM     39  C   UNL     1      -0.861  -0.733  -0.244  0.00  0.00    -0.097 C 
ATOM     40  H   UNL     1      -1.665  -1.613   1.413  0.00  0.00    -0.083 HD
ENDBRANCH  36  38
ENDBRANCH  35  36
ENDBRANCH  23  35
ENDBRANCH  22  23
ENDBRANCH   1  22
TORSDOF 10
