REMARK  Name = ZINC35788968
REMARK  18 active torsions:
REMARK  status: ('A' for Active; 'I' for Inactive)
REMARK    1  A    between atoms: C_1  and  C_2
REMARK    2  A    between atoms: C_6  and  O_8
REMARK    3  A    between atoms: O_8  and  C_9
REMARK    4  A    between atoms: C_10  and  C_21
REMARK    5  A    between atoms: C_11  and  C_20
REMARK    6  A    between atoms: N_13  and  C_14
REMARK    7  A    between atoms: C_21  and  N_22
REMARK    8  A    between atoms: N_22  and  C_23
REMARK    9  A    between atoms: N_22  and  C_28
REMARK   10  A    between atoms: C_23  and  C_24
REMARK   11  A    between atoms: C_24  and  N_25
REMARK   12  A    between atoms: N_25  and  C_26
REMARK   13  A    between atoms: N_25  and  C_27
REMARK   14  A    between atoms: C_28  and  C_29
REMARK   15  A    between atoms: C_29  and  C_31
REMARK   16  A    between atoms: C_29  and  O_35
REMARK   17  A    between atoms: C_31  and  C_32
REMARK   18  A    between atoms: C_32  and  C_33
REMARK                            x       y       z     vdW  Elec       q    Type
REMARK                         _______ _______ _______ _____ _____    ______ ____
ROOT
ATOM      1  C   UNL     1      -0.453  -3.829   2.022  0.00  0.00    +0.225 A 
ATOM      2  C   UNL     1      -0.176  -4.658   3.064  0.00  0.00    +0.021 A 
ATOM      3  C   UNL     1       0.215  -5.893   2.538  0.00  0.00    +0.065 A 
ATOM      4  N   UNL     1       0.177  -5.818   1.232  0.00  0.00    -0.168 NA
ATOM      5  N   UNL     1      -0.246  -4.531   0.876  0.00  0.00    -0.200 N 
ATOM      6  C   UNL     1       0.614  -7.105   3.340  0.00  0.00    +0.068 C 
ENDROOT
BRANCH   5   7
ATOM      7  C   UNL     1      -0.422  -4.052  -0.429  0.00  0.00    +0.069 A 
ATOM      8  C   UNL     1       0.493  -4.380  -1.421  0.00  0.00    +0.028 A 
ATOM      9  C   UNL     1       0.317  -3.906  -2.706  0.00  0.00    +0.002 A 
ATOM     10  C   UNL     1      -0.769  -3.105  -3.006  0.00  0.00    +0.000 A 
ATOM     11  C   UNL     1      -1.682  -2.776  -2.021  0.00  0.00    +0.002 A 
ATOM     12  C   UNL     1      -1.515  -3.252  -0.735  0.00  0.00    +0.028 A 
ENDBRANCH   5   7
BRANCH   1  13
ATOM     13  O   UNL     1      -0.866  -2.539   2.110  0.00  0.00    -0.438 OA
BRANCH  13  19
ATOM     14  C   UNL     1       0.238   2.212   1.933  0.00  0.00    +0.044 C 
ATOM     15  C   UNL     1       0.653   0.763   1.959  0.00  0.00    -0.047 A 
ATOM     16  C   UNL     1       1.994   0.428   1.920  0.00  0.00    +0.003 A 
ATOM     17  C   UNL     1       2.378  -0.900   1.944  0.00  0.00    +0.004 A 
ATOM     18  C   UNL     1       1.422  -1.896   2.008  0.00  0.00    +0.046 A 
ATOM     19  C   UNL     1       0.076  -1.562   2.048  0.00  0.00    +0.131 A 
ATOM     20  C   UNL     1      -0.306  -0.228   2.028  0.00  0.00    +0.049 A 
ENDBRANCH  13  19
ENDBRANCH   1  13
BRANCH   2  21
ATOM     21  C   UNL     1      -0.273  -4.307   4.527  0.00  0.00    -0.036 C 
BRANCH  21  22
ATOM     22  N   UNL     1      -1.664  -4.456   4.975  0.00  0.00    +0.385 N 
ATOM     23  H   UNL     1      -2.270  -3.919   4.373  0.00  0.00    -0.081 HD
BRANCH  22  24
ATOM     24  C   UNL     1      -1.788  -3.971   6.356  0.00  0.00    -0.063 C 
BRANCH  24  25
ATOM     25  C   UNL     1      -1.465  -2.476   6.402  0.00  0.00    +0.065 C 
BRANCH  25  26
ATOM     26  N   UNL     1      -1.546  -2.001   7.790  0.00  0.00    -0.310 NA
ATOM     27  C   UNL     1      -0.389  -2.458   8.571  0.00  0.00    +0.104 C 
ATOM     28  C   UNL     1      -1.669  -0.537   7.838  0.00  0.00    +0.104 C 
ENDBRANCH  25  26
ENDBRANCH  24  25
ENDBRANCH  22  24
BRANCH  22  29
ATOM     29  C   UNL     1      -2.047  -5.873   4.917  0.00  0.00    -0.047 C 
BRANCH  29  30
ATOM     30  C   UNL     1      -3.547  -6.007   5.191  0.00  0.00    +0.098 C 
BRANCH  30  31
ATOM     31  O   UNL     1      -3.816  -5.656   6.550  0.00  0.00    -0.394 OA
ATOM     32  H   UNL     1      -3.357  -6.208   7.197  0.00  0.00    +0.210 HD
ENDBRANCH  30  31
BRANCH  30  33
ATOM     33  C   UNL     1      -3.984  -7.452   4.942  0.00  0.00    +0.033 C 
BRANCH  33  34
ATOM     34  C   UNL     1      -5.502  -7.559   5.095  0.00  0.00    +0.029 C 
BRANCH  34  35
ATOM     35  C   UNL     1      -5.933  -8.982   4.849  0.00  0.00    -0.034 C 
ATOM     36  C   UNL     1      -6.635  -9.619   5.753  0.00  0.00    +0.004 C 
ENDBRANCH  34  35
ENDBRANCH  33  34
ENDBRANCH  30  33
ENDBRANCH  29  30
ENDBRANCH  22  29
ENDBRANCH  21  22
ENDBRANCH   2  21
TORSDOF 14
