REMARK  Name = ZINC64871206
REMARK  5 active torsions:
REMARK  status: ('A' for Active; 'I' for Inactive)
REMARK    1  A    between atoms: C_6  and  C_7
REMARK    2  A    between atoms: C_7  and  N_8
REMARK    3  A    between atoms: C_14  and  C_21
REMARK    4  A    between atoms: C_24  and  C_28
REMARK    5  A    between atoms: C_31  and  C_34
REMARK                            x       y       z     vdW  Elec       q    Type
REMARK                         _______ _______ _______ _____ _____    ______ ____
ROOT
ATOM      1  N   UNL     1      -1.626  -0.950  -1.411  0.00  0.00    -0.256 N 
ATOM      2  C   UNL     1      -2.518  -0.112  -1.982  0.00  0.00    +0.265 A 
ATOM      3  O   UNL     1      -2.959   0.841  -1.369  0.00  0.00    -0.267 OA
ATOM      4  C   UNL     1      -2.942  -0.382  -3.368  0.00  0.00    +0.063 A 
ATOM      5  C   UNL     1      -3.858   0.436  -4.026  0.00  0.00    +0.016 A 
ATOM      6  C   UNL     1      -4.222   0.141  -5.322  0.00  0.00    +0.008 A 
ATOM      7  C   UNL     1      -3.684  -0.961  -5.970  0.00  0.00    -0.000 A 
ATOM      8  C   UNL     1      -2.776  -1.779  -5.329  0.00  0.00    +0.034 A 
ATOM      9  C   UNL     1      -2.397  -1.498  -4.025  0.00  0.00    +0.056 A 
ATOM     10  N   UNL     1      -1.487  -2.294  -3.345  0.00  0.00    -0.307 N 
ATOM     11  H   UNL     1      -1.102  -3.068  -3.786  0.00  0.00    +0.170 HD
ATOM     12  C   UNL     1      -1.129  -2.001  -2.083  0.00  0.00    +0.330 A 
ATOM     13  O   UNL     1      -0.325  -2.721  -1.523  0.00  0.00    -0.246 OA
ENDROOT
BRANCH   7  14
ATOM     14  C   UNL     1      -4.095  -1.268  -7.387  0.00  0.00    +0.242 C 
ATOM     15  N   UNL     1      -4.584  -2.662  -7.478  0.00  0.00    -0.265 NA
ATOM     16  C   UNL     1      -4.082  -3.136  -8.795  0.00  0.00    +0.180 C 
ATOM     17  N   UNL     1      -2.752  -2.476  -8.881  0.00  0.00    -0.177 NA
ATOM     18  O   UNL     1      -2.961  -1.153  -8.260  0.00  0.00    -0.274 OA
ATOM     19  H   UNL     1      -4.214  -3.225  -6.726  0.00  0.00    +0.127 HD
ATOM     20  H   UNL     1      -2.053  -3.005  -8.382  0.00  0.00    +0.156 HD
BRANCH  16  21
ATOM     21  C   UNL     1      -3.943  -4.636  -8.809  0.00  0.00    -0.014 A 
ATOM     22  C   UNL     1      -4.784  -5.415  -8.036  0.00  0.00    +0.007 A 
ATOM     23  C   UNL     1      -4.657  -6.792  -8.049  0.00  0.00    +0.013 A 
ATOM     24  C   UNL     1      -3.688  -7.389  -8.833  0.00  0.00    +0.055 A 
ATOM     25  C   UNL     1      -2.848  -6.610  -9.606  0.00  0.00    +0.013 A 
ATOM     26  C   UNL     1      -2.978  -5.234  -9.598  0.00  0.00    +0.007 A 
BRANCH  24  27
ATOM     27  C   UNL     1      -3.549  -8.890  -8.846  0.00  0.00    +0.417 C 
ATOM     28  F   UNL     1      -4.361  -9.425  -9.851  0.00  0.00    -0.166 F 
ATOM     29  F   UNL     1      -2.215  -9.232  -9.092  0.00  0.00    -0.166 F 
ATOM     30  F   UNL     1      -3.941  -9.405  -7.606  0.00  0.00    -0.166 F 
ENDBRANCH  24  27
ENDBRANCH  16  21
ENDBRANCH   7  14
BRANCH   1  31
ATOM     31  C   UNL     1      -1.187  -0.704  -0.035  0.00  0.00    +0.165 C 
BRANCH  31  37
ATOM     32  C   UNL     1      -0.129   1.564   0.002  0.00  0.00    +0.007 A 
ATOM     33  C   UNL     1       0.983   2.385  -0.008  0.00  0.00    +0.020 A 
ATOM     34  C   UNL     1       2.250   1.833  -0.068  0.00  0.00    +0.041 A 
ATOM     35  C   UNL     1       2.404   0.459  -0.116  0.00  0.00    +0.020 A 
ATOM     36  C   UNL     1       1.291  -0.362  -0.106  0.00  0.00    +0.007 A 
ATOM     37  C   UNL     1       0.025   0.191  -0.047  0.00  0.00    -0.027 A 
ATOM     38 CL   UNL     1       3.647   2.864  -0.081  0.00  0.00    -0.084 Cl
ENDBRANCH  31  37
ENDBRANCH   1  31
TORSDOF 5
