REMARK  Name = ZINC43609945
REMARK  9 active torsions:
REMARK  status: ('A' for Active; 'I' for Inactive)
REMARK    1  A    between atoms: C_1  and  O_2
REMARK    2  A    between atoms: O_2  and  C_3
REMARK    3  A    between atoms: C_7  and  C_11
REMARK    4  A    between atoms: C_8  and  O_9
REMARK    5  A    between atoms: O_9  and  C_10
REMARK    6  A    between atoms: C_11  and  N_12
REMARK    7  A    between atoms: N_24  and  C_25
REMARK    8  A    between atoms: C_25  and  C_26
REMARK    9  A    between atoms: C_26  and  C_27
REMARK                            x       y       z     vdW  Elec       q    Type
REMARK                         _______ _______ _______ _____ _____    ______ ____
ROOT
ATOM      1  N   UNL     1      -2.204  -4.697   1.400  0.00  0.00    +0.383 N 
ATOM      2  C   UNL     1      -3.153  -4.165   2.386  0.00  0.00    -0.077 C 
ATOM      3  C   UNL     1      -2.741  -4.626   3.786  0.00  0.00    +0.004 C 
ATOM      4  C   UNL     1      -2.739  -6.153   3.843  0.00  0.00    +0.076 C 
ATOM      5  C   UNL     1      -1.839  -6.717   2.744  0.00  0.00    -0.007 C 
ATOM      6  C   UNL     1      -2.276  -6.162   1.386  0.00  0.00    -0.073 C 
ATOM      7  C   UNL     1      -1.992  -8.244   2.727  0.00  0.00    +0.013 C 
ATOM      8  C   UNL     1      -3.411  -8.582   2.261  0.00  0.00    +0.096 C 
ATOM      9  C   UNL     1      -4.412  -7.770   3.032  0.00  0.00    +0.216 C 
ATOM     10  O   UNL     1      -5.569  -8.133   3.031  0.00  0.00    -0.276 OA
ATOM     11  N   UNL     1      -4.091  -6.671   3.696  0.00  0.00    -0.298 N 
ATOM     12  H   UNL     1      -1.269  -4.409   1.645  0.00  0.00    -0.081 HD
ENDROOT
BRANCH   1  13
ATOM     13  C   UNL     1      -2.542  -4.178   0.068  0.00  0.00    -0.039 C 
BRANCH  13  18
ATOM     14  C   UNL     1      -0.852  -0.793  -0.038  0.00  0.00    +0.162 A 
ATOM     15  C   UNL     1      -1.946   0.057  -0.009  0.00  0.00    +0.049 A 
ATOM     16  C   UNL     1      -3.225  -0.464   0.044  0.00  0.00    +0.004 A 
ATOM     17  C   UNL     1      -3.417  -1.833   0.069  0.00  0.00    +0.005 A 
ATOM     18  C   UNL     1      -2.330  -2.687   0.040  0.00  0.00    -0.019 A 
ATOM     19  C   UNL     1      -1.045  -2.171  -0.019  0.00  0.00    +0.163 A 
BRANCH  14  21
ATOM     20  C   UNL     1       0.529   1.142  -0.108  0.00  0.00    +0.277 C 
ATOM     21  O   UNL     1       0.407  -0.282  -0.091  0.00  0.00    -0.491 OA
ENDBRANCH  14  21
BRANCH  19  22
ATOM     22  O   UNL     1       0.025  -3.010  -0.054  0.00  0.00    -0.491 OA
ATOM     23  C   UNL     1       0.556  -3.332  -1.341  0.00  0.00    +0.277 C 
ENDBRANCH  19  22
ENDBRANCH  13  18
ENDBRANCH   1  13
BRANCH  11  24
ATOM     24  C   UNL     1      -5.182  -5.942   4.348  0.00  0.00    +0.113 C 
BRANCH  24  25
ATOM     25  C   UNL     1      -5.292  -6.387   5.808  0.00  0.00    +0.057 C 
BRANCH  25  26
ATOM     26  C   UNL     1      -6.489  -5.728   6.444  0.00  0.00    -0.011 A 
ATOM     27  C   UNL     1      -6.335  -4.551   7.153  0.00  0.00    +0.006 A 
ATOM     28  C   UNL     1      -7.432  -3.947   7.737  0.00  0.00    +0.000 A 
ATOM     29  C   UNL     1      -8.685  -4.519   7.613  0.00  0.00    +0.003 A 
ATOM     30  C   UNL     1      -8.842  -5.695   6.905  0.00  0.00    +0.038 A 
ATOM     31  C   UNL     1      -7.744  -6.298   6.315  0.00  0.00    +0.127 A 
ATOM     32  F   UNL     1      -7.896  -7.446   5.618  0.00  0.00    -0.205 F 
ENDBRANCH  25  26
ENDBRANCH  24  25
ENDBRANCH  11  24
TORSDOF 7
