REMARK  Name = ZINC59983591
REMARK  10 active torsions:
REMARK  status: ('A' for Active; 'I' for Inactive)
REMARK    1  A    between atoms: C_1  and  C_2
REMARK    2  A    between atoms: N_7  and  C_9
REMARK    3  A    between atoms: C_9  and  C_10
REMARK    4  A    between atoms: C_9  and  C_11
REMARK    5  A    between atoms: C_9  and  C_12
REMARK    6  A    between atoms: C_12  and  N_13
REMARK    7  A    between atoms: C_14  and  C_16
REMARK    8  A    between atoms: C_17  and  C_18
REMARK    9  A    between atoms: C_21  and  O_24
REMARK   10  A    between atoms: O_24  and  C_25
REMARK                            x       y       z     vdW  Elec       q    Type
REMARK                         _______ _______ _______ _____ _____    ______ ____
ROOT
ATOM      1  N   UNL     1       2.186  -4.461   1.142  0.00  0.00    -0.313 N 
ATOM      2  C   UNL     1       2.321  -5.782   0.914  0.00  0.00    +0.237 C 
ATOM      3  O   UNL     1       1.924  -6.585   1.739  0.00  0.00    -0.271 OA
ATOM      4  H   UNL     1       2.502  -3.821   0.485  0.00  0.00    +0.149 HD
ENDROOT
BRANCH   2   5
ATOM      5  C   UNL     1       2.943  -6.251  -0.323  0.00  0.00    +0.068 C 
ATOM      6  C   UNL     1       3.078  -7.575  -0.551  0.00  0.00    +0.013 C 
BRANCH   6   7
ATOM      7  C   UNL     1       3.704  -8.046  -1.795  0.00  0.00    -0.025 A 
ATOM      8  C   UNL     1       4.166  -7.125  -2.742  0.00  0.00    +0.011 A 
ATOM      9  C   UNL     1       4.751  -7.572  -3.905  0.00  0.00    +0.046 A 
ATOM     10  C   UNL     1       4.884  -8.935  -4.140  0.00  0.00    +0.120 A 
ATOM     11  C   UNL     1       4.426  -9.855  -3.203  0.00  0.00    +0.046 A 
ATOM     12  C   UNL     1       3.845  -9.418  -2.034  0.00  0.00    +0.011 A 
BRANCH  10  13
ATOM     13  O   UNL     1       5.461  -9.371  -5.288  0.00  0.00    -0.495 OA
ATOM     14  C   UNL     1       5.566 -10.785  -5.466  0.00  0.00    +0.277 C 
ENDBRANCH  10  13
ENDBRANCH   6   7
ENDBRANCH   2   5
BRANCH   1  15
ATOM     15  C   UNL     1       1.562  -3.991   2.382  0.00  0.00    +0.092 C 
BRANCH  15  16
ATOM     16  C   UNL     1       1.534  -2.461   2.390  0.00  0.00    -0.055 C 
ATOM     17  C   UNL     1       2.963  -1.924   2.303  0.00  0.00    -0.008 C 
ATOM     18  C   UNL     1       0.882  -1.970   3.685  0.00  0.00    -0.008 C 
BRANCH  16  24
ATOM     19  C   UNL     1      -0.019   1.526   0.010  0.00  0.00    +0.005 C 
ATOM     20  C   UNL     1       0.002  -0.004   0.002  0.00  0.00    -0.031 C 
ATOM     21  C   UNL     1      -1.434  -0.535   0.015  0.00  0.00    -0.001 C 
ATOM     22  C   UNL     1      -1.402  -2.064   0.086  0.00  0.00    -0.018 C 
ATOM     23  C   UNL     1      -0.613  -2.496   1.324  0.00  0.00    -0.078 C 
ATOM     24  N   UNL     1       0.758  -1.980   1.239  0.00  0.00    +0.384 N 
ATOM     25  C   UNL     1       0.740  -0.512   1.242  0.00  0.00    -0.075 C 
ATOM     26  H   UNL     1       1.188  -2.307   0.386  0.00  0.00    -0.081 HD
ENDBRANCH  16  24
ENDBRANCH  15  16
ENDBRANCH   1  15
TORSDOF 6
