REMARK  Name = ZINC32939105
REMARK  10 active torsions:
REMARK  status: ('A' for Active; 'I' for Inactive)
REMARK    1  A    between atoms: C_1  and  C_2
REMARK    2  A    between atoms: C_2  and  O_3
REMARK    3  A    between atoms: O_3  and  C_4
REMARK    4  A    between atoms: C_4  and  C_6
REMARK    5  A    between atoms: C_12  and  C_13
REMARK    6  A    between atoms: C_16  and  O_19
REMARK    7  A    between atoms: C_21  and  N_34
REMARK    8  A    between atoms: C_22  and  C_32
REMARK    9  A    between atoms: C_23  and  C_25
REMARK   10  A    between atoms: C_28  and  O_31
REMARK                            x       y       z     vdW  Elec       q    Type
REMARK                         _______ _______ _______ _____ _____    ______ ____
ROOT
ATOM      1  C   UNL     1       6.031   1.917   1.497  0.00  0.00    +0.080 C 
ATOM      2  C   UNL     1       6.705   2.497   2.534  0.00  0.00    +0.100 A 
ATOM      3  N   UNL     1       6.220   3.552   3.279  0.00  0.00    -0.257 N 
ATOM      4  C   UNL     1       6.996   4.023   4.277  0.00  0.00    +0.271 A 
ATOM      5  O   UNL     1       6.624   4.952   4.969  0.00  0.00    -0.266 OA
ATOM      6  C   UNL     1       8.298   3.390   4.507  0.00  0.00    +0.079 A 
ATOM      7  C   UNL     1       9.246   3.679   5.436  0.00  0.00    +0.028 C 
ATOM      8  S   UNL     1       8.302   2.135   3.237  0.00  0.00    -0.065 S 
ATOM      9  C   UNL     1       4.961   4.081   2.971  0.00  0.00    +0.118 C 
ATOM     10  C   UNL     1       4.175   3.620   1.975  0.00  0.00    +0.079 C 
ATOM     11  C   UNL     1       4.665   2.462   1.130  0.00  0.00    +0.102 C 
ENDROOT
BRANCH   7  12
ATOM     12  C   UNL     1       9.113   4.881   6.270  0.00  0.00    -0.024 A 
ATOM     13  C   UNL     1       8.666   6.082   5.705  0.00  0.00    +0.011 A 
ATOM     14  C   UNL     1       8.538   7.204   6.493  0.00  0.00    +0.046 A 
ATOM     15  C   UNL     1       8.864   7.149   7.843  0.00  0.00    +0.117 A 
ATOM     16  C   UNL     1       9.314   5.961   8.407  0.00  0.00    +0.046 A 
ATOM     17  C   UNL     1       9.440   4.831   7.631  0.00  0.00    +0.011 A 
BRANCH  15  18
ATOM     18  O   UNL     1       8.741   8.260   8.614  0.00  0.00    -0.507 OA
ATOM     19  H   UNL     1       8.998   8.219   9.683  0.00  0.00    +0.292 HD
ENDBRANCH  15  18
ENDBRANCH   7  12
BRANCH  11  20
ATOM     20  C   UNL     1       3.665   1.341   1.240  0.00  0.00    -0.034 A 
ATOM     21  C   UNL     1       2.982   0.912   0.116  0.00  0.00    +0.008 A 
ATOM     22  C   UNL     1       2.064  -0.116   0.214  0.00  0.00    +0.046 A 
ATOM     23  C   UNL     1       1.828  -0.718   1.442  0.00  0.00    +0.117 A 
ATOM     24  C   UNL     1       2.510  -0.283   2.568  0.00  0.00    +0.046 A 
ATOM     25  C   UNL     1       3.431   0.742   2.464  0.00  0.00    +0.008 A 
BRANCH  23  26
ATOM     26  O   UNL     1       0.926  -1.730   1.541  0.00  0.00    -0.507 OA
ATOM     27  H   UNL     1       0.739  -2.207   2.514  0.00  0.00    +0.292 HD
ENDBRANCH  23  26
ENDBRANCH  11  20
BRANCH   9  28
ATOM     28  N   UNL     1       4.499   5.131   3.727  0.00  0.00    -0.343 N 
ATOM     29  H   UNL     1       3.514   5.571   3.512  0.00  0.00    +0.144 HD
ATOM     30  H   UNL     1       5.113   5.532   4.546  0.00  0.00    +0.144 HD
ENDBRANCH   9  28
BRANCH   1  31
ATOM     31  C   UNL     1       6.593   0.846   0.790  0.00  0.00    +0.339 C 
ATOM     32  O   UNL     1       7.692   0.420   1.099  0.00  0.00    -0.245 OA
BRANCH  31  33
ATOM     33  O   UNL     1       5.915   0.284  -0.235  0.00  0.00    -0.462 OA
BRANCH  33  35
ATOM     34  C   UNL     1       5.635  -1.307  -2.033  0.00  0.00    +0.048 C 
ATOM     35  C   UNL     1       6.547  -0.805  -0.912  0.00  0.00    +0.229 C 
ENDBRANCH  33  35
ENDBRANCH  31  33
ENDBRANCH   1  31
BRANCH  10  36
ATOM     36  C   UNL     1       2.897   4.215   1.722  0.00  0.00    +0.099 C 
ATOM     37  N   UNL     1       1.883   4.687   1.522  0.00  0.00    -0.191 NA
ENDBRANCH  10  36
TORSDOF 9
