REMARK  Name = ZINC10321208
REMARK  7 active torsions:
REMARK  status: ('A' for Active; 'I' for Inactive)
REMARK    1  A    between atoms: C_1  and  C_2
REMARK    2  A    between atoms: C_5  and  C_8
REMARK    3  A    between atoms: C_8  and  N_9
REMARK    4  A    between atoms: N_12  and  C_13
REMARK    5  A    between atoms: C_13  and  C_14
REMARK    6  A    between atoms: N_16  and  C_17
REMARK    7  A    between atoms: C_20  and  O_27
REMARK                            x       y       z     vdW  Elec       q    Type
REMARK                         _______ _______ _______ _____ _____    ______ ____
ROOT
ATOM      1  C   UNL     1      -0.015   1.208   0.013  0.00  0.00    +0.234 C 
ATOM      2  O   UNL     1       0.002  -0.004   0.001  0.00  0.00    -0.274 OA
ATOM      3  N   UNL     1      -1.191   1.867   0.018  0.00  0.00    -0.284 N 
ATOM      4  H   UNL     1      -1.205   2.834   0.093  0.00  0.00    +0.155 HD
ENDROOT
BRANCH   3   5
ATOM      5  C   UNL     1      -2.391   1.155  -0.086  0.00  0.00    +0.041 A 
ATOM      6  C   UNL     1      -2.510  -0.088   0.494  0.00  0.00    +0.027 A 
ATOM      7  C   UNL     1      -3.700  -0.805   0.404  0.00  0.00    +0.048 A 
ATOM      8  C   UNL     1      -4.782  -0.295  -0.276  0.00  0.00    +0.125 A 
ATOM      9  C   UNL     1      -4.690   0.973  -0.885  0.00  0.00    +0.025 A 
ATOM     10  C   UNL     1      -3.482   1.706  -0.789  0.00  0.00    +0.007 A 
ATOM     11  C   UNL     1      -3.393   2.969  -1.398  0.00  0.00    +0.010 A 
ATOM     12  C   UNL     1      -4.465   3.470  -2.070  0.00  0.00    +0.001 A 
ATOM     13  C   UNL     1      -5.654   2.749  -2.164  0.00  0.00    +0.001 A 
ATOM     14  C   UNL     1      -5.776   1.522  -1.587  0.00  0.00    +0.012 A 
BRANCH   8  15
ATOM     15  O   UNL     1      -5.934  -1.010  -0.359  0.00  0.00    -0.506 OA
ATOM     16  H   UNL     1      -5.979  -1.596  -1.127  0.00  0.00    +0.292 HD
ENDBRANCH   8  15
ENDBRANCH   3   5
BRANCH   1  17
ATOM     17  C   UNL     1       1.280   1.979   0.015  0.00  0.00    +0.202 C 
BRANCH  17  21
ATOM     18  N   UNL     1       4.707   0.646  -0.010  0.00  0.00    -0.295 N 
ATOM     19  C   UNL     1       3.671   1.508   0.002  0.00  0.00    +0.300 C 
ATOM     20  O   UNL     1       3.877   2.707   0.012  0.00  0.00    -0.253 OA
ATOM     21  N   UNL     1       2.406   1.042   0.002  0.00  0.00    -0.291 N 
ATOM     22  H   UNL     1       4.543  -0.310  -0.019  0.00  0.00    +0.151 HD
ATOM     23  H   UNL     1       2.242   0.086  -0.006  0.00  0.00    +0.151 HD
BRANCH  18  24
ATOM     24  C   UNL     1       6.082   1.153  -0.011  0.00  0.00    +0.141 C 
BRANCH  24  29
ATOM     25  C   UNL     1       9.774  -3.292  -0.066  0.00  0.00    +0.044 C 
ATOM     26  C   UNL     1       8.811  -2.133  -0.052  0.00  0.00    -0.050 A 
ATOM     27  C   UNL     1       8.364  -1.590  -1.242  0.00  0.00    +0.003 A 
ATOM     28  C   UNL     1       7.481  -0.527  -1.229  0.00  0.00    +0.005 A 
ATOM     29  C   UNL     1       7.044  -0.006  -0.025  0.00  0.00    -0.030 A 
ATOM     30  C   UNL     1       7.495  -0.546   1.165  0.00  0.00    +0.005 A 
ATOM     31  C   UNL     1       8.374  -1.612   1.152  0.00  0.00    +0.003 A 
ENDBRANCH  24  29
ENDBRANCH  18  24
ENDBRANCH  17  21
ENDBRANCH   1  17
TORSDOF 6
