REMARK  Name = ZINC09491248
REMARK  10 active torsions:
REMARK  status: ('A' for Active; 'I' for Inactive)
REMARK    1  A    between atoms: C_1  and  N_47
REMARK    2  A    between atoms: C_2  and  C_3
REMARK    3  A    between atoms: C_2  and  N_47
REMARK    4  A    between atoms: N_5  and  C_6
REMARK    5  A    between atoms: C_11  and  S_12
REMARK    6  A    between atoms: S_12  and  C_13
REMARK    7  A    between atoms: C_14  and  C_15
REMARK    8  A    between atoms: C_14  and  N_47
REMARK    9  A    between atoms: N_17  and  C_18
REMARK   10  A    between atoms: C_21  and  N_25
REMARK                            x       y       z     vdW  Elec       q    Type
REMARK                         _______ _______ _______ _____ _____    ______ ____
ROOT
ATOM      1  C   UNL     1       3.060  -0.414   1.013  0.00  0.00    -0.095 C 
ATOM      2  N   UNL     1       2.865   0.318  -0.256  0.00  0.00    +0.389 N 
ATOM      3  H   UNL     1       2.889  -0.351  -1.034  0.00  0.00    -0.081 HD
ENDROOT
BRANCH   2   4
ATOM      4  C   UNL     1       3.947   1.307  -0.440  0.00  0.00    +0.019 C 
BRANCH   4   5
ATOM      5  C   UNL     1       5.244   0.574  -0.663  0.00  0.00    +0.201 C 
ATOM      6  O   UNL     1       5.264  -0.639  -0.652  0.00  0.00    -0.278 OA
ATOM      7  N   UNL     1       6.382   1.265  -0.874  0.00  0.00    -0.286 N 
ATOM      8  H   UNL     1       6.382   2.232  -0.802  0.00  0.00    +0.155 HD
BRANCH   7   9
ATOM      9  C   UNL     1       7.564   0.586  -1.199  0.00  0.00    +0.047 A 
ATOM     10  C   UNL     1       7.515  -0.569  -1.965  0.00  0.00    +0.024 A 
ATOM     11  C   UNL     1       8.683  -1.234  -2.288  0.00  0.00    +0.002 A 
ATOM     12  C   UNL     1       9.902  -0.758  -1.841  0.00  0.00    +0.001 A 
ATOM     13  C   UNL     1       9.960   0.389  -1.072  0.00  0.00    +0.016 A 
ATOM     14  C   UNL     1       8.793   1.066  -0.747  0.00  0.00    +0.029 A 
BRANCH  14  15
ATOM     15  S   UNL     1       8.864   2.529   0.234  0.00  0.00    -0.127 S 
ATOM     16  C   UNL     1      10.633   2.747   0.569  0.00  0.00    +0.090 C 
ENDBRANCH  14  15
ENDBRANCH   7   9
ENDBRANCH   4   5
ENDBRANCH   2   4
BRANCH   2  17
ATOM     17  C   UNL     1       1.553   0.999  -0.250  0.00  0.00    +0.019 C 
BRANCH  17  18
ATOM     18  C   UNL     1       0.464  -0.042  -0.283  0.00  0.00    +0.201 C 
ATOM     19  O   UNL     1       0.752  -1.221  -0.294  0.00  0.00    -0.278 OA
ATOM     20  N   UNL     1      -0.829   0.336  -0.308  0.00  0.00    -0.286 N 
ATOM     21  H   UNL     1      -1.062   1.273  -0.217  0.00  0.00    +0.155 HD
BRANCH  20  22
ATOM     22  C   UNL     1      -1.836  -0.624  -0.464  0.00  0.00    +0.048 A 
ATOM     23  C   UNL     1      -1.613  -1.745  -1.254  0.00  0.00    +0.026 A 
ATOM     24  C   UNL     1      -2.608  -2.690  -1.406  0.00  0.00    +0.034 A 
ATOM     25  C   UNL     1      -3.826  -2.522  -0.773  0.00  0.00    +0.127 A 
ATOM     26  C   UNL     1      -4.052  -1.408   0.014  0.00  0.00    +0.049 A 
ATOM     27  C   UNL     1      -3.059  -0.461   0.175  0.00  0.00    +0.041 A 
ATOM     28 BR   UNL     1      -3.366   1.059   1.257  0.00  0.00    -0.048 Br
BRANCH  25  29
ATOM     29  N   UNL     1      -4.890  -3.538  -0.938  0.00  0.00    +0.056 N 
ATOM     30  O   UNL     1      -4.692  -4.521  -1.630  0.00  0.00    -0.126 OA
ATOM     31  O   UNL     1      -5.963  -3.392  -0.381  0.00  0.00    -0.126 OA
ENDBRANCH  25  29
ENDBRANCH  20  22
ENDBRANCH  17  18
ENDBRANCH   2  17
TORSDOF 8
