REMARK  Name = ZINC64165285
REMARK  9 active torsions:
REMARK  status: ('A' for Active; 'I' for Inactive)
REMARK    1  A    between atoms: C_1  and  C_2
REMARK    2  A    between atoms: C_2  and  N_3
REMARK    3  A    between atoms: C_16  and  C_18
REMARK    4  A    between atoms: C_20  and  O_37
REMARK    5  A    between atoms: C_22  and  O_36
REMARK    6  A    between atoms: N_24  and  C_27
REMARK    7  A    between atoms: C_28  and  C_35
REMARK    8  A    between atoms: C_30  and  C_34
REMARK    9  A    between atoms: C_32  and  C_33
REMARK                            x       y       z     vdW  Elec       q    Type
REMARK                         _______ _______ _______ _____ _____    ______ ____
ROOT
ATOM      1  C   UNL     1      -0.586  -2.957  -1.655  0.00  0.00    +0.180 C 
ATOM      2  C   UNL     1      -0.981  -2.421  -2.999  0.00  0.00    +0.200 C 
ATOM      3  N   UNL     1      -1.836  -1.485  -3.149  0.00  0.00    -0.204 NA
ATOM      4  C   UNL     1      -2.524  -0.825  -2.052  0.00  0.00    +0.338 C 
ATOM      5  N   UNL     1      -2.510  -1.623  -0.836  0.00  0.00    -0.225 N 
ATOM      6  C   UNL     1      -1.623  -2.600  -0.628  0.00  0.00    +0.237 C 
ATOM      7  O   UNL     1      -1.658  -3.214   0.418  0.00  0.00    -0.274 OA
ENDROOT
BRANCH   1  20
ATOM      8  N   UNL     1       1.631  -2.240  -2.426  0.00  0.00    -0.296 NA
ATOM      9  C   UNL     1       1.775  -3.497  -3.166  0.00  0.00    +0.089 C 
ATOM     10  C   UNL     1       2.493  -4.547  -2.298  0.00  0.00    +0.049 C 
ATOM     11  C   UNL     1       1.769  -4.563  -0.974  0.00  0.00    -0.036 C 
ATOM     12  C   UNL     1       1.278  -5.548  -0.237  0.00  0.00    -0.001 A 
ATOM     13  C   UNL     1       1.373  -7.012  -0.364  0.00  0.00    +0.010 A 
ATOM     14  C   UNL     1       0.712  -7.740   0.574  0.00  0.00    +0.001 A 
ATOM     15  C   UNL     1      -0.025  -7.166   1.615  0.00  0.00    +0.002 A 
ATOM     16  C   UNL     1      -0.157  -5.830   1.815  0.00  0.00    +0.026 A 
ATOM     17  C   UNL     1       0.502  -4.961   0.898  0.00  0.00    +0.043 A 
ATOM     18  N   UNL     1       0.567  -3.662   0.870  0.00  0.00    -0.376 N 
ATOM     19  C   UNL     1       1.446  -3.271  -0.230  0.00  0.00    +0.125 C 
ATOM     20  C   UNL     1       0.760  -2.356  -1.245  0.00  0.00    +0.104 C 
ATOM     21  H   UNL     1       0.111  -3.057   1.475  0.00  0.00    +0.160 HD
BRANCH   8  23
ATOM     22  C   UNL     1       2.296  -0.806  -4.296  0.00  0.00    +0.020 C 
ATOM     23  C   UNL     1       1.180  -1.157  -3.310  0.00  0.00    +0.081 C 
ENDBRANCH   8  23
ENDBRANCH   1  20
BRANCH   5  24
ATOM     24  C   UNL     1      -3.462  -1.356   0.155  0.00  0.00    +0.046 A 
ATOM     25  C   UNL     1      -3.206  -0.394   1.124  0.00  0.00    -0.028 A 
ATOM     26  C   UNL     1      -4.147  -0.132   2.100  0.00  0.00    +0.008 A 
ATOM     27  C   UNL     1      -5.343  -0.826   2.113  0.00  0.00    -0.050 A 
ATOM     28  C   UNL     1      -5.601  -1.784   1.150  0.00  0.00    +0.008 A 
ATOM     29  C   UNL     1      -4.667  -2.046   0.167  0.00  0.00    -0.028 A 
ATOM     30  C   UNL     1      -4.951  -3.086  -0.886  0.00  0.00    +0.046 C 
ATOM     31  C   UNL     1      -6.368  -0.538   3.180  0.00  0.00    +0.044 C 
ATOM     32  C   UNL     1      -1.903   0.362   1.111  0.00  0.00    +0.046 C 
ENDBRANCH   5  24
BRANCH   4  33
ATOM     33  O   UNL     1      -1.887   0.427  -1.791  0.00  0.00    -0.356 OA
ATOM     34  H   UNL     1      -1.890   1.035  -2.543  0.00  0.00    +0.214 HD
ENDBRANCH   4  33
BRANCH   2  35
ATOM     35  O   UNL     1      -0.407  -2.952  -4.099  0.00  0.00    -0.495 OA
ATOM     36  H   UNL     1      -0.709  -2.559  -4.929  0.00  0.00    +0.293 HD
ENDBRANCH   2  35
TORSDOF 5
