REMARK  Name = ZINC39948148
REMARK  9 active torsions:
REMARK  status: ('A' for Active; 'I' for Inactive)
REMARK    1  A    between atoms: C_1  and  O_2
REMARK    2  A    between atoms: O_2  and  C_3
REMARK    3  A    between atoms: C_5  and  O_30
REMARK    4  A    between atoms: C_6  and  C_11
REMARK    5  A    between atoms: C_7  and  O_9
REMARK    6  A    between atoms: O_9  and  C_10
REMARK    7  A    between atoms: N_12  and  N_13
REMARK    8  A    between atoms: C_14  and  C_16
REMARK    9  A    between atoms: O_30  and  C_31
REMARK                            x       y       z     vdW  Elec       q    Type
REMARK                         _______ _______ _______ _____ _____    ______ ____
ROOT
ATOM      1  N   UNL     1       3.278  -4.470   5.411  0.00  0.00    -0.202 N 
ATOM      2  C   UNL     1       3.337  -5.816   5.461  0.00  0.00    +0.280 C 
ATOM      3  O   UNL     1       2.830  -6.481   4.576  0.00  0.00    -0.267 OA
ATOM      4  H   UNL     1       3.681  -3.940   6.116  0.00  0.00    +0.178 HD
ENDROOT
BRANCH   2   5
ATOM      5  C   UNL     1       4.010  -6.478   6.582  0.00  0.00    +0.135 C 
ATOM      6  N   UNL     1       4.597  -5.912   7.611  0.00  0.00    -0.148 NA
ATOM      7  N   UNL     1       5.161  -6.736   8.415  0.00  0.00    -0.153 NA
ATOM      8  C   UNL     1       5.143  -7.958   8.001  0.00  0.00    +0.080 C 
ATOM      9  C   UNL     1       4.176  -7.962   6.810  0.00  0.00    +0.096 C 
ATOM     10  C   UNL     1       4.950  -8.652   5.686  0.00  0.00    +0.021 C 
ATOM     11  C   UNL     1       5.244 -10.095   6.092  0.00  0.00    +0.037 C 
ATOM     12  C   UNL     1       5.879 -10.223   7.447  0.00  0.00    -0.038 A 
ATOM     13  C   UNL     1       5.832  -9.184   8.394  0.00  0.00    +0.002 A 
ATOM     14  C   UNL     1       6.413  -9.339   9.651  0.00  0.00    +0.010 A 
ATOM     15  C   UNL     1       7.062 -10.517   9.961  0.00  0.00    +0.001 A 
ATOM     16  C   UNL     1       7.133 -11.532   9.022  0.00  0.00    +0.000 A 
ATOM     17  C   UNL     1       6.536 -11.392   7.781  0.00  0.00    +0.004 A 
ENDBRANCH   2   5
BRANCH   1  19
ATOM     18  C   UNL     1       2.577  -2.539   4.291  0.00  0.00    +0.145 C 
ATOM     19  N   UNL     1       2.634  -3.837   4.340  0.00  0.00    -0.187 NA
BRANCH  18  23
ATOM     20  C   UNL     1       0.625  -0.618   1.041  0.00  0.00    +0.127 A 
ATOM     21  C   UNL     1       1.201   0.144   2.049  0.00  0.00    +0.092 A 
ATOM     22  C   UNL     1       1.838  -0.474   3.110  0.00  0.00    +0.136 A 
ATOM     23  C   UNL     1       1.901  -1.874   3.166  0.00  0.00    +0.078 A 
ATOM     24  C   UNL     1       1.317  -2.637   2.144  0.00  0.00    +0.136 A 
ATOM     25  C   UNL     1       0.679  -2.004   1.092  0.00  0.00    +0.092 A 
BRANCH  20  27
ATOM     26  C   UNL     1      -0.017   1.425   0.010  0.00  0.00    +0.277 C 
ATOM     27  O   UNL     1       0.002  -0.004   0.002  0.00  0.00    -0.495 OA
ENDBRANCH  20  27
BRANCH  24  28
ATOM     28  O   UNL     1       1.374  -3.993   2.190  0.00  0.00    -0.494 OA
ATOM     29  C   UNL     1       0.757  -4.705   1.115  0.00  0.00    +0.277 C 
ENDBRANCH  24  28
BRANCH  22  30
ATOM     30  O   UNL     1       2.401   0.273   4.095  0.00  0.00    -0.494 OA
ATOM     31  C   UNL     1       2.298   1.693   3.971  0.00  0.00    +0.277 C 
ENDBRANCH  22  30
ENDBRANCH  18  23
ENDBRANCH   1  19
TORSDOF 6
