REMARK  Name = ZINC30622409
REMARK  7 active torsions:
REMARK  status: ('A' for Active; 'I' for Inactive)
REMARK    1  A    between atoms: C_4  and  N_7
REMARK    2  A    between atoms: C_8  and  C_29
REMARK    3  A    between atoms: C_11  and  C_13
REMARK    4  A    between atoms: N_15  and  C_16
REMARK    5  A    between atoms: C_16  and  C_17
REMARK    6  A    between atoms: C_17  and  C_18
REMARK    7  A    between atoms: C_21  and  N_24
REMARK                            x       y       z     vdW  Elec       q    Type
REMARK                         _______ _______ _______ _____ _____    ______ ____
ROOT
ATOM      1  C   UNL     1      -0.136   8.335  -2.560  0.00  0.00    +0.260 C 
ATOM      2  O   UNL     1      -0.138   7.732  -3.617  0.00  0.00    -0.269 OA
ATOM      3  N   UNL     1      -0.116   7.654  -1.397  0.00  0.00    -0.310 N 
ATOM      4  H   UNL     1      -0.114   8.198  -0.441  0.00  0.00    +0.149 HD
ENDROOT
BRANCH   1   8
ATOM      5  N   UNL     1      -0.178  11.906  -1.755  0.00  0.00    -0.212 N 
ATOM      6  C   UNL     1      -0.195  12.110  -3.212  0.00  0.00    +0.189 C 
ATOM      7  C   UNL     1      -0.180  10.678  -3.780  0.00  0.00    +0.096 C 
ATOM      8  C   UNL     1      -0.156   9.797  -2.551  0.00  0.00    +0.123 C 
ATOM      9  N   UNL     1      -0.162  10.539  -1.490  0.00  0.00    -0.178 NA
BRANCH   5  13
ATOM     10  C   UNL     1      -0.196  14.926   1.111  0.00  0.00    +0.000 A 
ATOM     11  C   UNL     1      -0.173  13.601   1.506  0.00  0.00    +0.002 A 
ATOM     12  C   UNL     1      -0.167  12.597   0.558  0.00  0.00    +0.025 A 
ATOM     13  C   UNL     1      -0.185  12.919  -0.794  0.00  0.00    +0.052 A 
ATOM     14  C   UNL     1      -0.202  14.252  -1.187  0.00  0.00    +0.025 A 
ATOM     15  C   UNL     1      -0.213  15.251  -0.233  0.00  0.00    +0.002 A 
ENDBRANCH   5  13
BRANCH   6  16
ATOM     16  C   UNL     1       1.028  12.870  -3.658  0.00  0.00    +0.233 C 
ATOM     17  O   UNL     1       1.972  12.995  -2.906  0.00  0.00    -0.274 OA
ATOM     18  N   UNL     1       1.073  13.410  -4.891  0.00  0.00    -0.328 N 
ATOM     19  H   UNL     1       1.965  13.965  -5.217  0.00  0.00    +0.145 HD
ATOM     20  H   UNL     1       0.217  13.297  -5.573  0.00  0.00    +0.145 HD
ENDBRANCH   6  16
ENDBRANCH   1   8
BRANCH   3  21
ATOM     21  C   UNL     1      -0.096   6.189  -1.405  0.00  0.00    +0.109 C 
BRANCH  21  22
ATOM     22  C   UNL     1      -0.075   5.671   0.034  0.00  0.00    +0.054 C 
BRANCH  22  23
ATOM     23  C   UNL     1      -0.054   4.164   0.025  0.00  0.00    -0.046 A 
ATOM     24  C   UNL     1       1.153   3.490   0.010  0.00  0.00    +0.006 A 
ATOM     25  C   UNL     1       1.175   2.110   0.002  0.00  0.00    +0.028 A 
ATOM     26  C   UNL     1      -0.017   1.398   0.010  0.00  0.00    +0.065 A 
ATOM     27  C   UNL     1      -1.228   2.077   0.019  0.00  0.00    +0.028 A 
ATOM     28  C   UNL     1      -1.243   3.458   0.034  0.00  0.00    +0.006 A 
BRANCH  26  29
ATOM     29  N   UNL     1       0.002  -0.004   0.002  0.00  0.00    -0.240 N 
ATOM     30  C   UNL     1      -1.080  -0.815   0.013  0.00  0.00    +0.114 A 
ATOM     31  C   UNL     1      -0.637  -2.093  -0.003  0.00  0.00    +0.041 A 
ATOM     32  C   UNL     1       0.762  -2.064  -0.016  0.00  0.00    +0.135 A 
ATOM     33  N   UNL     1       1.146  -0.813  -0.013  0.00  0.00    -0.175 NA
ENDBRANCH  26  29
ENDBRANCH  22  23
ENDBRANCH  21  22
ENDBRANCH   3  21
TORSDOF 7
