REMARK  Name = ZINC59271035
REMARK  10 active torsions:
REMARK  status: ('A' for Active; 'I' for Inactive)
REMARK    1  A    between atoms: C_1  and  C_2
REMARK    2  A    between atoms: C_7  and  N_8
REMARK    3  A    between atoms: C_9  and  C_26
REMARK    4  A    between atoms: C_11  and  C_14
REMARK    5  A    between atoms: C_12  and  C_13
REMARK    6  A    between atoms: C_14  and  C_16
REMARK    7  A    between atoms: C_16  and  S_17
REMARK    8  A    between atoms: S_17  and  C_18
REMARK    9  A    between atoms: C_20  and  C_25
REMARK   10  A    between atoms: C_22  and  N_24
REMARK                            x       y       z     vdW  Elec       q    Type
REMARK                         _______ _______ _______ _____ _____    ______ ____
ROOT
ATOM      1  N   UNL     1       0.025  -0.013   2.419  0.00  0.00    -0.317 N 
ATOM      2  C   UNL     1      -1.096   0.352   3.111  0.00  0.00    +0.022 A 
ATOM      3  C   UNL     1      -0.731   0.996   4.232  0.00  0.00    +0.034 A 
ATOM      4  C   UNL     1       0.738   1.032   4.231  0.00  0.00    +0.039 A 
ATOM      5  C   UNL     1       1.132   0.382   3.077  0.00  0.00    +0.031 A 
ATOM      6  C   UNL     1       2.554   0.155   2.631  0.00  0.00    +0.064 C 
ATOM      7  C   UNL     1      -2.514   0.075   2.684  0.00  0.00    +0.064 C 
ENDROOT
BRANCH   1  14
ATOM      8  C   UNL     1      -0.018   1.503   0.010  0.00  0.00    +0.046 C 
ATOM      9  C   UNL     1       0.002  -0.004   0.002  0.00  0.00    -0.027 A 
ATOM     10  C   UNL     1       0.006  -0.689  -1.198  0.00  0.00    +0.005 A 
ATOM     11  C   UNL     1       0.024  -2.071  -1.206  0.00  0.00    +0.000 A 
ATOM     12  C   UNL     1       0.039  -2.773  -0.014  0.00  0.00    +0.002 A 
ATOM     13  C   UNL     1       0.036  -2.094   1.188  0.00  0.00    +0.026 A 
ATOM     14  C   UNL     1       0.023  -0.705   1.200  0.00  0.00    +0.049 A 
ENDBRANCH   1  14
BRANCH   4  15
ATOM     15  C   UNL     1       1.606   1.630   5.247  0.00  0.00    +0.175 C 
ATOM     16  O   UNL     1       2.812   1.586   5.117  0.00  0.00    -0.291 OA
BRANCH  15  17
ATOM     17  C   UNL     1       1.002   2.299   6.455  0.00  0.00    +0.157 C 
BRANCH  17  18
ATOM     18  S   UNL     1       2.326   2.935   7.519  0.00  0.00    -0.078 S 
BRANCH  18  19
ATOM     19  C   UNL     1       1.470   3.678   8.868  0.00  0.00    +0.191 A 
ATOM     20  N   UNL     1       2.167   4.252   9.838  0.00  0.00    -0.227 NA
ATOM     21  C   UNL     1       1.558   4.822  10.868  0.00  0.00    +0.044 A 
ATOM     22  C   UNL     1       0.178   4.814  10.927  0.00  0.00    +0.066 A 
ATOM     23  C   UNL     1      -0.529   4.202   9.889  0.00  0.00    +0.121 A 
ATOM     24  N   UNL     1       0.145   3.654   8.884  0.00  0.00    -0.207 NA
ATOM     25  C   UNL     1       2.363   5.470  11.965  0.00  0.00    +0.066 C 
BRANCH  23  26
ATOM     26  N   UNL     1      -1.914   4.170   9.906  0.00  0.00    -0.343 N 
ATOM     27  H   UNL     1      -2.400   4.575  10.642  0.00  0.00    +0.144 HD
ATOM     28  H   UNL     1      -2.399   3.743   9.183  0.00  0.00    +0.144 HD
ENDBRANCH  23  26
ENDBRANCH  18  19
ENDBRANCH  17  18
ENDBRANCH  15  17
ENDBRANCH   4  15
TORSDOF 6
