REMARK  Name = ZINC01760101
REMARK  11 active torsions:
REMARK  status: ('A' for Active; 'I' for Inactive)
REMARK    1  A    between atoms: C_1  and  C_2
REMARK    2  A    between atoms: C_6  and  C_29
REMARK    3  A    between atoms: C_6  and  C_30
REMARK    4  A    between atoms: C_13  and  C_15
REMARK    5  A    between atoms: C_15  and  C_16
REMARK    6  A    between atoms: C_16  and  C_17
REMARK    7  A    between atoms: C_21  and  C_22
REMARK    8  A    between atoms: C_22  and  N_74
REMARK    9  A    between atoms: C_23  and  N_74
REMARK   10  A    between atoms: C_30  and  O_32
REMARK   11  A    between atoms: O_32  and  C_33
REMARK                            x       y       z     vdW  Elec       q    Type
REMARK                         _______ _______ _______ _____ _____    ______ ____
ROOT
ATOM      1  C   UNL     1       3.393  -0.529  -0.313  0.00  0.00    +0.012 C 
ATOM      2  C   UNL     1       2.587   0.159  -1.428  0.00  0.00    -0.022 C 
ATOM      3  C   UNL     1       1.153  -0.368  -1.384  0.00  0.00    +0.007 C 
ATOM      4  C   UNL     1       0.487   0.069  -0.077  0.00  0.00    +0.002 C 
ATOM      5  C   UNL     1       0.408   1.591  -0.045  0.00  0.00    +0.018 C 
ATOM      6  C   UNL     1       1.791   2.231  -0.141  0.00  0.00    +0.068 C 
ATOM      7  C   UNL     1       2.616   1.671  -1.286  0.00  0.00    +0.012 C 
ATOM      8  C   UNL     1       4.057   2.183  -1.234  0.00  0.00    +0.009 C 
ATOM      9  C   UNL     1       4.746   1.864  -2.569  0.00  0.00    +0.031 C 
ATOM     10  C   UNL     1       4.610   0.384  -2.843  0.00  0.00    -0.073 C 
ATOM     11  C   UNL     1       5.661  -0.338  -3.153  0.00  0.00    +0.008 C 
ATOM     12  C   UNL     1       3.239  -0.250  -2.760  0.00  0.00    +0.021 C 
ATOM     13  C   UNL     1       2.507   2.124   1.204  0.00  0.00    +0.023 C 
ENDROOT
BRANCH   6  14
ATOM     14  C   UNL     1       1.561   3.715  -0.410  0.00  0.00    +0.313 C 
ATOM     15  O   UNL     1       1.999   4.222  -1.416  0.00  0.00    -0.250 OA
BRANCH  14  16
ATOM     16  O   UNL     1       0.872   4.458   0.470  0.00  0.00    -0.468 OA
ATOM     17  C   UNL     1       0.691   5.862   0.149  0.00  0.00    +0.280 C 
ENDBRANCH  14  16
ENDBRANCH   6  14
BRANCH  12  18
ATOM     18  C   UNL     1       2.400   0.178  -3.959  0.00  0.00    +0.013 C 
BRANCH  18  19
ATOM     19  C   UNL     1       3.032  -0.363  -5.243  0.00  0.00    +0.039 C 
BRANCH  19  20
ATOM     20  C   UNL     1       2.203   0.060  -6.428  0.00  0.00    -0.008 A 
ATOM     21  C   UNL     1       1.190  -0.697  -7.061  0.00  0.00    +0.045 A 
ATOM     22  C   UNL     1       0.710   0.057  -8.066  0.00  0.00    +0.195 A 
ATOM     23  O   UNL     1       1.381   1.220  -8.081  0.00  0.00    -0.469 OA
ATOM     24  C   UNL     1       2.288   1.228  -7.090  0.00  0.00    +0.091 A 
BRANCH  24  25
ATOM     25  C   UNL     1       3.238   2.354  -6.773  0.00  0.00    -0.006 C 
BRANCH  25  26
ATOM     26  N   UNL     1       4.488   2.159  -7.531  0.00  0.00    +0.386 N 
ATOM     27  H   UNL     1       4.278   2.152  -8.536  0.00  0.00    -0.085 HD
ATOM     28  H   UNL     1       4.910   1.261  -7.264  0.00  0.00    -0.085 HD
BRANCH  26  29
ATOM     29  C   UNL     1       5.439   3.248  -7.240  0.00  0.00    -0.071 C 
ATOM     30  C   UNL     1       5.145   4.440  -8.153  0.00  0.00    -0.016 C 
ATOM     31  C   UNL     1       6.137   5.566  -7.857  0.00  0.00    -0.002 C 
ATOM     32  C   UNL     1       7.562   5.070  -8.109  0.00  0.00    -0.000 C 
ATOM     33  C   UNL     1       7.856   3.878  -7.196  0.00  0.00    -0.002 C 
ATOM     34  C   UNL     1       6.864   2.752  -7.492  0.00  0.00    -0.016 C 
ENDBRANCH  26  29
ENDBRANCH  25  26
ENDBRANCH  24  25
ENDBRANCH  19  20
ENDBRANCH  18  19
ENDBRANCH  12  18
TORSDOF 8
