REMARK  Name = ZINC40004239
REMARK  5 active torsions:
REMARK  status: ('A' for Active; 'I' for Inactive)
REMARK    1  A    between atoms: C_4  and  O_30
REMARK    2  A    between atoms: C_5  and  C_7
REMARK    3  A    between atoms: N_9  and  N_10
REMARK    4  A    between atoms: C_14  and  C_15
REMARK    5  A    between atoms: C_18  and  C_20
REMARK                            x       y       z     vdW  Elec       q    Type
REMARK                         _______ _______ _______ _____ _____    ______ ____
ROOT
ATOM      1  N   UNL     1       0.121  -4.255  -0.023  0.00  0.00    -0.169 N 
ATOM      2  C   UNL     1      -0.170  -4.905  -1.136  0.00  0.00    +0.275 C 
ATOM      3  O   UNL     1      -0.461  -4.305  -2.155  0.00  0.00    -0.267 OA
ATOM      4  C   UNL     1      -0.134  -6.333  -1.108  0.00  0.00    +0.082 C 
ATOM      5  C   UNL     1      -0.389  -7.228  -2.107  0.00  0.00    +0.066 C 
ATOM      6  S   UNL     1       0.338  -6.628   0.591  0.00  0.00    -0.059 S 
ATOM      7  C   UNL     1       0.449  -4.922   1.106  0.00  0.00    +0.138 C 
ATOM      8  S   UNL     1       0.864  -4.290   2.643  0.00  0.00    -0.026 S 
ENDROOT
BRANCH   5   9
ATOM      9  C   UNL     1      -0.291  -8.613  -1.855  0.00  0.00    +0.130 A 
ATOM     10  C   UNL     1      -0.516  -9.622  -2.775  0.00  0.00    +0.050 A 
ATOM     11  C   UNL     1      -0.311 -10.831  -2.106  0.00  0.00    +0.050 A 
ATOM     12  C   UNL     1       0.030 -10.520  -0.809  0.00  0.00    +0.136 A 
ATOM     13  O   UNL     1       0.043  -9.181  -0.678  0.00  0.00    -0.455 OA
BRANCH  12  14
ATOM     14  C   UNL     1       0.337 -11.493   0.258  0.00  0.00    +0.017 A 
ATOM     15  C   UNL     1       0.300 -12.864  -0.011  0.00  0.00    +0.014 A 
ATOM     16  C   UNL     1       0.588 -13.767   0.990  0.00  0.00    +0.039 A 
ATOM     17  C   UNL     1       0.913 -13.319   2.260  0.00  0.00    +0.123 A 
ATOM     18  C   UNL     1       0.951 -11.960   2.533  0.00  0.00    +0.039 A 
ATOM     19  C   UNL     1       0.671 -11.046   1.539  0.00  0.00    +0.014 A 
ATOM     20  F   UNL     1       1.194 -14.209   3.237  0.00  0.00    -0.205 F 
ENDBRANCH  12  14
ENDBRANCH   5   9
BRANCH   1  23
ATOM     21  C   UNL     1       1.250  -2.159  -0.022  0.00  0.00    +0.264 C 
ATOM     22  O   UNL     1       2.314  -2.748  -0.035  0.00  0.00    -0.269 OA
ATOM     23  N   UNL     1       0.095  -2.855  -0.015  0.00  0.00    -0.222 N 
ATOM     24  H   UNL     1      -0.754  -2.385  -0.004  0.00  0.00    +0.174 HD
BRANCH  21  29
ATOM     25  C   UNL     1      -0.017   1.374   0.010  0.00  0.00    +0.001 A 
ATOM     26  C   UNL     1       1.170   2.089   0.002  0.00  0.00    +0.004 A 
ATOM     27  C   UNL     1       2.383   1.429  -0.013  0.00  0.00    +0.046 A 
ATOM     28  C   UNL     1       2.420   0.043  -0.021  0.00  0.00    +0.129 A 
ATOM     29  C   UNL     1       1.222  -0.684  -0.013  0.00  0.00    +0.079 A 
ATOM     30  C   UNL     1       0.002  -0.004   0.002  0.00  0.00    +0.017 A 
BRANCH  28  31
ATOM     31  O   UNL     1       3.611  -0.606  -0.036  0.00  0.00    -0.506 OA
ATOM     32  H   UNL     1       3.965  -0.799   0.843  0.00  0.00    +0.292 HD
ENDBRANCH  28  31
ENDBRANCH  21  29
ENDBRANCH   1  23
TORSDOF 5
