REMARK  Name = ZINC13638215
REMARK  9 active torsions:
REMARK  status: ('A' for Active; 'I' for Inactive)
REMARK    1  A    between atoms: C_1  and  N_2
REMARK    2  A    between atoms: N_2  and  C_3
REMARK    3  A    between atoms: N_2  and  C_4
REMARK    4  A    between atoms: C_4  and  C_5
REMARK    5  A    between atoms: C_5  and  C_6
REMARK    6  A    between atoms: C_6  and  N_7
REMARK    7  A    between atoms: C_12  and  C_25
REMARK    8  A    between atoms: C_28  and  S_31
REMARK    9  A    between atoms: S_31  and  C_32
REMARK                            x       y       z     vdW  Elec       q    Type
REMARK                         _______ _______ _______ _____ _____    ______ ____
ROOT
ATOM      1  N   UNL     1      -2.683  -4.071  -0.485  0.00  0.00    -0.271 NA
ATOM      2  C   UNL     1      -2.221  -4.356  -1.855  0.00  0.00    +0.193 C 
ATOM      3  N   UNL     1      -2.090  -5.815  -2.004  0.00  0.00    -0.304 N 
ATOM      4  C   UNL     1      -3.145  -6.598  -1.575  0.00  0.00    +0.189 C 
ATOM      5  N   UNL     1      -3.376  -7.755  -2.114  0.00  0.00    -0.225 NA
ATOM      6  C   UNL     1      -4.539  -8.570  -1.736  0.00  0.00    +0.241 C 
ATOM      7  N   UNL     1      -4.865  -8.297  -0.333  0.00  0.00    -0.284 N 
ATOM      8  C   UNL     1      -5.462  -9.053   0.625  0.00  0.00    +0.072 A 
ATOM      9  C   UNL     1      -5.947 -10.357   0.642  0.00  0.00    +0.028 A 
ATOM     10  C   UNL     1      -6.510 -10.807   1.824  0.00  0.00    +0.002 A 
ATOM     11  C   UNL     1      -6.596 -10.006   2.949  0.00  0.00    +0.002 A 
ATOM     12  C   UNL     1      -6.120  -8.707   2.961  0.00  0.00    +0.030 A 
ATOM     13  C   UNL     1      -5.545  -8.230   1.778  0.00  0.00    +0.091 A 
ATOM     14  N   UNL     1      -4.993  -7.039   1.466  0.00  0.00    -0.214 NA
ATOM     15  C   UNL     1      -4.572  -7.068   0.238  0.00  0.00    +0.209 A 
ATOM     16  N   UNL     1      -3.916  -6.119  -0.526  0.00  0.00    -0.230 N 
ATOM     17  C   UNL     1      -3.997  -4.692  -0.249  0.00  0.00    +0.204 C 
ATOM     18  H   UNL     1      -1.177  -6.243  -2.443  0.00  0.00    +0.150 HD
ENDROOT
BRANCH   6  19
ATOM     19  C   UNL     1      -5.715  -8.210  -2.608  0.00  0.00    -0.003 A 
ATOM     20  C   UNL     1      -5.952  -6.887  -2.934  0.00  0.00    +0.008 A 
ATOM     21  C   UNL     1      -7.025  -6.554  -3.737  0.00  0.00    +0.015 A 
ATOM     22  C   UNL     1      -7.873  -7.549  -4.208  0.00  0.00    +0.008 A 
ATOM     23  C   UNL     1      -7.635  -8.877  -3.874  0.00  0.00    +0.015 A 
ATOM     24  C   UNL     1      -6.556  -9.203  -3.075  0.00  0.00    +0.008 A 
BRANCH  22  25
ATOM     25  S   UNL     1      -9.248  -7.128  -5.227  0.00  0.00    -0.129 S 
ATOM     26  C   UNL     1      -9.143  -5.323  -5.381  0.00  0.00    +0.090 C 
ENDBRANCH  22  25
ENDBRANCH   6  19
BRANCH   1  27
ATOM     27  C   UNL     1      -2.732  -2.624  -0.236  0.00  0.00    +0.085 C 
BRANCH  27  28
ATOM     28  C   UNL     1      -1.311  -2.056  -0.247  0.00  0.00    -0.003 C 
BRANCH  28  29
ATOM     29  C   UNL     1      -1.362  -0.549   0.012  0.00  0.00    -0.078 C 
BRANCH  29  31
ATOM     30  C   UNL     1      -0.018   1.465   0.010  0.00  0.00    -0.097 C 
ATOM     31  N   UNL     1       0.002  -0.004   0.002  0.00  0.00    +0.376 N 
ATOM     32  C   UNL     1       0.786  -0.526   1.129  0.00  0.00    -0.097 C 
ATOM     33  H   UNL     1       0.490  -0.331  -0.928  0.00  0.00    -0.083 HD
ENDBRANCH  29  31
ENDBRANCH  28  29
ENDBRANCH  27  28
ENDBRANCH   1  27
TORSDOF 6
