REMARK  Name = ZINC00684937
REMARK  10 active torsions:
REMARK  status: ('A' for Active; 'I' for Inactive)
REMARK    1  A    between atoms: C_1  and  C_2
REMARK    2  A    between atoms: C_5  and  S_7
REMARK    3  A    between atoms: S_7  and  C_8
REMARK    4  A    between atoms: N_18  and  C_21
REMARK    5  A    between atoms: C_21  and  C_22
REMARK    6  A    between atoms: C_22  and  O_24
REMARK    7  A    between atoms: O_24  and  C_25
REMARK    8  A    between atoms: C_25  and  C_26
REMARK    9  A    between atoms: C_25  and  C_27
REMARK   10  A    between atoms: C_25  and  C_28
REMARK                            x       y       z     vdW  Elec       q    Type
REMARK                         _______ _______ _______ _____ _____    ______ ____
ROOT
ATOM      1  C   UNL     1       0.002  -0.004   0.002  0.00  0.00    +0.142 C 
ATOM      2  C   UNL     1       0.248  -0.530  -1.412  0.00  0.00    +0.029 C 
ATOM      3  C   UNL     1       1.355   0.292  -2.078  0.00  0.00    +0.038 C 
ATOM      4  C   UNL     1       2.481   0.532  -1.109  0.00  0.00    -0.026 A 
ATOM      5  C   UNL     1       3.653  -0.193  -1.209  0.00  0.00    +0.005 A 
ATOM      6  C   UNL     1       4.688   0.042  -0.323  0.00  0.00    +0.000 A 
ATOM      7  C   UNL     1       4.556   1.002   0.664  0.00  0.00    +0.002 A 
ATOM      8  C   UNL     1       3.384   1.727   0.772  0.00  0.00    +0.024 A 
ATOM      9  C   UNL     1       2.343   1.487  -0.113  0.00  0.00    +0.040 A 
ATOM     10  N   UNL     1       1.136   2.191   0.003  0.00  0.00    -0.260 N 
ATOM     11  C   UNL     1      -0.018   1.499   0.010  0.00  0.00    +0.234 C 
ATOM     12  O   UNL     1      -1.078   2.090   0.018  0.00  0.00    -0.274 OA
ENDROOT
BRANCH   1  13
ATOM     13  S   UNL     1      -1.589  -0.626   0.602  0.00  0.00    -0.053 S 
BRANCH  13  18
ATOM     14  C   UNL     1      -2.752   0.462   5.641  0.00  0.00    +0.111 C 
ATOM     15  C   UNL     1      -2.037   0.387   4.316  0.00  0.00    +0.215 A 
ATOM     16  N   UNL     1      -0.872   0.898   4.042  0.00  0.00    -0.112 NA
ATOM     17  N   UNL     1      -0.566   0.639   2.819  0.00  0.00    -0.101 NA
ATOM     18  C   UNL     1      -1.538  -0.043   2.264  0.00  0.00    +0.278 A 
ATOM     19  O   UNL     1      -2.488  -0.220   3.201  0.00  0.00    -0.416 OA
ENDBRANCH  13  18
ENDBRANCH   1  13
BRANCH  10  20
ATOM     20  C   UNL     1       1.131   3.651   0.115  0.00  0.00    +0.234 C 
BRANCH  20  21
ATOM     21  C   UNL     1       1.203   4.045   1.567  0.00  0.00    +0.326 C 
ATOM     22  O   UNL     1       1.253   3.192   2.422  0.00  0.00    -0.249 OA
BRANCH  21  23
ATOM     23  O   UNL     1       1.212   5.342   1.912  0.00  0.00    -0.458 OA
BRANCH  23  24
ATOM     24  C   UNL     1       1.283   5.647   3.330  0.00  0.00    +0.105 C 
ATOM     25  C   UNL     1       2.568   5.057   3.915  0.00  0.00    +0.055 C 
ATOM     26  C   UNL     1       1.282   7.164   3.526  0.00  0.00    +0.055 C 
ATOM     27  C   UNL     1       0.073   5.040   4.043  0.00  0.00    +0.055 C 
ENDBRANCH  23  24
ENDBRANCH  21  23
ENDBRANCH  20  21
ENDBRANCH  10  20
TORSDOF 6
