REMARK  Name = ZINC37060715
REMARK  5 active torsions:
REMARK  status: ('A' for Active; 'I' for Inactive)
REMARK    1  A    between atoms: C_1  and  C_2
REMARK    2  A    between atoms: C_2  and  C_4
REMARK    3  A    between atoms: C_2  and  N_12
REMARK    4  A    between atoms: N_12  and  C_13
REMARK    5  A    between atoms: C_17  and  N_19
REMARK                            x       y       z     vdW  Elec       q    Type
REMARK                         _______ _______ _______ _____ _____    ______ ____
ROOT
ATOM      1  N   UNL     1       0.688  -0.476  -1.203  0.00  0.00    -0.337 N 
ATOM      2  H   UNL     1       1.632  -0.695  -1.170  0.00  0.00    +0.147 HD
ENDROOT
BRANCH   1   3
ATOM      3  C   UNL     1      -0.019  -0.613  -2.402  0.00  0.00    +0.030 A 
ATOM      4  C   UNL     1      -1.371  -0.296  -2.452  0.00  0.00    +0.026 A 
ATOM      5  C   UNL     1      -2.067  -0.431  -3.637  0.00  0.00    +0.042 A 
ATOM      6  C   UNL     1      -1.419  -0.883  -4.774  0.00  0.00    +0.154 A 
ATOM      7  C   UNL     1      -0.072  -1.201  -4.726  0.00  0.00    +0.163 A 
ATOM      8  C   UNL     1       0.630  -1.061  -3.545  0.00  0.00    +0.058 A 
ATOM      9  F   UNL     1      -2.102  -1.015  -5.932  0.00  0.00    -0.203 F 
BRANCH   7  10
ATOM     10  N   UNL     1       0.617  -1.685  -5.943  0.00  0.00    +0.059 N 
ATOM     11  O   UNL     1       1.793  -1.962  -5.902  0.00  0.00    -0.126 OA
ATOM     12  O   UNL     1       0.004  -1.803  -6.979  0.00  0.00    -0.126 OA
ENDBRANCH   7  10
ENDBRANCH   1   3
BRANCH   1  14
ATOM     13  C   UNL     1      -0.019   1.526   0.010  0.00  0.00    +0.033 C 
ATOM     14  C   UNL     1       0.002  -0.004   0.002  0.00  0.00    +0.098 C 
BRANCH  14  15
ATOM     15  C   UNL     1       0.731  -0.503   1.223  0.00  0.00    -0.026 A 
ATOM     16  C   UNL     1       2.113  -0.514   1.246  0.00  0.00    +0.007 A 
ATOM     17  C   UNL     1       2.783  -0.972   2.365  0.00  0.00    +0.022 A 
ATOM     18  C   UNL     1       2.070  -1.420   3.463  0.00  0.00    +0.059 A 
ATOM     19  C   UNL     1       0.686  -1.409   3.440  0.00  0.00    +0.060 A 
ATOM     20  C   UNL     1       0.017  -0.945   2.321  0.00  0.00    +0.027 A 
ATOM     21 CL   UNL     1      -0.210  -1.971   4.816  0.00  0.00    -0.082 Cl
ATOM     22 CL   UNL     1       2.911  -1.996   4.868  0.00  0.00    -0.082 Cl
ENDBRANCH  14  15
ENDBRANCH   1  14
TORSDOF 4
