REMARK  Name = ZINC09123791
REMARK  5 active torsions:
REMARK  status: ('A' for Active; 'I' for Inactive)
REMARK    1  A    between atoms: C_1  and  C_2
REMARK    2  A    between atoms: C_2  and  C_3
REMARK    3  A    between atoms: N_24  and  C_27
REMARK    4  A    between atoms: C_32  and  O_33
REMARK    5  A    between atoms: O_33  and  C_34
REMARK                            x       y       z     vdW  Elec       q    Type
REMARK                         _______ _______ _______ _____ _____    ______ ____
ROOT
ATOM      1  C   UNL     1       0.338  -4.861  -0.911  0.00  0.00    -0.026 A 
ATOM      2  C   UNL     1      -0.916  -4.899  -0.335  0.00  0.00    +0.005 A 
ATOM      3  C   UNL     1      -1.374  -3.830   0.412  0.00  0.00    +0.001 A 
ATOM      4  C   UNL     1      -0.571  -2.715   0.583  0.00  0.00    +0.004 A 
ATOM      5  C   UNL     1       0.679  -2.674   0.010  0.00  0.00    -0.027 A 
ATOM      6  C   UNL     1       1.151  -3.744  -0.744  0.00  0.00    +0.039 A 
ATOM      7  N   UNL     1       2.436  -3.471  -1.219  0.00  0.00    -0.286 N 
ATOM      8  C   UNL     1       2.875  -2.259  -0.827  0.00  0.00    +0.212 C 
ATOM      9  O   UNL     1       3.949  -1.759  -1.089  0.00  0.00    -0.277 OA
ATOM     10  C   UNL     1       1.777  -1.646  -0.002  0.00  0.00    +0.053 C 
ATOM     11  C   UNL     1       2.285  -1.341   1.397  0.00  0.00    +0.089 C 
ATOM     12  C   UNL     1       2.599   0.180   1.383  0.00  0.00    +0.074 C 
ATOM     13  C   UNL     1       2.266   0.647  -0.045  0.00  0.00    -0.054 C 
ATOM     14  C   UNL     1       0.002  -0.004   0.002  0.00  0.00    -0.076 C 
ATOM     15  C   UNL     1      -0.019   1.538   0.011  0.00  0.00    -0.020 C 
ATOM     16  C   UNL     1       1.463   1.960  -0.001  0.00  0.00    -0.016 C 
ATOM     17  C   UNL     1       1.596   0.767   2.350  0.00  0.00    +0.229 C 
ATOM     18  O   UNL     1       1.501   1.942   2.634  0.00  0.00    -0.275 OA
ATOM     19  N   UNL     1       0.829  -0.234   2.838  0.00  0.00    -0.206 N 
ATOM     20  C   UNL     1       1.135  -1.451   2.373  0.00  0.00    +0.230 C 
ATOM     21  O   UNL     1       0.577  -2.481   2.686  0.00  0.00    -0.275 OA
ATOM     22  H   UNL     1       2.953  -4.083  -1.766  0.00  0.00    +0.155 HD
ATOM     23  N   UNL     1       1.338  -0.350  -0.527  0.00  0.00    +0.395 N 
ATOM     24  H   UNL     1       1.320  -0.369  -1.554  0.00  0.00    -0.079 HD
ENDROOT
BRANCH  19  25
ATOM     25  C   UNL     1      -0.203  -0.013   3.763  0.00  0.00    +0.087 A 
ATOM     26  C   UNL     1       0.062  -0.058   5.124  0.00  0.00    +0.047 A 
ATOM     27  C   UNL     1      -0.955   0.166   6.034  0.00  0.00    +0.043 A 
ATOM     28  C   UNL     1      -2.240   0.423   5.590  0.00  0.00    +0.024 A 
ATOM     29  C   UNL     1      -2.512   0.465   4.235  0.00  0.00    +0.049 A 
ATOM     30  C   UNL     1      -1.497   0.247   3.318  0.00  0.00    +0.142 A 
ATOM     31 CL   UNL     1      -0.620   0.115   7.737  0.00  0.00    -0.083 Cl
BRANCH  30  32
ATOM     32  O   UNL     1      -1.763   0.286   1.985  0.00  0.00    -0.493 OA
ATOM     33  C   UNL     1      -3.112   0.558   1.601  0.00  0.00    +0.277 C 
ENDBRANCH  30  32
ENDBRANCH  19  25
BRANCH   1  35
ATOM     34  C   UNL     1       1.663  -6.956  -0.835  0.00  0.00    +0.009 C 
ATOM     35  C   UNL     1       0.827  -6.033  -1.723  0.00  0.00    +0.033 C 
ENDBRANCH   1  35
TORSDOF 3
