REMARK  Name = ZINC53113313
REMARK  8 active torsions:
REMARK  status: ('A' for Active; 'I' for Inactive)
REMARK    1  A    between atoms: C_1  and  C_2
REMARK    2  A    between atoms: C_4  and  N_22
REMARK    3  A    between atoms: C_6  and  S_8
REMARK    4  A    between atoms: S_8  and  N_11
REMARK    5  A    between atoms: N_11  and  C_12
REMARK    6  A    between atoms: C_12  and  C_20
REMARK    7  A    between atoms: C_16  and  C_19
REMARK    8  A    between atoms: C_20  and  O_21
REMARK                            x       y       z     vdW  Elec       q    Type
REMARK                         _______ _______ _______ _____ _____    ______ ____
ROOT
ATOM      1  S   UNL     1       1.331  -4.283   1.813  0.00  0.00    +0.059 S 
ATOM      2  O   UNL     1       0.752  -3.278   0.993  0.00  0.00    -0.153 OA
ATOM      3  O   UNL     1       0.784  -5.590   1.917  0.00  0.00    -0.153 OA
ENDROOT
BRANCH   1   9
ATOM      4  C   UNL     1       5.601  -2.491  -0.611  0.00  0.00    +0.044 C 
ATOM      5  C   UNL     1       4.926  -3.605   0.147  0.00  0.00    -0.047 A 
ATOM      6  C   UNL     1       5.614  -4.772   0.415  0.00  0.00    +0.026 A 
ATOM      7  C   UNL     1       4.992  -5.798   1.115  0.00  0.00    +0.027 A 
ATOM      8  C   UNL     1       3.679  -5.646   1.542  0.00  0.00    +0.051 A 
ATOM      9  C   UNL     1       2.997  -4.477   1.271  0.00  0.00    +0.107 A 
ATOM     10  C   UNL     1       3.621  -3.455   0.579  0.00  0.00    +0.032 A 
BRANCH   7  11
ATOM     11  N   UNL     1       5.685  -6.980   1.387  0.00  0.00    -0.358 N 
ATOM     12  H   UNL     1       6.601  -7.085   1.088  0.00  0.00    +0.142 HD
ATOM     13  H   UNL     1       5.249  -7.696   1.876  0.00  0.00    +0.142 HD
ENDBRANCH   7  11
ENDBRANCH   1   9
BRANCH   1  14
ATOM     14  N   UNL     1       1.385  -3.668   3.349  0.00  0.00    -0.182 NA
ATOM     15  H   UNL     1       1.012  -4.176   4.088  0.00  0.00    +0.149 HD
BRANCH  14  16
ATOM     16  C   UNL     1       1.994  -2.359   3.594  0.00  0.00    +0.063 C 
ATOM     17  C   UNL     1       1.449  -1.779   4.901  0.00  0.00    +0.026 C 
ATOM     18  C   UNL     1       1.788  -2.722   6.057  0.00  0.00    +0.002 C 
ATOM     19  C   UNL     1       3.306  -2.877   6.161  0.00  0.00    +0.003 C 
ATOM     20  C   UNL     1       3.850  -3.457   4.854  0.00  0.00    -0.012 C 
ATOM     21  C   UNL     1       3.512  -2.514   3.698  0.00  0.00    +0.029 C 
ATOM     22  C   UNL     1       3.214  -4.825   4.599  0.00  0.00    +0.007 C 
BRANCH  16  23
ATOM     23  C   UNL     1       1.655  -1.415   2.438  0.00  0.00    +0.179 C 
BRANCH  23  24
ATOM     24  O   UNL     1       0.236  -1.288   2.326  0.00  0.00    -0.393 OA
ATOM     25  H   UNL     1      -0.053  -0.764   1.567  0.00  0.00    +0.209 HD
ENDBRANCH  23  24
ENDBRANCH  16  23
ENDBRANCH  14  16
ENDBRANCH   1  14
TORSDOF 6
