REMARK  Name = ZINC39377037
REMARK  4 active torsions:
REMARK  status: ('A' for Active; 'I' for Inactive)
REMARK    1  A    between atoms: C_1  and  C_2
REMARK    2  A    between atoms: C_9  and  C_15
REMARK    3  A    between atoms: C_11  and  O_14
REMARK    4  A    between atoms: C_12  and  O_13
REMARK                            x       y       z     vdW  Elec       q    Type
REMARK                         _______ _______ _______ _____ _____    ______ ____
ROOT
ATOM      1  C   UNL     1      -0.240   1.499   0.042  0.00  0.00    +0.045 C 
ATOM      2  C   UNL     1      -0.214  -0.007   0.033  0.00  0.00    -0.032 A 
ATOM      3  C   UNL     1      -0.411  -0.701  -1.118  0.00  0.00    +0.096 A 
ATOM      4  C   UNL     1      -0.381  -2.113  -1.098  0.00  0.00    +0.338 A 
ATOM      5  O   UNL     1      -0.558  -2.726  -2.136  0.00  0.00    -0.245 OA
ATOM      6  O   UNL     1      -0.163  -2.796   0.036  0.00  0.00    -0.418 OA
ATOM      7  C   UNL     1       0.039  -2.163   1.212  0.00  0.00    +0.185 A 
ATOM      8  C   UNL     1       0.028  -0.762   1.263  0.00  0.00    +0.038 A 
ATOM      9  C   UNL     1       0.244  -0.099   2.492  0.00  0.00    +0.078 A 
ATOM     10  C   UNL     1       0.472  -0.847   3.645  0.00  0.00    +0.065 A 
ATOM     11  C   UNL     1       0.486  -2.233   3.584  0.00  0.00    +0.163 A 
ATOM     12  C   UNL     1       0.264  -2.893   2.380  0.00  0.00    +0.202 A 
ENDROOT
BRANCH   9  13
ATOM     13  C   UNL     1       0.229   1.371   2.553  0.00  0.00    +0.387 C 
ATOM     14  O   UNL     1       1.265   2.001   2.385  0.00  0.00    -0.241 OA
ATOM     15  O   UNL     1      -0.819   1.964   2.772  0.00  0.00    -0.241 OA
ENDBRANCH   9  13
BRANCH  12  16
ATOM     16  O   UNL     1       0.280  -4.250   2.339  0.00  0.00    -0.501 OA
ATOM     17  H   UNL     1       1.154  -4.628   2.169  0.00  0.00    +0.292 HD
ENDBRANCH  12  16
BRANCH  11  18
ATOM     18  O   UNL     1       0.710  -2.953   4.715  0.00  0.00    -0.503 OA
ATOM     19  H   UNL     1      -0.094  -3.178   5.203  0.00  0.00    +0.292 HD
ENDBRANCH  11  18
TORSDOF 3
