REMARK  Name = ZINC16625051
REMARK  8 active torsions:
REMARK  status: ('A' for Active; 'I' for Inactive)
REMARK    1  A    between atoms: C_1  and  C_2
REMARK    2  A    between atoms: C_2  and  C_3
REMARK    3  A    between atoms: N_5  and  C_6
REMARK    4  A    between atoms: C_8  and  C_13
REMARK    5  A    between atoms: C_11  and  C_12
REMARK    6  A    between atoms: N_18  and  C_20
REMARK    7  A    between atoms: C_20  and  C_22
REMARK    8  A    between atoms: C_20  and  C_23
REMARK                            x       y       z     vdW  Elec       q    Type
REMARK                         _______ _______ _______ _____ _____    ______ ____
ROOT
ATOM      1  C   UNL     1      -3.324   7.019   1.475  0.00  0.00    +0.092 A 
ATOM      2  C   UNL     1      -3.224   8.082   0.548  0.00  0.00    +0.035 A 
ATOM      3  C   UNL     1      -2.372   7.941  -0.507  0.00  0.00    +0.074 A 
ATOM      4  C   UNL     1      -1.640   6.737  -0.609  0.00  0.00    +0.268 A 
ATOM      5  O   UNL     1      -0.865   6.565  -1.536  0.00  0.00    -0.266 OA
ATOM      6  N   UNL     1      -1.803   5.780   0.324  0.00  0.00    -0.217 N 
ATOM      7  N   UNL     1      -2.614   5.928   1.309  0.00  0.00    -0.168 NA
ENDROOT
BRANCH   1  10
ATOM      8  C   UNL     1      -5.853   8.390   3.902  0.00  0.00    +0.037 A 
ATOM      9  C   UNL     1      -4.995   8.290   2.817  0.00  0.00    +0.033 A 
ATOM     10  C   UNL     1      -4.240   7.134   2.636  0.00  0.00    +0.004 A 
ATOM     11  C   UNL     1      -4.342   6.089   3.553  0.00  0.00    +0.010 A 
ATOM     12  C   UNL     1      -5.194   6.198   4.633  0.00  0.00    +0.006 A 
ATOM     13  C   UNL     1      -5.948   7.343   4.811  0.00  0.00    -0.029 A 
ATOM     14  C   UNL     1      -6.876   7.456   5.993  0.00  0.00    +0.045 C 
BRANCH   8  17
ATOM     15  C   UNL     1      -6.843  10.378   3.048  0.00  0.00    +0.217 C 
ATOM     16  O   UNL     1      -6.458  10.079   1.938  0.00  0.00    -0.275 OA
ATOM     17  N   UNL     1      -6.618   9.547   4.086  0.00  0.00    -0.285 N 
ATOM     18  H   UNL     1      -6.987   9.751   4.959  0.00  0.00    +0.155 HD
BRANCH  15  20
ATOM     19  C   UNL     1      -7.693  12.426   1.939  0.00  0.00    +0.013 C 
ATOM     20  C   UNL     1      -7.572  11.678   3.268  0.00  0.00    +0.093 C 
ENDBRANCH  15  20
ENDBRANCH   8  17
ENDBRANCH   1  10
BRANCH   6  21
ATOM     21  C   UNL     1      -1.040   4.535   0.209  0.00  0.00    +0.194 C 
ATOM     22  C   UNL     1      -0.162   4.360   1.450  0.00  0.00    +0.043 C 
BRANCH  21  23
ATOM     23  C   UNL     1      -1.991   3.372   0.098  0.00  0.00    +0.244 C 
ATOM     24  O   UNL     1      -3.158   3.511   0.396  0.00  0.00    -0.273 OA
ATOM     25  N   UNL     1      -1.544   2.175  -0.332  0.00  0.00    -0.269 N 
ATOM     26  C   UNL     1      -0.187   1.911  -0.819  0.00  0.00    +0.118 C 
ATOM     27  C   UNL     1      -0.174   0.418  -1.186  0.00  0.00    +0.056 C 
ATOM     28  C   UNL     1      -1.570  -0.066  -0.863  0.00  0.00    -0.024 A 
ATOM     29  C   UNL     1      -2.304   1.002  -0.372  0.00  0.00    +0.040 A 
ATOM     30  C   UNL     1      -3.635   0.798  -0.003  0.00  0.00    +0.024 A 
ATOM     31  C   UNL     1      -4.207  -0.451  -0.127  0.00  0.00    +0.002 A 
ATOM     32  C   UNL     1      -3.466  -1.510  -0.618  0.00  0.00    +0.000 A 
ATOM     33  C   UNL     1      -2.147  -1.315  -0.986  0.00  0.00    +0.005 A 
ENDBRANCH  21  23
ENDBRANCH   6  21
TORSDOF 5
