REMARK  Name = ZINC58846347
REMARK  8 active torsions:
REMARK  status: ('A' for Active; 'I' for Inactive)
REMARK    1  A    between atoms: C_1  and  C_2
REMARK    2  A    between atoms: C_5  and  C_36
REMARK    3  A    between atoms: C_6  and  N_8
REMARK    4  A    between atoms: N_8  and  S_9
REMARK    5  A    between atoms: S_9  and  C_12
REMARK    6  A    between atoms: C_25  and  C_28
REMARK    7  A    between atoms: C_33  and  O_34
REMARK    8  A    between atoms: O_34  and  C_35
REMARK                            x       y       z     vdW  Elec       q    Type
REMARK                         _______ _______ _______ _____ _____    ______ ____
ROOT
ATOM      1  C   UNL     1      -2.418  -2.142   3.447  0.00  0.00    +0.109 A 
ATOM      2  C   UNL     1      -3.053  -1.073   2.841  0.00  0.00    +0.030 A 
ATOM      3  C   UNL     1      -4.417  -1.111   2.639  0.00  0.00    +0.025 A 
ATOM      4  C   UNL     1      -5.152  -2.223   3.039  0.00  0.00    +0.031 A 
ATOM      5  C   UNL     1      -4.515  -3.301   3.635  0.00  0.00    -0.018 A 
ATOM      6  C   UNL     1      -3.143  -3.250   3.836  0.00  0.00    +0.034 A 
ATOM      7  C   UNL     1      -5.263  -4.526   4.041  0.00  0.00    +0.049 C 
ATOM      8  C   UNL     1      -5.482  -4.588   5.531  0.00  0.00    -0.023 C 
ATOM      9  C   UNL     1      -6.651  -5.116   5.796  0.00  0.00    -0.030 C 
ATOM     10  C   UNL     1      -7.382  -5.475   4.521  0.00  0.00    +0.033 C 
ATOM     11  C   UNL     1      -6.659  -4.647   3.434  0.00  0.00    +0.029 C 
ATOM     12  C   UNL     1      -7.379  -3.323   3.291  0.00  0.00    +0.108 C 
ATOM     13  N   UNL     1      -6.528  -2.239   2.845  0.00  0.00    -0.336 N 
ATOM     14  H   UNL     1      -6.941  -1.477   2.411  0.00  0.00    +0.147 HD
ENDROOT
BRANCH  12  15
ATOM     15  C   UNL     1      -7.998  -2.968   4.619  0.00  0.00    +0.015 A 
ATOM     16  C   UNL     1      -9.319  -3.283   4.872  0.00  0.00    +0.009 A 
ATOM     17  C   UNL     1      -9.887  -2.958   6.090  0.00  0.00    +0.001 A 
ATOM     18  C   UNL     1      -9.134  -2.317   7.057  0.00  0.00    +0.004 A 
ATOM     19  C   UNL     1      -7.813  -2.001   6.809  0.00  0.00    +0.046 A 
ATOM     20  C   UNL     1      -7.239  -2.331   5.590  0.00  0.00    +0.125 A 
BRANCH  20  21
ATOM     21  O   UNL     1      -5.938  -2.026   5.345  0.00  0.00    -0.495 OA
ATOM     22  C   UNL     1      -5.217  -1.371   6.391  0.00  0.00    +0.277 C 
ENDBRANCH  20  21
ENDBRANCH  12  15
BRANCH   1  23
ATOM     23  S   UNL     1      -0.677  -2.093   3.716  0.00  0.00    +0.072 S 
ATOM     24  O   UNL     1      -0.406  -2.987   4.787  0.00  0.00    -0.150 OA
ATOM     25  O   UNL     1      -0.311  -0.721   3.758  0.00  0.00    -0.150 OA
BRANCH  23  26
ATOM     26  N   UNL     1       0.044  -2.734   2.370  0.00  0.00    -0.216 N 
ATOM     27  H   UNL     1       0.605  -3.522   2.449  0.00  0.00    +0.174 HD
BRANCH  26  33
ATOM     28  C   UNL     1      -0.598   1.320  -0.332  0.00  0.00    +0.044 C 
ATOM     29  C   UNL     1      -0.469  -0.177  -0.219  0.00  0.00    -0.049 A 
ATOM     30  C   UNL     1      -0.548  -0.966  -1.352  0.00  0.00    +0.004 A 
ATOM     31  C   UNL     1      -0.430  -2.340  -1.252  0.00  0.00    +0.005 A 
ATOM     32  C   UNL     1      -0.234  -2.930  -0.019  0.00  0.00    -0.028 A 
ATOM     33  C   UNL     1      -0.154  -2.141   1.122  0.00  0.00    +0.051 A 
ATOM     34  C   UNL     1      -0.267  -0.760   1.017  0.00  0.00    +0.028 A 
ATOM     35  C   UNL     1      -0.107  -4.427   0.089  0.00  0.00    +0.046 C 
ENDBRANCH  26  33
ENDBRANCH  23  26
ENDBRANCH   1  23
TORSDOF 5
