REMARK  Name = ZINC04631757
REMARK  6 active torsions:
REMARK  status: ('A' for Active; 'I' for Inactive)
REMARK    1  A    between atoms: C_1  and  C_2
REMARK    2  A    between atoms: C_8  and  C_22
REMARK    3  A    between atoms: C_10  and  C_18
REMARK    4  A    between atoms: C_10  and  C_20
REMARK    5  A    between atoms: C_11  and  N_17
REMARK    6  A    between atoms: C_12  and  C_15
REMARK                            x       y       z     vdW  Elec       q    Type
REMARK                         _______ _______ _______ _____ _____    ______ ____
ROOT
ATOM      1  C   UNL     1       0.541   1.537   0.528  0.00  0.00    +0.012 C 
ATOM      2  C   UNL     1       0.465   0.013   0.417  0.00  0.00    +0.009 C 
ATOM      3  C   UNL     1      -0.996  -0.424   0.241  0.00  0.00    +0.008 C 
ATOM      4  C   UNL     1      -1.031  -1.945   0.111  0.00  0.00    +0.009 C 
ATOM      5  C   UNL     1      -0.438  -2.628   1.321  0.00  0.00    +0.030 C 
ATOM      6  C   UNL     1      -1.518  -3.107   2.293  0.00  0.00    +0.066 C 
ATOM      7  C   UNL     1      -0.871  -4.004   3.349  0.00  0.00    +0.188 C 
ATOM      8  C   UNL     1       0.325  -3.350   3.972  0.00  0.00    +0.054 C 
ATOM      9  C   UNL     1       1.007  -2.329   3.395  0.00  0.00    +0.074 C 
ATOM     10  C   UNL     1       0.529  -1.786   2.099  0.00  0.00    -0.028 C 
ATOM     11  C   UNL     1       0.986  -0.618   1.682  0.00  0.00    -0.019 C 
ENDROOT
BRANCH   6  12
ATOM     12  C   UNL     1      -2.160  -1.919   2.961  0.00  0.00    -0.041 A 
ATOM     13  C   UNL     1      -3.316  -1.372   2.435  0.00  0.00    +0.004 A 
ATOM     14  C   UNL     1      -3.905  -0.281   3.048  0.00  0.00    +0.000 A 
ATOM     15  C   UNL     1      -3.338   0.262   4.186  0.00  0.00    +0.000 A 
ATOM     16  C   UNL     1      -2.183  -0.286   4.712  0.00  0.00    +0.000 A 
ATOM     17  C   UNL     1      -1.596  -1.379   4.101  0.00  0.00    +0.004 A 
ENDBRANCH   6  12
BRANCH   8  18
ATOM     18  N   UNL     1       0.753  -3.808   5.187  0.00  0.00    -0.358 N 
ATOM     19  H   UNL     1       0.285  -4.537   5.622  0.00  0.00    +0.142 HD
ATOM     20  H   UNL     1       1.525  -3.404   5.613  0.00  0.00    +0.142 HD
ENDBRANCH   8  18
BRANCH   9  21
ATOM     21  C   UNL     1       2.156  -1.769   4.042  0.00  0.00    +0.101 C 
ATOM     22  N   UNL     1       3.067  -1.326   4.554  0.00  0.00    -0.191 NA
ENDBRANCH   9  21
BRANCH   7  23
ATOM     23  C   UNL     1      -0.455  -5.266   2.718  0.00  0.00    +0.091 C 
ATOM     24  N   UNL     1      -0.133  -6.241   2.231  0.00  0.00    -0.194 NA
ENDBRANCH   7  23
BRANCH   7  25
ATOM     25  C   UNL     1      -1.859  -4.297   4.400  0.00  0.00    +0.091 C 
ATOM     26  N   UNL     1      -2.622  -4.524   5.211  0.00  0.00    -0.194 NA
ENDBRANCH   7  25
TORSDOF 5
