REMARK  Name = ZINC09287558
REMARK  5 active torsions:
REMARK  status: ('A' for Active; 'I' for Inactive)
REMARK    1  A    between atoms: C_1  and  C_2
REMARK    2  A    between atoms: C_11  and  C_13
REMARK    3  A    between atoms: N_19  and  C_20
REMARK    4  A    between atoms: C_20  and  C_21
REMARK    5  A    between atoms: C_21  and  C_22
REMARK                            x       y       z     vdW  Elec       q    Type
REMARK                         _______ _______ _______ _____ _____    ______ ____
ROOT
ATOM      1  C   UNL     1      -2.455   4.131   0.033  0.00  0.00    +0.066 C 
ATOM      2  C   UNL     1      -1.146   3.385   0.013  0.00  0.00    +0.047 A 
ATOM      3  C   UNL     1       0.030   4.075  -0.015  0.00  0.00    +0.093 A 
ATOM      4  C   UNL     1       1.242   3.358  -0.027  0.00  0.00    +0.257 A 
ATOM      5  O   UNL     1       2.313   3.942  -0.063  0.00  0.00    -0.267 OA
ATOM      6  N   UNL     1       1.192   2.015   0.002  0.00  0.00    -0.255 N 
ATOM      7  C   UNL     1      -0.017   1.378   0.010  0.00  0.00    +0.207 A 
ATOM      8  N   UNL     1      -1.142   2.051   0.019  0.00  0.00    -0.221 NA
ATOM      9  N   UNL     1       0.002  -0.004   0.002  0.00  0.00    -0.259 N 
ATOM     10  C   UNL     1       1.020  -0.598  -0.736  0.00  0.00    +0.162 C 
ATOM     11  C   UNL     1       2.412   1.202   0.035  0.00  0.00    +0.220 C 
ATOM     12  N   UNL     1       0.799  -1.762  -1.434  0.00  0.00    -0.318 N 
ATOM     13  H   UNL     1      -0.656  -0.529   0.484  0.00  0.00    +0.158 HD
ATOM     14  H   UNL     1      -0.076  -2.179  -1.415  0.00  0.00    +0.149 HD
ATOM     15  N   UNL     1       2.244  -0.050  -0.786  0.00  0.00    -0.337 N 
ATOM     16  H   UNL     1       3.008  -0.453  -1.342  0.00  0.00    +0.164 HD
ENDROOT
BRANCH  11  17
ATOM     17  C   UNL     1       2.736   0.837   1.460  0.00  0.00    -0.005 A 
ATOM     18  C   UNL     1       2.390   1.694   2.489  0.00  0.00    +0.007 A 
ATOM     19  C   UNL     1       2.684   1.357   3.797  0.00  0.00    +0.000 A 
ATOM     20  C   UNL     1       3.331   0.168   4.076  0.00  0.00    +0.000 A 
ATOM     21  C   UNL     1       3.680  -0.686   3.047  0.00  0.00    +0.000 A 
ATOM     22  C   UNL     1       3.383  -0.352   1.739  0.00  0.00    +0.007 A 
ENDBRANCH  11  17
BRANCH  12  23
ATOM     23  C   UNL     1       1.885  -2.371  -2.205  0.00  0.00    +0.109 C 
BRANCH  23  24
ATOM     24  C   UNL     1       1.378  -3.647  -2.881  0.00  0.00    +0.056 C 
BRANCH  24  25
ATOM     25  C   UNL     1       2.495  -4.274  -3.674  0.00  0.00    -0.021 A 
ATOM     26  C   UNL     1       2.739  -4.103  -4.983  0.00  0.00    +0.087 A 
ATOM     27  N   UNL     1       3.837  -4.830  -5.352  0.00  0.00    -0.360 N 
ATOM     28  H   UNL     1       4.207  -4.865  -6.248  0.00  0.00    +0.165 HD
ATOM     29  C   UNL     1       4.340  -5.504  -4.262  0.00  0.00    +0.047 A 
ATOM     30  C   UNL     1       3.525  -5.181  -3.162  0.00  0.00    +0.003 A 
ATOM     31  C   UNL     1       3.796  -5.732  -1.908  0.00  0.00    +0.010 A 
ATOM     32  C   UNL     1       4.861  -6.574  -1.753  0.00  0.00    +0.001 A 
ATOM     33  C   UNL     1       5.672  -6.892  -2.834  0.00  0.00    +0.002 A 
ATOM     34  C   UNL     1       5.418  -6.364  -4.082  0.00  0.00    +0.026 A 
ENDBRANCH  24  25
ENDBRANCH  23  24
ENDBRANCH  12  23
TORSDOF 4
