REMARK  Name = ZINC05870179
REMARK  6 active torsions:
REMARK  status: ('A' for Active; 'I' for Inactive)
REMARK    1  A    between atoms: C_1  and  C_2
REMARK    2  A    between atoms: C_8  and  N_10
REMARK    3  A    between atoms: C_14  and  C_16
REMARK    4  A    between atoms: C_16  and  O_17
REMARK    5  A    between atoms: O_17  and  C_18
REMARK    6  A    between atoms: C_23  and  N_24
REMARK                            x       y       z     vdW  Elec       q    Type
REMARK                         _______ _______ _______ _____ _____    ______ ____
ROOT
ATOM      1  N   UNL     1      -0.396   1.355   4.793  0.00  0.00    -0.296 N 
ATOM      2  C   UNL     1      -0.872   1.681   3.575  0.00  0.00    +0.306 C 
ATOM      3  O   UNL     1      -1.871   2.366   3.476  0.00  0.00    -0.252 OA
ATOM      4  N   UNL     1      -0.242   1.246   2.466  0.00  0.00    -0.237 N 
ATOM      5  C   UNL     1      -0.718   1.572   1.248  0.00  0.00    +0.258 C 
ATOM      6  O   UNL     1      -1.714   2.256   1.150  0.00  0.00    -0.272 OA
ATOM      7  H   UNL     1       0.401   0.807   4.871  0.00  0.00    +0.151 HD
ATOM      8  H   UNL     1       0.555   0.699   2.544  0.00  0.00    +0.159 HD
ENDROOT
BRANCH   1  15
ATOM      9  C   UNL     1       1.050   2.847   6.810  0.00  0.00    +0.009 C 
ATOM     10  C   UNL     1      -0.088   1.886   7.160  0.00  0.00    +0.006 C 
ATOM     11  C   UNL     1      -0.804   2.379   8.419  0.00  0.00    +0.005 C 
ATOM     12  C   UNL     1      -1.942   1.418   8.768  0.00  0.00    +0.000 C 
ATOM     13  C   UNL     1      -2.935   1.359   7.606  0.00  0.00    +0.002 C 
ATOM     14  C   UNL     1      -2.219   0.866   6.347  0.00  0.00    +0.022 C 
ATOM     15  C   UNL     1      -1.082   1.827   5.998  0.00  0.00    +0.077 C 
ENDBRANCH   1  15
BRANCH   5  16
ATOM     16  C   UNL     1      -0.013   1.086   0.008  0.00  0.00    +0.325 C 
BRANCH  16  17
ATOM     17  O   UNL     1      -0.704   1.559  -1.150  0.00  0.00    -0.480 OA
BRANCH  17  18
ATOM     18  C   UNL     1      -0.194   1.208  -2.359  0.00  0.00    +0.151 A 
ATOM     19  C   UNL     1       0.951   0.428  -2.431  0.00  0.00    +0.048 A 
ATOM     20  C   UNL     1       1.465   0.068  -3.661  0.00  0.00    +0.004 A 
ATOM     21  C   UNL     1       0.845   0.493  -4.822  0.00  0.00    +0.002 A 
ATOM     22  C   UNL     1      -0.294   1.274  -4.753  0.00  0.00    +0.036 A 
ATOM     23  C   UNL     1      -0.815   1.633  -3.525  0.00  0.00    +0.168 A 
BRANCH  23  24
ATOM     24  N   UNL     1      -2.034   2.469  -3.452  0.00  0.00    +0.060 N 
ATOM     25  O   UNL     1      -2.578   2.841  -4.476  0.00  0.00    -0.126 OA
ATOM     26  O   UNL     1      -2.492   2.784  -2.369  0.00  0.00    -0.126 OA
ENDBRANCH  23  24
ENDBRANCH  17  18
ENDBRANCH  16  17
ENDBRANCH   5  16
TORSDOF 5
