REMARK  Name = ZINC65182442
REMARK  9 active torsions:
REMARK  status: ('A' for Active; 'I' for Inactive)
REMARK    1  A    between atoms: C_1  and  C_2
REMARK    2  A    between atoms: C_2  and  C_3
REMARK    3  A    between atoms: C_6  and  C_33
REMARK    4  A    between atoms: C_11  and  C_13
REMARK    5  A    between atoms: C_16  and  C_19
REMARK    6  A    between atoms: C_19  and  C_20
REMARK    7  A    between atoms: C_20  and  N_21
REMARK    8  A    between atoms: N_21  and  C_22
REMARK    9  A    between atoms: C_23  and  C_25
REMARK                            x       y       z     vdW  Elec       q    Type
REMARK                         _______ _______ _______ _____ _____    ______ ____
ROOT
ATOM      1  C   UNL     1      -0.637  -3.104  -1.551  0.00  0.00    +0.318 C 
ATOM      2  N   UNL     1      -0.636  -4.507  -1.994  0.00  0.00    -0.291 N 
ATOM      3  C   UNL     1      -0.947  -4.502  -3.334  0.00  0.00    +0.139 C 
ATOM      4  N   UNL     1      -1.135  -3.309  -3.769  0.00  0.00    -0.072 NA
ATOM      5  O   UNL     1      -0.967  -2.356  -2.732  0.00  0.00    -0.367 OA
ATOM      6  H   UNL     1      -0.452  -5.286  -1.446  0.00  0.00    +0.151 HD
ENDROOT
BRANCH   1  15
ATOM      7  C   UNL     1       0.718  -1.287  -0.509  0.00  0.00    -0.033 C 
ATOM      8  C   UNL     1       1.601  -0.591  -1.260  0.00  0.00    -0.000 A 
ATOM      9  C   UNL     1       2.029   0.813  -1.246  0.00  0.00    +0.013 A 
ATOM     10  C   UNL     1       2.953   1.227  -2.143  0.00  0.00    -0.050 A 
ATOM     11  C   UNL     1       3.510   0.350  -3.084  0.00  0.00    +0.005 A 
ATOM     12  C   UNL     1       3.167  -0.954  -3.159  0.00  0.00    +0.026 A 
ATOM     13  C   UNL     1       2.205  -1.496  -2.263  0.00  0.00    +0.043 A 
ATOM     14  N   UNL     1       1.714  -2.705  -2.137  0.00  0.00    -0.373 N 
ATOM     15  C   UNL     1       0.747  -2.705  -1.034  0.00  0.00    +0.169 C 
ATOM     16  C   UNL     1       3.394   2.668  -2.131  0.00  0.00    +0.044 C 
ATOM     17  H   UNL     1       1.954  -3.473  -2.680  0.00  0.00    +0.160 HD
BRANCH   7  19
ATOM     18  C   UNL     1       0.165   0.732   0.821  0.00  0.00    +0.008 C 
ATOM     19  C   UNL     1      -0.121  -0.758   0.627  0.00  0.00    +0.030 C 
ENDBRANCH   7  19
ENDBRANCH   1  15
BRANCH   3  20
ATOM     20  C   UNL     1      -1.052  -5.741  -4.184  0.00  0.00    +0.094 C 
BRANCH  20  21
ATOM     21  C   UNL     1      -1.412  -5.347  -5.618  0.00  0.00    +0.115 C 
BRANCH  21  22
ATOM     22  N   UNL     1      -1.514  -6.552  -6.445  0.00  0.00    -0.300 N 
ATOM     23  C   UNL     1      -2.798  -7.246  -6.573  0.00  0.00    +0.132 C 
ATOM     24  C   UNL     1      -0.427  -7.022  -7.088  0.00  0.00    +0.248 C 
ATOM     25  O   UNL     1       0.658  -6.504  -6.906  0.00  0.00    -0.270 OA
BRANCH  24  26
ATOM     26  C   UNL     1      -0.553  -8.168  -8.013  0.00  0.00    +0.058 A 
ATOM     27  C   UNL     1      -1.607  -8.217  -8.927  0.00  0.00    +0.052 A 
ATOM     28  C   UNL     1      -1.719  -9.291  -9.789  0.00  0.00    +0.124 A 
ATOM     29  C   UNL     1      -0.788 -10.317  -9.747  0.00  0.00    +0.040 A 
ATOM     30  C   UNL     1       0.258 -10.273  -8.844  0.00  0.00    +0.023 A 
ATOM     31  C   UNL     1       0.385  -9.202  -7.980  0.00  0.00    +0.053 A 
ATOM     32 CL   UNL     1       1.703  -9.146  -6.852  0.00  0.00    -0.083 Cl
ATOM     33  F   UNL     1      -2.738  -9.341 -10.675  0.00  0.00    -0.205 F 
ENDBRANCH  24  26
ENDBRANCH  21  22
ENDBRANCH  20  21
ENDBRANCH   3  20
TORSDOF 6
