REMARK  Name = ZINC20599026
REMARK  7 active torsions:
REMARK  status: ('A' for Active; 'I' for Inactive)
REMARK    1  A    between atoms: C_1  and  C_2
REMARK    2  A    between atoms: C_7  and  C_11
REMARK    3  A    between atoms: C_11  and  N_12
REMARK    4  A    between atoms: C_13  and  C_15
REMARK    5  A    between atoms: C_15  and  C_16
REMARK    6  A    between atoms: N_23  and  C_24
REMARK    7  A    between atoms: C_24  and  C_25
REMARK                            x       y       z     vdW  Elec       q    Type
REMARK                         _______ _______ _______ _____ _____    ______ ____
ROOT
ATOM      1  C   UNL     1       1.315  -0.783   0.006  0.00  0.00    +0.028 C 
ATOM      2  C   UNL     1       2.366   0.234  -0.338  0.00  0.00    +0.200 C 
ATOM      3  O   UNL     1       2.517   0.544  -1.500  0.00  0.00    -0.278 OA
ATOM      4  N   UNL     1       3.142   0.812   0.585  0.00  0.00    -0.318 N 
ATOM      5  C   UNL     1       3.066   0.484   2.006  0.00  0.00    +0.085 C 
ATOM      6  C   UNL     1       1.740  -0.216   2.311  0.00  0.00    -0.058 C 
ATOM      7  N   UNL     1       1.556  -1.318   1.353  0.00  0.00    +0.391 N 
ATOM      8  H   UNL     1       3.862   1.566   0.233  0.00  0.00    +0.149 HD
ATOM      9  H   UNL     1       2.477  -1.919   1.329  0.00  0.00    -0.080 HD
ENDROOT
BRANCH   1  10
ATOM     10  C   UNL     1       1.363  -1.926  -1.010  0.00  0.00    +0.089 C 
BRANCH  10  12
ATOM     11  N   UNL     1       3.019  -3.574  -1.822  0.00  0.00    -0.310 N 
ATOM     12  C   UNL     1       2.708  -2.604  -0.941  0.00  0.00    +0.212 C 
ATOM     13  O   UNL     1       3.509  -2.276  -0.091  0.00  0.00    -0.276 OA
ATOM     14  H   UNL     1       2.293  -3.872  -2.593  0.00  0.00    +0.149 HD
BRANCH  11  15
ATOM     15  C   UNL     1       4.326  -4.234  -1.754  0.00  0.00    +0.161 C 
BRANCH  15  22
ATOM     16  C   UNL     1       5.423  -8.318  -7.816  0.00  0.00    +0.045 C 
ATOM     17  C   UNL     1       4.997  -7.910  -6.428  0.00  0.00    -0.034 A 
ATOM     18  C   UNL     1       4.355  -8.839  -5.593  0.00  0.00    +0.008 A 
ATOM     19  C   UNL     1       3.972  -8.468  -4.342  0.00  0.00    +0.047 A 
ATOM     20  C   UNL     1       4.229  -7.153  -3.903  0.00  0.00    +0.138 A 
ATOM     21  N   UNL     1       3.980  -6.529  -2.760  0.00  0.00    -0.231 NA
ATOM     22  C   UNL     1       4.422  -5.272  -2.842  0.00  0.00    +0.077 A 
ATOM     23  C   UNL     1       4.974  -5.087  -4.061  0.00  0.00    +0.117 A 
ATOM     24  N   UNL     1       4.858  -6.269  -4.741  0.00  0.00    -0.306 N 
ATOM     25  C   UNL     1       5.236  -6.655  -5.994  0.00  0.00    +0.096 A 
ENDBRANCH  15  22
ENDBRANCH  11  15
ENDBRANCH  10  12
ENDBRANCH   1  10
BRANCH   7  26
ATOM     26  C   UNL     1       0.460  -2.202   1.771  0.00  0.00    -0.040 C 
BRANCH  26  27
ATOM     27  C   UNL     1       0.563  -2.464   3.252  0.00  0.00    -0.045 A 
ATOM     28  C   UNL     1       1.114  -3.647   3.708  0.00  0.00    +0.006 A 
ATOM     29  C   UNL     1       1.214  -3.886   5.065  0.00  0.00    +0.038 A 
ATOM     30  C   UNL     1       0.753  -2.944   5.970  0.00  0.00    +0.125 A 
ATOM     31  C   UNL     1       0.197  -1.761   5.513  0.00  0.00    +0.058 A 
ATOM     32  C   UNL     1       0.102  -1.522   4.154  0.00  0.00    +0.045 A 
ATOM     33 CL   UNL     1      -0.596  -0.039   3.581  0.00  0.00    -0.083 Cl
ATOM     34  F   UNL     1       0.846  -3.179   7.297  0.00  0.00    -0.205 F 
ENDBRANCH  26  27
ENDBRANCH   7  26
TORSDOF 6
