REMARK  Name = ZINC07487781
REMARK  11 active torsions:
REMARK  status: ('A' for Active; 'I' for Inactive)
REMARK    1  A    between atoms: C_1  and  C_2
REMARK    2  A    between atoms: C_2  and  N_3
REMARK    3  A    between atoms: C_7  and  S_22
REMARK    4  A    between atoms: C_11  and  C_12
REMARK    5  A    between atoms: C_12  and  N_53
REMARK    6  A    between atoms: C_13  and  N_53
REMARK    7  A    between atoms: C_14  and  C_15
REMARK    8  A    between atoms: C_14  and  N_53
REMARK    9  A    between atoms: S_22  and  N_25
REMARK   10  A    between atoms: N_25  and  C_26
REMARK   11  A    between atoms: N_25  and  C_27
REMARK                            x       y       z     vdW  Elec       q    Type
REMARK                         _______ _______ _______ _____ _____    ______ ____
ROOT
ATOM      1  N   UNL     1      -0.749   3.044   1.275  0.00  0.00    -0.329 N 
ATOM      2  C   UNL     1       0.205   3.872   1.831  0.00  0.00    +0.069 A 
ATOM      3  C   UNL     1       1.397   3.655   2.510  0.00  0.00    +0.030 A 
ATOM      4  C   UNL     1       2.138   4.731   2.949  0.00  0.00    +0.030 A 
ATOM      5  C   UNL     1       1.702   6.028   2.717  0.00  0.00    +0.108 A 
ATOM      6  C   UNL     1       0.536   6.261   2.043  0.00  0.00    +0.058 A 
ATOM      7  C   UNL     1      -0.234   5.185   1.593  0.00  0.00    +0.091 A 
ATOM      8  N   UNL     1      -1.414   5.093   0.926  0.00  0.00    -0.234 NA
ATOM      9  C   UNL     1      -1.714   3.840   0.741  0.00  0.00    +0.094 A 
ENDROOT
BRANCH   5  10
ATOM     10  S   UNL     1       2.666   7.388   3.287  0.00  0.00    +0.060 S 
ATOM     11  O   UNL     1       1.776   8.487   3.426  0.00  0.00    -0.153 OA
ATOM     12  O   UNL     1       3.454   6.904   4.365  0.00  0.00    -0.153 OA
BRANCH  10  13
ATOM     13  N   UNL     1       3.720   7.784   2.072  0.00  0.00    -0.183 NA
ATOM     14  C   UNL     1       3.331   8.766   1.056  0.00  0.00    +0.131 C 
ATOM     15  C   UNL     1       5.041   7.153   2.013  0.00  0.00    +0.131 C 
ENDBRANCH  10  13
ENDBRANCH   5  10
BRANCH   1  17
ATOM     16  C   UNL     1      -0.013   1.086   0.008  0.00  0.00    +0.027 C 
ATOM     17  C   UNL     1      -0.729   1.579   1.267  0.00  0.00    +0.120 C 
ENDBRANCH   1  17
BRANCH   9  18
ATOM     18  C   UNL     1      -2.950   3.344   0.035  0.00  0.00    -0.003 C 
BRANCH  18  20
ATOM     19  C   UNL     1      -3.715   2.090   1.960  0.00  0.00    -0.095 C 
ATOM     20  N   UNL     1      -4.035   3.191   1.027  0.00  0.00    +0.385 N 
ATOM     21  H   UNL     1      -4.126   4.064   1.560  0.00  0.00    -0.081 HD
BRANCH  20  22
ATOM     22  C   UNL     1      -5.313   2.914   0.338  0.00  0.00    -0.043 C 
BRANCH  22  23
ATOM     23  C   UNL     1      -6.433   2.982   1.345  0.00  0.00    -0.064 A 
ATOM     24  C   UNL     1      -6.829   1.839   2.014  0.00  0.00    +0.004 A 
ATOM     25  C   UNL     1      -7.853   1.900   2.941  0.00  0.00    +0.038 A 
ATOM     26  C   UNL     1      -8.487   3.105   3.192  0.00  0.00    +0.123 A 
ATOM     27  C   UNL     1      -8.092   4.248   2.517  0.00  0.00    +0.038 A 
ATOM     28  C   UNL     1      -7.065   4.185   1.595  0.00  0.00    +0.004 A 
ATOM     29  F   UNL     1      -9.491   3.166   4.095  0.00  0.00    -0.205 F 
ENDBRANCH  22  23
ENDBRANCH  20  22
ENDBRANCH  18  20
ENDBRANCH   9  18
TORSDOF 7
