REMARK  Name = ZINC08598756
REMARK  8 active torsions:
REMARK  status: ('A' for Active; 'I' for Inactive)
REMARK    1  A    between atoms: C_1  and  C_2
REMARK    2  A    between atoms: C_2  and  C_3
REMARK    3  A    between atoms: C_8  and  N_9
REMARK    4  A    between atoms: C_10  and  C_12
REMARK    5  A    between atoms: C_12  and  C_14
REMARK    6  A    between atoms: C_12  and  N_20
REMARK    7  A    between atoms: N_20  and  S_21
REMARK    8  A    between atoms: S_21  and  C_24
REMARK                            x       y       z     vdW  Elec       q    Type
REMARK                         _______ _______ _______ _____ _____    ______ ____
ROOT
ATOM      1  C   UNL     1      -1.451  -0.272  -4.864  0.00  0.00    +0.192 C 
ENDROOT
BRANCH   1   2
ATOM      2  C   UNL     1      -0.213  -1.126  -4.959  0.00  0.00    -0.020 A 
ATOM      3  C   UNL     1      -0.316  -2.454  -5.332  0.00  0.00    +0.006 A 
ATOM      4  C   UNL     1       0.820  -3.237  -5.419  0.00  0.00    +0.000 A 
ATOM      5  C   UNL     1       2.058  -2.693  -5.134  0.00  0.00    +0.000 A 
ATOM      6  C   UNL     1       2.161  -1.365  -4.762  0.00  0.00    +0.000 A 
ATOM      7  C   UNL     1       1.026  -0.581  -4.679  0.00  0.00    +0.006 A 
ENDBRANCH   1   2
BRANCH   1   9
ATOM      8  N   UNL     1      -1.505  -0.315  -2.391  0.00  0.00    -0.284 N 
ATOM      9  C   UNL     1      -2.147  -0.541  -3.555  0.00  0.00    +0.240 C 
ATOM     10  O   UNL     1      -3.285  -0.961  -3.548  0.00  0.00    -0.273 OA
ATOM     11  H   UNL     1      -0.620   0.082  -2.395  0.00  0.00    +0.155 HD
BRANCH   8  17
ATOM     12  C   UNL     1      -1.349  -1.119  -0.119  0.00  0.00    -0.026 A 
ATOM     13  C   UNL     1      -1.954  -1.445   1.079  0.00  0.00    +0.005 A 
ATOM     14  C   UNL     1      -3.322  -1.313   1.222  0.00  0.00    +0.000 A 
ATOM     15  C   UNL     1      -4.090  -0.854   0.168  0.00  0.00    +0.002 A 
ATOM     16  C   UNL     1      -3.491  -0.525  -1.033  0.00  0.00    +0.023 A 
ATOM     17  C   UNL     1      -2.116  -0.652  -1.178  0.00  0.00    +0.037 A 
BRANCH  12  19
ATOM     18  C   UNL     1       0.819   0.079   0.019  0.00  0.00    +0.009 C 
ATOM     19  C   UNL     1       0.143  -1.262  -0.275  0.00  0.00    +0.033 C 
ENDBRANCH  12  19
ENDBRANCH   8  17
ENDBRANCH   1   9
BRANCH   1  20
ATOM     20  N   UNL     1      -2.353  -0.595  -5.972  0.00  0.00    -0.174 NA
ATOM     21  H   UNL     1      -2.972  -1.338  -5.893  0.00  0.00    +0.149 HD
BRANCH  20  22
ATOM     22  S   UNL     1      -2.316   0.308  -7.360  0.00  0.00    +0.059 S 
ATOM     23  O   UNL     1      -3.274  -0.263  -8.241  0.00  0.00    -0.153 OA
ATOM     24  O   UNL     1      -2.366   1.670  -6.959  0.00  0.00    -0.153 OA
BRANCH  22  25
ATOM     25  C   UNL     1      -0.738   0.058  -8.102  0.00  0.00    +0.106 A 
ATOM     26  C   UNL     1       0.319   0.887  -7.772  0.00  0.00    +0.030 A 
ATOM     27  C   UNL     1       1.557   0.694  -8.351  0.00  0.00    +0.025 A 
ATOM     28  C   UNL     1       1.741  -0.334  -9.267  0.00  0.00    +0.037 A 
ATOM     29  C   UNL     1       0.678  -1.165  -9.596  0.00  0.00    -0.024 A 
ATOM     30  C   UNL     1      -0.557  -0.970  -9.009  0.00  0.00    +0.034 A 
ATOM     31  C   UNL     1       0.877  -2.280 -10.589  0.00  0.00    +0.046 C 
ATOM     32  C   UNL     1       1.889  -1.845 -11.650  0.00  0.00    +0.101 C 
ATOM     33  C   UNL     1       3.105  -1.256 -10.988  0.00  0.00    +0.218 C 
ATOM     34  O   UNL     1       4.200  -1.434 -11.479  0.00  0.00    -0.275 OA
ATOM     35  N   UNL     1       2.992  -0.535  -9.857  0.00  0.00    -0.285 N 
ATOM     36  H   UNL     1       3.784  -0.152  -9.449  0.00  0.00    +0.155 HD
ENDBRANCH  22  25
ENDBRANCH  20  22
ENDBRANCH   1  20
TORSDOF 7
