REMARK  Name = ZINC00888066
REMARK  10 active torsions:
REMARK  status: ('A' for Active; 'I' for Inactive)
REMARK    1  A    between atoms: C_1  and  C_2
REMARK    2  A    between atoms: C_5  and  C_7
REMARK    3  A    between atoms: C_7  and  C_9
REMARK    4  A    between atoms: C_7  and  N_20
REMARK    5  A    between atoms: N_11  and  C_12
REMARK    6  A    between atoms: C_12  and  C_13
REMARK    7  A    between atoms: N_20  and  C_21
REMARK    8  A    between atoms: C_27  and  C_29
REMARK    9  A    between atoms: C_29  and  N_30
REMARK   10  A    between atoms: C_32  and  C_35
REMARK                            x       y       z     vdW  Elec       q    Type
REMARK                         _______ _______ _______ _____ _____    ______ ____
ROOT
ATOM      1  N   UNL     1       2.646  -2.799  -1.201  0.00  0.00    -0.251 N 
ATOM      2  C   UNL     1       2.832  -3.892  -1.968  0.00  0.00    +0.244 C 
ATOM      3  O   UNL     1       2.106  -4.854  -1.838  0.00  0.00    -0.273 OA
ENDROOT
BRANCH   1   4
ATOM      4  C   UNL     1       3.598  -1.773  -1.203  0.00  0.00    +0.038 A 
ATOM      5  C   UNL     1       4.798  -1.938  -1.882  0.00  0.00    +0.023 A 
ATOM      6  C   UNL     1       5.735  -0.923  -1.882  0.00  0.00    +0.002 A 
ATOM      7  C   UNL     1       5.479   0.256  -1.207  0.00  0.00    +0.000 A 
ATOM      8  C   UNL     1       4.285   0.424  -0.530  0.00  0.00    +0.002 A 
ATOM      9  C   UNL     1       3.341  -0.585  -0.530  0.00  0.00    +0.023 A 
ENDBRANCH   1   4
BRANCH   1  10
ATOM     10  C   UNL     1       1.447  -2.685  -0.367  0.00  0.00    +0.233 C 
BRANCH  10  15
ATOM     11  C   UNL     1       0.368   2.017  -1.840  0.00  0.00    +0.086 C 
ATOM     12  C   UNL     1       0.196   0.581  -1.415  0.00  0.00    +0.102 A 
ATOM     13  C   UNL     1      -0.977  -0.063  -1.279  0.00  0.00    +0.045 A 
ATOM     14  C   UNL     1      -0.674  -1.381  -0.866  0.00  0.00    +0.047 A 
ATOM     15  C   UNL     1       0.665  -1.463  -0.775  0.00  0.00    +0.135 A 
ATOM     16  O   UNL     1       1.187  -0.273  -1.114  0.00  0.00    -0.462 OA
ENDBRANCH  10  15
BRANCH  10  17
ATOM     17  C   UNL     1       1.852  -2.562   1.080  0.00  0.00    +0.242 C 
ATOM     18  O   UNL     1       3.026  -2.568   1.383  0.00  0.00    -0.273 OA
ATOM     19  N   UNL     1       0.910  -2.444   2.036  0.00  0.00    -0.309 N 
ATOM     20  H   UNL     1      -0.029  -2.439   1.793  0.00  0.00    +0.149 HD
BRANCH  19  21
ATOM     21  C   UNL     1       1.303  -2.325   3.442  0.00  0.00    +0.139 C 
BRANCH  21  22
ATOM     22  C   UNL     1       0.070  -2.207   4.301  0.00  0.00    -0.030 A 
ATOM     23  C   UNL     1      -0.462  -0.962   4.578  0.00  0.00    +0.008 A 
ATOM     24  C   UNL     1      -1.593  -0.854   5.365  0.00  0.00    +0.038 A 
ATOM     25  C   UNL     1      -2.192  -1.992   5.875  0.00  0.00    +0.123 A 
ATOM     26  C   UNL     1      -1.658  -3.239   5.597  0.00  0.00    +0.038 A 
ATOM     27  C   UNL     1      -0.530  -3.345   4.805  0.00  0.00    +0.008 A 
ATOM     28  F   UNL     1      -3.298  -1.887   6.645  0.00  0.00    -0.205 F 
ENDBRANCH  21  22
ENDBRANCH  19  21
ENDBRANCH  10  17
ENDBRANCH   1  10
BRANCH   2  29
ATOM     29  C   UNL     1       3.942  -3.917  -2.986  0.00  0.00    +0.264 C 
BRANCH  29  30
ATOM     30  N   UNL     1       3.630  -4.903  -4.024  0.00  0.00    -0.154 N 
ATOM     31  N   UNL     1       3.960  -6.149  -3.993  0.00  0.00    -0.130 NA
ATOM     32  C   UNL     1       3.507  -6.714  -5.094  0.00  0.00    +0.205 A 
ATOM     33  N   UNL     1       2.888  -5.752  -5.793  0.00  0.00    -0.108 NA
ATOM     34  N   UNL     1       2.978  -4.662  -5.108  0.00  0.00    -0.045 NA
BRANCH  32  35
ATOM     35  C   UNL     1       3.655  -8.138  -5.486  0.00  0.00    +0.023 A 
ATOM     36  C   UNL     1       4.325  -9.027  -4.648  0.00  0.00    +0.013 A 
ATOM     37  C   UNL     1       4.460 -10.350  -5.015  0.00  0.00    +0.021 A 
ATOM     38  C   UNL     1       3.930 -10.795  -6.215  0.00  0.00    +0.041 A 
ATOM     39  C   UNL     1       3.263  -9.915  -7.050  0.00  0.00    +0.021 A 
ATOM     40  C   UNL     1       3.119  -8.591  -6.689  0.00  0.00    +0.013 A 
ATOM     41 CL   UNL     1       4.103 -12.460  -6.672  0.00  0.00    -0.084 Cl
ENDBRANCH  32  35
ENDBRANCH  29  30
ENDBRANCH   2  29
TORSDOF 9
