REMARK  Name = ZINC04713777
REMARK  6 active torsions:
REMARK  status: ('A' for Active; 'I' for Inactive)
REMARK    1  A    between atoms: C_1  and  C_2
REMARK    2  A    between atoms: C_2  and  N_3
REMARK    3  A    between atoms: N_3  and  N_4
REMARK    4  A    between atoms: C_5  and  C_7
REMARK    5  A    between atoms: C_13  and  C_14
REMARK    6  A    between atoms: N_16  and  C_17
REMARK                            x       y       z     vdW  Elec       q    Type
REMARK                         _______ _______ _______ _____ _____    ______ ____
ROOT
ATOM      1  C   UNL     1      -0.097   0.909   0.156  0.00  0.00    +0.062 C 
ATOM      2  C   UNL     1      -0.750   1.361  -1.125  0.00  0.00    +0.024 C 
ATOM      3  C   UNL     1      -2.067   1.654  -1.143  0.00  0.00    +0.087 C 
ENDROOT
BRANCH   3   4
ATOM      4  C   UNL     1      -2.653   2.200  -2.309  0.00  0.00    +0.239 C 
ATOM      5  O   UNL     1      -1.998   2.300  -3.331  0.00  0.00    -0.271 OA
ATOM      6  N   UNL     1      -3.937   2.610  -2.289  0.00  0.00    -0.306 N 
ATOM      7  H   UNL     1      -4.436   2.603  -1.456  0.00  0.00    +0.150 HD
BRANCH   6   8
ATOM      8  C   UNL     1      -4.580   3.065  -3.524  0.00  0.00    +0.036 C 
ATOM      9  C   UNL     1      -3.822   4.273  -4.078  0.00  0.00    +0.029 C 
ATOM     10  C   UNL     1      -4.494   4.749  -5.367  0.00  0.00    -0.008 C 
ATOM     11  C   UNL     1      -5.942   5.147  -5.072  0.00  0.00    +0.007 C 
ATOM     12  C   UNL     1      -6.700   3.939  -4.518  0.00  0.00    -0.008 C 
ATOM     13  C   UNL     1      -6.028   3.463  -3.228  0.00  0.00    +0.029 C 
ATOM     14  C   UNL     1      -6.681   2.809  -5.549  0.00  0.00    +0.007 C 
ATOM     15  C   UNL     1      -5.234   2.411  -5.845  0.00  0.00    -0.008 C 
ATOM     16  C   UNL     1      -4.476   3.619  -6.399  0.00  0.00    +0.007 C 
ATOM     17  C   UNL     1      -4.562   1.935  -4.555  0.00  0.00    +0.029 C 
ENDBRANCH   6   8
ENDBRANCH   3   4
BRANCH   2  18
ATOM     18  N   UNL     1      -0.009   1.472  -2.268  0.00  0.00    -0.268 N 
ATOM     19  H   UNL     1      -0.408   1.845  -3.070  0.00  0.00    +0.170 HD
BRANCH  18  20
ATOM     20  N   UNL     1       1.326   1.048  -2.282  0.00  0.00    -0.233 N 
ATOM     21  C   UNL     1       2.088   1.255  -3.374  0.00  0.00    +0.260 C 
ATOM     22  O   UNL     1       1.594   1.727  -4.379  0.00  0.00    -0.269 OA
ATOM     23  H   UNL     1       1.702   0.605  -1.505  0.00  0.00    +0.173 HD
BRANCH  21  24
ATOM     24  C   UNL     1       3.528   0.908  -3.349  0.00  0.00    +0.041 A 
ATOM     25  C   UNL     1       4.092   0.260  -2.246  0.00  0.00    +0.033 A 
ATOM     26  C   UNL     1       5.439  -0.046  -2.266  0.00  0.00    +0.111 A 
ATOM     27  N   UNL     1       6.189   0.265  -3.304  0.00  0.00    -0.263 NA
ATOM     28  C   UNL     1       5.697   0.876  -4.364  0.00  0.00    +0.111 A 
ATOM     29  C   UNL     1       4.359   1.214  -4.431  0.00  0.00    +0.033 A 
ENDBRANCH  21  24
ENDBRANCH  18  20
ENDBRANCH   2  18
TORSDOF 5
