REMARK  Name = ZINC35361052
REMARK  15 active torsions:
REMARK  status: ('A' for Active; 'I' for Inactive)
REMARK    1  A    between atoms: C_1  and  C_2
REMARK    2  A    between atoms: C_2  and  O_3
REMARK    3  A    between atoms: O_3  and  C_4
REMARK    4  A    between atoms: N_6  and  N_7
REMARK    5  A    between atoms: C_8  and  C_9
REMARK    6  A    between atoms: C_8  and  C_10
REMARK    7  A    between atoms: C_10  and  O_42
REMARK    8  A    between atoms: C_11  and  O_38
REMARK    9  A    between atoms: C_16  and  C_37
REMARK   10  A    between atoms: C_26  and  C_36
REMARK   11  A    between atoms: C_29  and  O_32
REMARK   12  A    between atoms: O_32  and  C_33
REMARK   13  A    between atoms: C_33  and  C_35
REMARK   14  A    between atoms: O_38  and  C_39
REMARK   15  A    between atoms: C_39  and  C_41
REMARK                            x       y       z     vdW  Elec       q    Type
REMARK                         _______ _______ _______ _____ _____    ______ ____
ROOT
ATOM      1  C   UNL     1       2.879  -3.414   4.770  0.00  0.00    +0.147 C 
ATOM      2  C   UNL     1       1.978  -3.848   5.943  0.00  0.00    +0.214 C 
ATOM      3  C   UNL     1       1.055  -4.964   5.412  0.00  0.00    +0.052 C 
ATOM      4  C   UNL     1       1.756  -5.488   4.131  0.00  0.00    +0.005 C 
ATOM      5  C   UNL     1       2.396  -4.212   3.556  0.00  0.00    +0.009 C 
ATOM      6  C   UNL     1       3.453  -4.459   2.516  0.00  0.00    +0.010 C 
ATOM      7  C   UNL     1       4.392  -5.619   2.788  0.00  0.00    +0.005 C 
ATOM      8  C   UNL     1       3.711  -6.858   3.352  0.00  0.00    +0.003 C 
ATOM      9  C   UNL     1       2.842  -6.473   4.541  0.00  0.00    +0.001 C 
ATOM     10  C   UNL     1       2.258  -7.716   5.199  0.00  0.00    +0.031 C 
ATOM     11  C   UNL     1       1.636  -8.618   4.176  0.00  0.00    -0.027 C 
ATOM     12  C   UNL     1       1.988  -8.640   2.928  0.00  0.00    -0.064 C 
ATOM     13  C   UNL     1       3.035  -7.737   2.330  0.00  0.00    -0.008 C 
ATOM     14  C   UNL     1       4.083  -8.632   1.646  0.00  0.00    +0.015 C 
ATOM     15  C   UNL     1       3.421  -9.577   0.650  0.00  0.00    +0.046 C 
ATOM     16  C   UNL     1       2.401 -10.481   1.339  0.00  0.00    +0.180 C 
ATOM     17  C   UNL     1       1.309  -9.635   2.001  0.00  0.00    +0.075 C 
ATOM     18  C   UNL     1       2.357  -6.910   1.241  0.00  0.00    +0.016 C 
ATOM     19  C   UNL     1       1.273  -3.396   2.882  0.00  0.00    +0.015 C 
ENDROOT
BRANCH   1  21
ATOM     20  N   UNL     1       3.691  -1.236   4.095  0.00  0.00    -0.184 NA
ATOM     21  C   UNL     1       2.704  -1.934   4.517  0.00  0.00    +0.069 C 
ATOM     22  C   UNL     1       1.368  -1.281   4.761  0.00  0.00    +0.065 C 
BRANCH  20  25
ATOM     23  C   UNL     1       5.955  -1.130   3.367  0.00  0.00    +0.420 C 
ATOM     24  O   UNL     1       7.009  -1.676   3.110  0.00  0.00    -0.225 OA
ATOM     25  N   UNL     1       4.876  -1.868   3.697  0.00  0.00    -0.172 N 
ATOM     26  H   UNL     1       4.921  -2.836   3.660  0.00  0.00    +0.181 HD
BRANCH  23  27
ATOM     27  O   UNL     1       5.863   0.213   3.321  0.00  0.00    -0.450 OA
BRANCH  27  29
ATOM     28  C   UNL     1       6.749   2.433   2.964  0.00  0.00    +0.048 C 
ATOM     29  C   UNL     1       7.045   0.932   2.963  0.00  0.00    +0.230 C 
ENDBRANCH  27  29
ENDBRANCH  23  27
ENDBRANCH  20  25
ENDBRANCH   1  21
BRANCH   1  30
ATOM     30  O   UNL     1       4.246  -3.698   5.061  0.00  0.00    -0.378 OA
ATOM     31  H   UNL     1       4.590  -3.229   5.833  0.00  0.00    +0.211 HD
ENDBRANCH   1  30
BRANCH  16  32
ATOM     32  O   UNL     1       1.802 -11.348   0.372  0.00  0.00    -0.461 OA
BRANCH  32  33
ATOM     33  C   UNL     1       1.394 -12.552   0.802  0.00  0.00    +0.304 C 
ATOM     34  O   UNL     1       1.539 -12.860   1.962  0.00  0.00    -0.251 OA
ATOM     35  C   UNL     1       0.754 -13.519  -0.160  0.00  0.00    +0.136 C 
ENDBRANCH  32  33
ENDBRANCH  16  32
BRANCH   2  36
ATOM     36  O   UNL     1       2.775  -4.337   7.023  0.00  0.00    -0.458 OA
BRANCH  36  37
ATOM     37  C   UNL     1       2.288  -4.174   8.263  0.00  0.00    +0.304 C 
ATOM     38  O   UNL     1       1.219  -3.634   8.426  0.00  0.00    -0.251 OA
ATOM     39  C   UNL     1       3.073  -4.665   9.452  0.00  0.00    +0.136 C 
ENDBRANCH  36  37
ENDBRANCH   2  36
TORSDOF 9
