REMARK  Name = ZINC13123629
REMARK  6 active torsions:
REMARK  status: ('A' for Active; 'I' for Inactive)
REMARK    1  A    between atoms: C_1  and  C_2
REMARK    2  A    between atoms: C_3  and  C_27
REMARK    3  A    between atoms: C_4  and  C_21
REMARK    4  A    between atoms: C_9  and  S_11
REMARK    5  A    between atoms: S_11  and  C_12
REMARK    6  A    between atoms: C_12  and  C_13
REMARK                            x       y       z     vdW  Elec       q    Type
REMARK                         _______ _______ _______ _____ _____    ______ ____
ROOT
ATOM      1  C   UNL     1      -0.018   1.503   0.010  0.00  0.00    +0.061 C 
ATOM      2  C   UNL     1       0.002  -0.004   0.002  0.00  0.00    +0.018 C 
ATOM      3  C   UNL     1      -1.163  -0.668   0.004  0.00  0.00    +0.060 C 
ATOM      4  C   UNL     1      -1.252  -2.171  -0.015  0.00  0.00    +0.179 C 
ATOM      5  N   UNL     1       0.065  -2.740   0.257  0.00  0.00    -0.220 N 
ATOM      6  C   UNL     1       1.211  -2.015   0.250  0.00  0.00    +0.219 A 
ATOM      7  N   UNL     1       2.201  -2.821   0.522  0.00  0.00    -0.187 NA
ATOM      8  C   UNL     1       1.730  -4.062   0.711  0.00  0.00    +0.211 A 
ATOM      9  N   UNL     1       0.424  -4.053   0.558  0.00  0.00    -0.141 NA
ATOM     10  N   UNL     1       1.213  -0.651  -0.013  0.00  0.00    -0.287 N 
ATOM     11  H   UNL     1       2.038  -0.174  -0.197  0.00  0.00    +0.155 HD
ENDROOT
BRANCH   4  12
ATOM     12  C   UNL     1      -1.728  -2.628  -1.370  0.00  0.00    -0.000 A 
ATOM     13  C   UNL     1      -2.905  -3.351  -1.494  0.00  0.00    +0.009 A 
ATOM     14  C   UNL     1      -3.304  -3.751  -2.760  0.00  0.00    +0.020 A 
ATOM     15  C   UNL     1      -2.520  -3.419  -3.849  0.00  0.00    +0.111 A 
ATOM     16  N   UNL     1      -1.406  -2.730  -3.694  0.00  0.00    -0.263 NA
ATOM     17  C   UNL     1      -1.000  -2.328  -2.505  0.00  0.00    +0.116 A 
ENDBRANCH   4  12
BRANCH   3  18
ATOM     18  C   UNL     1      -2.365   0.079   0.026  0.00  0.00    +0.241 C 
ATOM     19  O   UNL     1      -2.325   1.296   0.042  0.00  0.00    -0.271 OA
ATOM     20  N   UNL     1      -3.553  -0.556   0.029  0.00  0.00    -0.325 N 
ATOM     21  H   UNL     1      -3.585  -1.526   0.016  0.00  0.00    +0.145 HD
ATOM     22  H   UNL     1      -4.377  -0.044   0.044  0.00  0.00    +0.145 HD
ENDBRANCH   3  18
BRANCH   8  23
ATOM     23  S   UNL     1       2.705  -5.478   1.102  0.00  0.00    -0.080 S 
BRANCH  23  24
ATOM     24  C   UNL     1       4.400  -4.837   1.172  0.00  0.00    +0.114 C 
BRANCH  24  25
ATOM     25  C   UNL     1       5.348  -5.961   1.503  0.00  0.00    -0.019 A 
ATOM     26  C   UNL     1       5.644  -6.251   2.821  0.00  0.00    +0.006 A 
ATOM     27  C   UNL     1       6.513  -7.282   3.124  0.00  0.00    +0.000 A 
ATOM     28  C   UNL     1       7.088  -8.024   2.109  0.00  0.00    +0.001 A 
ATOM     29  C   UNL     1       6.793  -7.735   0.790  0.00  0.00    +0.020 A 
ATOM     30  C   UNL     1       5.919  -6.706   0.486  0.00  0.00    +0.045 A 
ATOM     31 CL   UNL     1       5.543  -6.347  -1.170  0.00  0.00    -0.083 Cl
ENDBRANCH  24  25
ENDBRANCH  23  24
ENDBRANCH   8  23
TORSDOF 5
