REMARK  Name = ZINC63221964
REMARK  6 active torsions:
REMARK  status: ('A' for Active; 'I' for Inactive)
REMARK    1  A    between atoms: C_1  and  C_2
REMARK    2  A    between atoms: C_4  and  C_32
REMARK    3  A    between atoms: N_7  and  C_21
REMARK    4  A    between atoms: C_13  and  C_15
REMARK    5  A    between atoms: C_21  and  C_22
REMARK    6  A    between atoms: C_22  and  C_23
REMARK                            x       y       z     vdW  Elec       q    Type
REMARK                         _______ _______ _______ _____ _____    ______ ____
ROOT
ATOM      1  C   UNL     1       0.612   1.593  -0.244  0.00  0.00    +0.024 C 
ATOM      2  C   UNL     1       0.498   0.074  -0.390  0.00  0.00    +0.071 C 
ATOM      3  C   UNL     1       1.494  -0.455  -1.406  0.00  0.00    -0.057 C 
ATOM      4  C   UNL     1       2.558  -1.054  -0.992  0.00  0.00    -0.025 C 
ATOM      5  C   UNL     1       3.568  -1.767  -1.887  0.00  0.00    +0.119 C 
ATOM      6  N   UNL     1       3.489  -3.200  -1.576  0.00  0.00    -0.282 NA
ATOM      7  C   UNL     1       2.784  -3.512  -0.335  0.00  0.00    +0.197 C 
ATOM      8  N   UNL     1       3.093  -2.572   0.747  0.00  0.00    -0.269 N 
ATOM      9  C   UNL     1       2.769  -1.152   0.528  0.00  0.00    +0.164 C 
ATOM     10  S   UNL     1       1.073  -0.788   1.138  0.00  0.00    -0.126 S 
ATOM     11  C   UNL     1       3.652  -2.992   1.899  0.00  0.00    +0.249 C 
ATOM     12  O   UNL     1       3.906  -4.170   2.057  0.00  0.00    -0.270 OA
ATOM     13  C   UNL     1       1.242  -0.282  -2.881  0.00  0.00    +0.040 C 
ENDROOT
BRANCH  11  14
ATOM     14  C   UNL     1       3.955  -2.021   2.971  0.00  0.00    +0.037 A 
ATOM     15  C   UNL     1       3.346  -0.765   2.972  0.00  0.00    +0.013 A 
ATOM     16  C   UNL     1       3.633   0.137   3.975  0.00  0.00    +0.001 A 
ATOM     17  C   UNL     1       4.523  -0.200   4.979  0.00  0.00    +0.000 A 
ATOM     18  C   UNL     1       5.131  -1.443   4.985  0.00  0.00    +0.001 A 
ATOM     19  C   UNL     1       4.848  -2.357   3.990  0.00  0.00    +0.013 A 
ENDBRANCH  11  14
BRANCH   6  20
ATOM     20  C   UNL     1       4.822  -3.817  -1.593  0.00  0.00    +0.090 C 
BRANCH  20  21
ATOM     21  C   UNL     1       5.282  -3.997  -3.042  0.00  0.00    +0.048 C 
BRANCH  21  22
ATOM     22  C   UNL     1       6.696  -4.518  -3.059  0.00  0.00    -0.040 C 
ATOM     23  C   UNL     1       7.084  -5.811  -3.151  0.00  0.00    -0.001 A 
ATOM     24  C   UNL     1       6.336  -7.069  -3.257  0.00  0.00    +0.010 A 
ATOM     25  C   UNL     1       7.019  -8.234  -3.333  0.00  0.00    +0.001 A 
ATOM     26  C   UNL     1       8.420  -8.269  -3.314  0.00  0.00    +0.002 A 
ATOM     27  C   UNL     1       9.177  -7.155  -3.219  0.00  0.00    +0.026 A 
ATOM     28  C   UNL     1       8.563  -5.875  -3.132  0.00  0.00    +0.043 A 
ATOM     29  N   UNL     1       9.069  -4.670  -3.034  0.00  0.00    -0.380 N 
ATOM     30  C   UNL     1       7.967  -3.703  -2.983  0.00  0.00    +0.144 C 
ATOM     31  H   UNL     1      10.014  -4.453  -3.002  0.00  0.00    +0.160 HD
ENDBRANCH  21  22
ENDBRANCH  20  21
ENDBRANCH   6  20
TORSDOF 4
