REMARK  Name = ZINC57280282
REMARK  6 active torsions:
REMARK  status: ('A' for Active; 'I' for Inactive)
REMARK    1  A    between atoms: C_1  and  C_2
REMARK    2  A    between atoms: C_2  and  C_22
REMARK    3  A    between atoms: C_5  and  S_13
REMARK    4  A    between atoms: N_9  and  C_12
REMARK    5  A    between atoms: S_13  and  N_16
REMARK    6  A    between atoms: N_16  and  C_17
REMARK                            x       y       z     vdW  Elec       q    Type
REMARK                         _______ _______ _______ _____ _____    ______ ____
ROOT
ATOM      1  C   UNL     1      -0.019   1.526   0.010  0.00  0.00    +0.025 C 
ATOM      2  C   UNL     1       0.002  -0.004   0.002  0.00  0.00    +0.068 C 
ATOM      3  C   UNL     1       0.787  -0.516  -1.183  0.00  0.00    -0.010 A 
ATOM      4  C   UNL     1       0.621  -0.386  -2.544  0.00  0.00    +0.035 A 
ATOM      5  C   UNL     1       1.522  -0.981  -3.409  0.00  0.00    +0.111 A 
ATOM      6  C   UNL     1       2.587  -1.704  -2.903  0.00  0.00    +0.031 A 
ATOM      7  C   UNL     1       2.756  -1.837  -1.541  0.00  0.00    +0.026 A 
ATOM      8  C   UNL     1       1.853  -1.240  -0.663  0.00  0.00    +0.040 A 
ATOM      9  N   UNL     1       1.808  -1.229   0.732  0.00  0.00    -0.273 N 
ATOM     10  C   UNL     1       0.761  -0.531   1.202  0.00  0.00    +0.230 C 
ATOM     11  O   UNL     1       0.477  -0.355   2.368  0.00  0.00    -0.274 OA
ATOM     12  C   UNL     1       2.790  -1.902   1.585  0.00  0.00    +0.138 C 
ATOM     13  C   UNL     1      -1.424  -0.558  -0.016  0.00  0.00    +0.025 C 
ENDROOT
BRANCH   5  14
ATOM     14  S   UNL     1       1.314  -0.818  -5.151  0.00  0.00    +0.093 S 
ATOM     15  O   UNL     1       1.981  -1.922  -5.746  0.00  0.00    -0.148 OA
ATOM     16  O   UNL     1      -0.065  -0.551  -5.372  0.00  0.00    -0.148 OA
BRANCH  14  17
ATOM     17  N   UNL     1       2.139   0.540  -5.618  0.00  0.00    -0.074 NA
BRANCH  17  18
ATOM     18  C   UNL     1       2.150   0.922  -6.955  0.00  0.00    +0.204 A 
ATOM     19  C   UNL     1       2.813   2.048  -7.494  0.00  0.00    +0.091 A 
ATOM     20  C   UNL     1       2.585   2.073  -8.819  0.00  0.00    +0.232 A 
ATOM     21  O   UNL     1       1.814   1.019  -9.131  0.00  0.00    -0.361 OA
ATOM     22  N   UNL     1       1.553   0.299  -7.940  0.00  0.00    -0.060 NA
ENDBRANCH  17  18
ENDBRANCH  14  17
ENDBRANCH   5  14
TORSDOF 3
