REMARK  Name = ZINC12777303
REMARK  11 active torsions:
REMARK  status: ('A' for Active; 'I' for Inactive)
REMARK    1  A    between atoms: C_1  and  C_2
REMARK    2  A    between atoms: C_2  and  N_57
REMARK    3  A    between atoms: C_3  and  C_4
REMARK    4  A    between atoms: C_3  and  N_57
REMARK    5  A    between atoms: N_6  and  C_7
REMARK    6  A    between atoms: C_15  and  C_16
REMARK    7  A    between atoms: C_15  and  N_57
REMARK    8  A    between atoms: N_18  and  C_19
REMARK    9  A    between atoms: C_20  and  C_28
REMARK   10  A    between atoms: C_28  and  O_30
REMARK   11  A    between atoms: O_30  and  C_31
REMARK                            x       y       z     vdW  Elec       q    Type
REMARK                         _______ _______ _______ _____ _____    ______ ____
ROOT
ATOM      1  C   UNL     1       2.078   2.685  -0.592  0.00  0.00    +0.020 C 
ENDROOT
BRANCH   1   2
ATOM      2  C   UNL     1       0.847   2.123   0.072  0.00  0.00    +0.201 C 
ATOM      3  O   UNL     1       0.854   0.990   0.503  0.00  0.00    -0.278 OA
ATOM      4  N   UNL     1      -0.264   2.879   0.181  0.00  0.00    -0.281 N 
ATOM      5  H   UNL     1      -0.270   3.786  -0.163  0.00  0.00    +0.155 HD
BRANCH   4   6
ATOM      6  C   UNL     1      -1.398   2.360   0.787  0.00  0.00    +0.086 A 
ATOM      7  C   UNL     1      -2.624   2.979   0.996  0.00  0.00    +0.091 A 
ATOM      8  C   UNL     1      -3.661   2.205   1.658  0.00  0.00    -0.021 A 
ATOM      9  C   UNL     1      -3.307   0.951   2.011  0.00  0.00    -0.004 A 
ATOM     10  S   UNL     1      -1.628   0.786   1.472  0.00  0.00    -0.077 S 
ATOM     11  C   UNL     1      -4.158  -0.066   2.707  0.00  0.00    +0.043 C 
ATOM     12  C   UNL     1      -5.380   0.650   3.299  0.00  0.00    +0.005 C 
ATOM     13  C   UNL     1      -5.989   1.557   2.226  0.00  0.00    +0.005 C 
ATOM     14  C   UNL     1      -5.057   2.739   1.954  0.00  0.00    +0.037 C 
BRANCH   7  15
ATOM     15  C   UNL     1      -2.863   4.357   0.563  0.00  0.00    +0.342 C 
ATOM     16  O   UNL     1      -3.301   4.577  -0.550  0.00  0.00    -0.245 OA
BRANCH  15  17
ATOM     17  O   UNL     1      -2.599   5.382   1.399  0.00  0.00    -0.464 OA
ATOM     18  C   UNL     1      -2.860   6.721   0.902  0.00  0.00    +0.280 C 
ENDBRANCH  15  17
ENDBRANCH   7  15
ENDBRANCH   4   6
ENDBRANCH   1   2
BRANCH   1  19
ATOM     19  N   UNL     1       3.172   1.699  -0.469  0.00  0.00    +0.391 N 
ATOM     20  H   UNL     1       3.152   1.294   0.473  0.00  0.00    -0.080 HD
BRANCH  19  22
ATOM     21  C   UNL     1       4.849   3.122   0.598  0.00  0.00    -0.017 C 
ATOM     22  C   UNL     1       4.476   2.364  -0.678  0.00  0.00    -0.081 C 
ENDBRANCH  19  22
BRANCH  19  23
ATOM     23  C   UNL     1       2.992   0.619  -1.461  0.00  0.00    +0.020 C 
BRANCH  23  24
ATOM     24  C   UNL     1       3.986  -0.477  -1.173  0.00  0.00    +0.201 C 
ATOM     25  O   UNL     1       4.768  -0.359  -0.253  0.00  0.00    -0.278 OA
ATOM     26  N   UNL     1       4.006  -1.587  -1.937  0.00  0.00    -0.283 N 
ATOM     27  H   UNL     1       3.330  -1.718  -2.619  0.00  0.00    +0.155 HD
BRANCH  26  28
ATOM     28  C   UNL     1       5.005  -2.552  -1.744  0.00  0.00    +0.105 A 
ATOM     29  C   UNL     1       5.677  -3.086  -2.837  0.00  0.00    +0.147 A 
ATOM     30  C   UNL     1       6.665  -4.035  -2.643  0.00  0.00    +0.040 A 
ATOM     31  C   UNL     1       6.977  -4.459  -1.365  0.00  0.00    +0.006 A 
ATOM     32  C   UNL     1       6.307  -3.934  -0.276  0.00  0.00    +0.040 A 
ATOM     33  C   UNL     1       5.321  -2.981  -0.461  0.00  0.00    +0.147 A 
ATOM     34  F   UNL     1       4.666  -2.470   0.604  0.00  0.00    -0.203 F 
ATOM     35  F   UNL     1       5.369  -2.676  -4.087  0.00  0.00    -0.203 F 
ENDBRANCH  26  28
ENDBRANCH  23  24
ENDBRANCH  19  23
ENDBRANCH   1  19
TORSDOF 9
