REMARK  Name = ZINC63698408
REMARK  10 active torsions:
REMARK  status: ('A' for Active; 'I' for Inactive)
REMARK    1  A    between atoms: C_1  and  C_2
REMARK    2  A    between atoms: C_5  and  S_8
REMARK    3  A    between atoms: S_8  and  N_11
REMARK    4  A    between atoms: C_16  and  C_18
REMARK    5  A    between atoms: C_18  and  C_19
REMARK    6  A    between atoms: C_19  and  N_20
REMARK    7  A    between atoms: C_21  and  C_23
REMARK    8  A    between atoms: N_25  and  C_26
REMARK    9  A    between atoms: C_26  and  C_27
REMARK   10  A    between atoms: C_27  and  C_28
REMARK                            x       y       z     vdW  Elec       q    Type
REMARK                         _______ _______ _______ _____ _____    ______ ____
ROOT
ATOM      1  N   UNL     1       0.205  -3.405   3.403  0.00  0.00    -0.308 N 
ATOM      2  C   UNL     1      -0.446  -2.231   3.523  0.00  0.00    +0.299 C 
ATOM      3  O   UNL     1      -0.296  -1.366   2.686  0.00  0.00    -0.265 OA
ATOM      4  H   UNL     1       0.030  -4.123   4.031  0.00  0.00    +0.149 HD
ENDROOT
BRANCH   2   5
ATOM      5  C   UNL     1      -1.353  -1.995   4.687  0.00  0.00    +0.299 C 
ATOM      6  O   UNL     1      -1.503  -2.860   5.525  0.00  0.00    -0.265 OA
ATOM      7  N   UNL     1      -2.004  -0.821   4.807  0.00  0.00    -0.307 N 
ATOM      8  H   UNL     1      -1.884  -0.129   4.138  0.00  0.00    +0.149 HD
BRANCH   7   9
ATOM      9  C   UNL     1      -2.893  -0.590   5.949  0.00  0.00    +0.109 C 
BRANCH   9  10
ATOM     10  C   UNL     1      -3.501   0.810   5.846  0.00  0.00    +0.052 C 
BRANCH  10  11
ATOM     11  C   UNL     1      -4.415   1.048   7.020  0.00  0.00    -0.040 C 
ATOM     12  C   UNL     1      -4.103   1.668   8.181  0.00  0.00    -0.001 A 
ATOM     13  C   UNL     1      -2.867   2.282   8.679  0.00  0.00    +0.010 A 
ATOM     14  C   UNL     1      -2.861   2.837   9.912  0.00  0.00    +0.001 A 
ATOM     15  C   UNL     1      -4.003   2.841  10.725  0.00  0.00    +0.002 A 
ATOM     16  C   UNL     1      -5.176   2.297  10.336  0.00  0.00    +0.026 A 
ATOM     17  C   UNL     1      -5.296   1.685   9.058  0.00  0.00    +0.043 A 
ATOM     18  N   UNL     1      -6.306   1.099   8.462  0.00  0.00    -0.380 N 
ATOM     19  C   UNL     1      -5.869   0.648   7.136  0.00  0.00    +0.144 C 
ATOM     20  H   UNL     1      -7.194   0.985   8.835  0.00  0.00    +0.160 HD
ENDBRANCH  10  11
ENDBRANCH   9  10
ENDBRANCH   7   9
ENDBRANCH   2   5
BRANCH   1  21
ATOM     21  C   UNL     1       1.177  -3.597   2.324  0.00  0.00    +0.106 C 
BRANCH  21  22
ATOM     22  C   UNL     1       1.675  -5.043   2.337  0.00  0.00    +0.039 C 
BRANCH  22  28
ATOM     23  N   UNL     1       2.974  -6.695   1.076  0.00  0.00    -0.173 NA
ATOM     24  C   UNL     1       3.967  -7.119   0.079  0.00  0.00    +0.110 C 
ATOM     25  C   UNL     1       5.222  -6.254   0.235  0.00  0.00    +0.017 C 
ATOM     26  C   UNL     1       4.832  -4.777   0.146  0.00  0.00    +0.003 C 
ATOM     27  C   UNL     1       3.865  -4.433   1.281  0.00  0.00    +0.021 C 
ATOM     28  C   UNL     1       2.591  -5.278   1.134  0.00  0.00    +0.081 C 
BRANCH  23  29
ATOM     29  S   UNL     1       2.296  -7.796   2.111  0.00  0.00    +0.061 S 
ATOM     30  O   UNL     1       2.048  -7.108   3.330  0.00  0.00    -0.153 OA
ATOM     31  O   UNL     1       3.100  -8.965   2.046  0.00  0.00    -0.153 OA
BRANCH  29  36
ATOM     32  C   UNL     1      -3.095  -9.287  -0.152  0.00  0.00    +0.044 C 
ATOM     33  C   UNL     1      -1.749  -8.915   0.413  0.00  0.00    -0.050 A 
ATOM     34  C   UNL     1      -0.606  -9.535  -0.056  0.00  0.00    +0.005 A 
ATOM     35  C   UNL     1       0.629  -9.194   0.462  0.00  0.00    +0.029 A 
ATOM     36  C   UNL     1       0.721  -8.231   1.449  0.00  0.00    +0.106 A 
ATOM     37  C   UNL     1      -0.421  -7.609   1.918  0.00  0.00    +0.029 A 
ATOM     38  C   UNL     1      -1.656  -7.948   1.397  0.00  0.00    +0.005 A 
ENDBRANCH  29  36
ENDBRANCH  23  29
ENDBRANCH  22  28
ENDBRANCH  21  22
ENDBRANCH   1  21
TORSDOF 9
