REMARK  Name = ZINC21319365
REMARK  12 active torsions:
REMARK  status: ('A' for Active; 'I' for Inactive)
REMARK    1  A    between atoms: C_1  and  C_2
REMARK    2  A    between atoms: C_2  and  C_3
REMARK    3  A    between atoms: C_3  and  C_5
REMARK    4  A    between atoms: C_3  and  C_6
REMARK    5  A    between atoms: C_9  and  N_12
REMARK    6  A    between atoms: C_13  and  C_15
REMARK    7  A    between atoms: C_15  and  S_16
REMARK    8  A    between atoms: S_16  and  C_17
REMARK    9  A    between atoms: N_21  and  N_22
REMARK   10  A    between atoms: N_23  and  N_24
REMARK   11  A    between atoms: C_25  and  C_26
REMARK   12  A    between atoms: C_31  and  O_32
REMARK                            x       y       z     vdW  Elec       q    Type
REMARK                         _______ _______ _______ _____ _____    ______ ____
ROOT
ATOM      1  C   UNL     1      -4.574   6.271  10.474  0.00  0.00    +0.210 A 
ATOM      2  N   UNL     1      -5.021   5.346  11.289  0.00  0.00    -0.119 NA
ATOM      3  N   UNL     1      -5.589   5.983  12.399  0.00  0.00    -0.109 NA
ATOM      4  C   UNL     1      -5.478   7.278  12.224  0.00  0.00    +0.254 A 
ATOM      5  N   UNL     1      -4.848   7.489  11.029  0.00  0.00    -0.211 N 
ATOM      6  N   UNL     1      -5.922   8.260  13.097  0.00  0.00    -0.204 N 
ATOM      7  H   UNL     1      -5.777   9.322  12.849  0.00  0.00    +0.177 HD
ENDROOT
BRANCH   5   8
ATOM      8  N   UNL     1      -4.544   8.706  10.486  0.00  0.00    -0.294 N 
ATOM      9  H   UNL     1      -4.811   9.629  11.020  0.00  0.00    +0.163 HD
ATOM     10  H   UNL     1      -4.033   8.761   9.513  0.00  0.00    +0.163 HD
ENDBRANCH   5   8
BRANCH   6  11
ATOM     11  N   UNL     1      -6.556   7.900  14.293  0.00  0.00    -0.187 NA
ATOM     12  C   UNL     1      -6.972   8.819  15.110  0.00  0.00    +0.142 C 
BRANCH  12  13
ATOM     13  C   UNL     1      -7.638   8.440  16.369  0.00  0.00    +0.037 A 
ATOM     14  C   UNL     1      -8.087   9.426  17.251  0.00  0.00    +0.028 A 
ATOM     15  C   UNL     1      -8.710   9.064  18.427  0.00  0.00    +0.019 A 
ATOM     16  C   UNL     1      -8.892   7.727  18.738  0.00  0.00    +0.019 A 
ATOM     17  C   UNL     1      -8.453   6.742  17.873  0.00  0.00    +0.047 A 
ATOM     18  C   UNL     1      -7.830   7.088  16.685  0.00  0.00    +0.126 A 
ATOM     19 BR   UNL     1      -9.318  10.399  19.621  0.00  0.00    -0.050 Br
BRANCH  18  20
ATOM     20  O   UNL     1      -7.402   6.121  15.832  0.00  0.00    -0.506 OA
ATOM     21  H   UNL     1      -7.553   5.061  16.083  0.00  0.00    +0.292 HD
ENDBRANCH  18  20
ENDBRANCH  12  13
ENDBRANCH   6  11
BRANCH   1  22
ATOM     22  S   UNL     1      -3.770   5.993   8.931  0.00  0.00    -0.075 S 
BRANCH  22  23
ATOM     23  C   UNL     1      -3.718   4.186   8.783  0.00  0.00    +0.173 C 
BRANCH  23  25
ATOM     24  N   UNL     1      -2.893   2.509   7.163  0.00  0.00    -0.285 N 
ATOM     25  C   UNL     1      -3.045   3.807   7.489  0.00  0.00    +0.227 C 
ATOM     26  O   UNL     1      -2.640   4.672   6.740  0.00  0.00    -0.275 OA
ATOM     27  H   UNL     1      -3.336   1.727   7.798  0.00  0.00    +0.155 HD
BRANCH  24  31
ATOM     28  C   UNL     1      -0.746   1.453   3.753  0.00  0.00    -0.044 A 
ATOM     29  C   UNL     1      -1.825   0.687   4.153  0.00  0.00    +0.006 A 
ATOM     30  C   UNL     1      -2.535   1.031   5.286  0.00  0.00    +0.023 A 
ATOM     31  C   UNL     1      -2.172   2.154   6.018  0.00  0.00    +0.033 A 
ATOM     32  C   UNL     1      -1.091   2.924   5.610  0.00  0.00    +0.023 A 
ATOM     33  C   UNL     1      -0.381   2.572   4.479  0.00  0.00    +0.006 A 
BRANCH  28  34
ATOM     34  C   UNL     1       0.031   1.072   2.519  0.00  0.00    +0.016 C 
ATOM     35  C   UNL     1      -0.903   1.076   1.307  0.00  0.00    +0.012 C 
BRANCH  34  37
ATOM     36  C   UNL     1       1.513  -0.664   1.503  0.00  0.00    +0.004 C 
ATOM     37  C   UNL     1       0.623  -0.327   2.701  0.00  0.00    +0.004 C 
ENDBRANCH  34  37
ENDBRANCH  28  34
ENDBRANCH  24  31
ENDBRANCH  23  25
ENDBRANCH  22  23
ENDBRANCH   1  22
TORSDOF 10
