REMARK  Name = ZINC08947445
REMARK  11 active torsions:
REMARK  status: ('A' for Active; 'I' for Inactive)
REMARK    1  A    between atoms: C_1  and  C_2
REMARK    2  A    between atoms: C_2  and  C_4
REMARK    3  A    between atoms: C_2  and  N_14
REMARK    4  A    between atoms: C_15  and  C_17
REMARK    5  A    between atoms: C_17  and  N_18
REMARK    6  A    between atoms: C_21  and  C_25
REMARK    7  A    between atoms: C_21  and  C_26
REMARK    8  A    between atoms: C_29  and  C_32
REMARK    9  A    between atoms: C_32  and  C_33
REMARK   10  A    between atoms: C_32  and  C_34
REMARK   11  A    between atoms: C_32  and  C_35
REMARK                            x       y       z     vdW  Elec       q    Type
REMARK                         _______ _______ _______ _____ _____    ______ ____
ROOT
ATOM      1  N   UNL     1      -4.076   8.679  -2.083  0.00  0.00    -0.215 N 
ATOM      2  C   UNL     1      -3.412   9.827  -2.321  0.00  0.00    +0.251 C 
ATOM      3  O   UNL     1      -2.296   9.947  -2.777  0.00  0.00    -0.272 OA
ATOM      4  C   UNL     1      -4.352  10.939  -1.898  0.00  0.00    +0.135 C 
ATOM      5  N   UNL     1      -5.548  10.220  -1.426  0.00  0.00    -0.281 N 
ATOM      6  C   UNL     1      -5.293   8.908  -1.578  0.00  0.00    +0.310 C 
ATOM      7  O   UNL     1      -6.080   8.028  -1.286  0.00  0.00    -0.252 OA
ATOM      8  C   UNL     1      -3.737  11.761  -0.764  0.00  0.00    +0.047 C 
ATOM      9  H   UNL     1      -6.362  10.615  -1.077  0.00  0.00    +0.152 HD
ENDROOT
BRANCH   4  10
ATOM     10  C   UNL     1      -4.692  11.821  -3.071  0.00  0.00    -0.015 A 
ATOM     11  C   UNL     1      -3.777  11.995  -4.093  0.00  0.00    +0.006 A 
ATOM     12  C   UNL     1      -4.091  12.801  -5.171  0.00  0.00    +0.004 A 
ATOM     13  C   UNL     1      -5.315  13.441  -5.223  0.00  0.00    -0.042 A 
ATOM     14  C   UNL     1      -6.228  13.270  -4.199  0.00  0.00    +0.004 A 
ATOM     15  C   UNL     1      -5.917  12.461  -3.123  0.00  0.00    +0.006 A 
BRANCH  13  16
ATOM     16  C   UNL     1      -5.655  14.324  -6.396  0.00  0.00    -0.013 C 
ATOM     17  C   UNL     1      -5.925  15.746  -5.902  0.00  0.00    +0.015 C 
ATOM     18  C   UNL     1      -4.482  14.340  -7.379  0.00  0.00    +0.015 C 
ATOM     19  C   UNL     1      -6.901  13.782  -7.099  0.00  0.00    +0.015 C 
ENDBRANCH  13  16
ENDBRANCH   4  10
BRANCH   1  20
ATOM     20  C   UNL     1      -3.533   7.344  -2.350  0.00  0.00    +0.213 C 
BRANCH  20  22
ATOM     21  N   UNL     1      -2.219   5.631  -1.143  0.00  0.00    -0.311 N 
ATOM     22  C   UNL     1      -2.804   6.845  -1.129  0.00  0.00    +0.231 C 
ATOM     23  O   UNL     1      -2.744   7.536  -0.134  0.00  0.00    -0.274 OA
ATOM     24  H   UNL     1      -2.267   5.079  -1.939  0.00  0.00    +0.149 HD
BRANCH  21  26
ATOM     25  C   UNL     1      -0.075   5.675   0.033  0.00  0.00    +0.028 C 
ATOM     26  C   UNL     1      -1.510   5.146   0.044  0.00  0.00    +0.076 C 
BRANCH  26  27
ATOM     27  C   UNL     1      -1.490   3.616   0.036  0.00  0.00    -0.010 C 
ATOM     28  C   UNL     1      -0.773   3.123  -1.223  0.00  0.00    +0.012 C 
ATOM     29  C   UNL     1      -0.753   1.593  -1.232  0.00  0.00    -0.010 C 
ATOM     30  C   UNL     1      -0.013   1.086   0.008  0.00  0.00    +0.007 C 
ATOM     31  C   UNL     1      -0.729   1.579   1.267  0.00  0.00    -0.010 C 
ATOM     32  C   UNL     1      -0.750   3.109   1.275  0.00  0.00    +0.012 C 
ATOM     33  C   UNL     1      -2.164   1.050   1.278  0.00  0.00    +0.007 C 
ATOM     34  C   UNL     1      -2.904   1.556   0.038  0.00  0.00    -0.010 C 
ATOM     35  C   UNL     1      -2.188   1.063  -1.221  0.00  0.00    +0.007 C 
ATOM     36  C   UNL     1      -2.925   3.086   0.047  0.00  0.00    +0.012 C 
ENDBRANCH  26  27
ENDBRANCH  21  26
ENDBRANCH  20  22
ENDBRANCH   1  20
TORSDOF 6
