REMARK  Name = ZINC20883875
REMARK  9 active torsions:
REMARK  status: ('A' for Active; 'I' for Inactive)
REMARK    1  A    between atoms: C_1  and  C_2
REMARK    2  A    between atoms: C_2  and  C_3
REMARK    3  A    between atoms: C_2  and  C_4
REMARK    4  A    between atoms: C_4  and  O_5
REMARK    5  A    between atoms: O_5  and  C_6
REMARK    6  A    between atoms: C_9  and  C_12
REMARK    7  A    between atoms: C_17  and  C_27
REMARK    8  A    between atoms: C_30  and  O_33
REMARK    9  A    between atoms: O_33  and  C_34
REMARK                            x       y       z     vdW  Elec       q    Type
REMARK                         _______ _______ _______ _____ _____    ______ ____
ROOT
ATOM      1  C   UNL     1       0.041  -0.015  -0.110  0.00  0.00    +0.032 C 
ATOM      2  C   UNL     1      -0.734  -0.559  -1.308  0.00  0.00    +0.059 C 
ATOM      3  C   UNL     1      -0.750  -2.078  -1.271  0.00  0.00    +0.017 C 
ATOM      4  C   UNL     1      -0.746  -2.732  -0.096  0.00  0.00    +0.036 C 
ATOM      5  C   UNL     1      -0.773  -4.231   0.082  0.00  0.00    +0.136 C 
ATOM      6  N   UNL     1      -1.069  -4.976  -1.123  0.00  0.00    -0.331 N 
ATOM      7  C   UNL     1      -0.197  -4.956  -2.210  0.00  0.00    +0.049 A 
ATOM      8  C   UNL     1       0.465  -6.099  -2.630  0.00  0.00    +0.025 A 
ATOM      9  C   UNL     1       1.358  -6.019  -3.684  0.00  0.00    +0.002 A 
ATOM     10  C   UNL     1       1.591  -4.810  -4.314  0.00  0.00    +0.002 A 
ATOM     11  C   UNL     1       0.918  -3.670  -3.909  0.00  0.00    +0.025 A 
ATOM     12  C   UNL     1       0.008  -3.753  -2.869  0.00  0.00    +0.052 A 
ATOM     13  N   UNL     1      -0.785  -2.677  -2.488  0.00  0.00    -0.316 N 
ATOM     14  C   UNL     1      -0.711  -2.011   1.120  0.00  0.00    +0.163 C 
ATOM     15  O   UNL     1      -0.726  -2.627   2.168  0.00  0.00    -0.292 OA
ATOM     16  C   UNL     1      -0.655  -0.513   1.162  0.00  0.00    +0.088 C 
ATOM     17  H   UNL     1      -1.992  -5.569  -1.190  0.00  0.00    +0.147 HD
ATOM     18  H   UNL     1      -1.479  -2.314  -3.260  0.00  0.00    +0.152 HD
ENDROOT
BRANCH   1  22
ATOM     19  C   UNL     1       0.024   4.258  -0.191  0.00  0.00    +0.121 A 
ATOM     20  C   UNL     1       1.227   3.567  -0.200  0.00  0.00    +0.046 A 
ATOM     21  C   UNL     1       1.230   2.186  -0.173  0.00  0.00    +0.007 A 
ATOM     22  C   UNL     1       0.035   1.492  -0.139  0.00  0.00    -0.043 A 
ATOM     23  C   UNL     1      -1.166   2.177  -0.136  0.00  0.00    +0.007 A 
ATOM     24  C   UNL     1      -1.174   3.558  -0.157  0.00  0.00    +0.046 A 
BRANCH  19  25
ATOM     25  O   UNL     1       0.018   5.616  -0.218  0.00  0.00    -0.492 OA
BRANCH  25  26
ATOM     26  C   UNL     1      -1.257   6.260  -0.207  0.00  0.00    +0.232 C 
BRANCH  26  28
ATOM     27  C   UNL     1      -0.417   8.180  -1.567  0.00  0.00    +0.010 C 
ATOM     28  C   UNL     1      -1.063   7.777  -0.240  0.00  0.00    +0.020 C 
ATOM     29  C   UNL     1      -2.421   8.469  -0.104  0.00  0.00    +0.010 C 
ENDBRANCH  26  28
ENDBRANCH  25  26
ENDBRANCH  19  25
ENDBRANCH   1  22
BRANCH   5  30
ATOM     30  C   UNL     1       0.572  -4.674   0.599  0.00  0.00    -0.023 A 
ATOM     31  C   UNL     1       1.702  -4.500  -0.178  0.00  0.00    +0.009 A 
ATOM     32  C   UNL     1       2.936  -4.900   0.296  0.00  0.00    +0.046 A 
ATOM     33  C   UNL     1       3.040  -5.487   1.548  0.00  0.00    +0.120 A 
ATOM     34  C   UNL     1       1.904  -5.667   2.324  0.00  0.00    +0.046 A 
ATOM     35  C   UNL     1       0.672  -5.260   1.848  0.00  0.00    +0.009 A 
BRANCH  33  36
ATOM     36  O   UNL     1       4.252  -5.886   2.015  0.00  0.00    -0.495 OA
ATOM     37  C   UNL     1       5.378  -5.671   1.162  0.00  0.00    +0.277 C 
ENDBRANCH  33  36
ENDBRANCH   5  30
TORSDOF 6
