REMARK  Name = ZINC08839669
REMARK  4 active torsions:
REMARK  status: ('A' for Active; 'I' for Inactive)
REMARK    1  A    between atoms: C_4  and  N_8
REMARK    2  A    between atoms: N_11  and  C_12
REMARK    3  A    between atoms: C_12  and  C_13
REMARK    4  A    between atoms: N_16  and  C_20
REMARK                            x       y       z     vdW  Elec       q    Type
REMARK                         _______ _______ _______ _____ _____    ______ ____
ROOT
ATOM      1  C   UNL     1      -5.972   3.212  -0.856  0.00  0.00    +0.152 C 
ENDROOT
BRANCH   1   5
ATOM      2  N   UNL     1      -2.460   3.827   0.044  0.00  0.00    -0.265 N 
ATOM      3  C   UNL     1      -3.589   3.203  -0.348  0.00  0.00    +0.304 C 
ATOM      4  O   UNL     1      -3.564   2.020  -0.626  0.00  0.00    -0.253 OA
ATOM      5  N   UNL     1      -4.745   3.890  -0.430  0.00  0.00    -0.296 N 
ATOM      6  H   UNL     1      -2.494   4.751   0.336  0.00  0.00    +0.157 HD
ATOM      7  H   UNL     1      -4.765   4.835  -0.208  0.00  0.00    +0.150 HD
BRANCH   2  11
ATOM      8  C   UNL     1       1.176   1.783  -0.002  0.00  0.00    +0.006 A 
ATOM      9  C   UNL     1       0.398   1.781   1.141  0.00  0.00    +0.040 A 
ATOM     10  C   UNL     1      -0.810   2.454   1.159  0.00  0.00    +0.147 A 
ATOM     11  C   UNL     1      -1.238   3.140   0.029  0.00  0.00    +0.106 A 
ATOM     12  C   UNL     1      -0.454   3.139  -1.119  0.00  0.00    +0.147 A 
ATOM     13  C   UNL     1       0.751   2.460  -1.130  0.00  0.00    +0.040 A 
ATOM     14  F   UNL     1      -0.868   3.801  -2.222  0.00  0.00    -0.203 F 
ATOM     15  F   UNL     1      -1.572   2.447   2.275  0.00  0.00    -0.203 F 
ENDBRANCH   2  11
ENDBRANCH   1   5
BRANCH   1  16
ATOM     16  C   UNL     1      -7.131   4.211  -0.864  0.00  0.00    +0.213 C 
ATOM     17  C   UNL     1      -8.435   3.522  -1.309  0.00  0.00    +0.163 C 
ATOM     18  N   UNL     1      -9.324   3.671  -0.146  0.00  0.00    -0.234 N 
ATOM     19  C   UNL     1      -8.669   4.330   0.819  0.00  0.00    +0.408 C 
ATOM     20  O   UNL     1      -9.165   4.594   1.897  0.00  0.00    -0.226 OA
ATOM     21  O   UNL     1      -7.418   4.671   0.488  0.00  0.00    -0.444 OA
BRANCH  18  22
ATOM     22  C   UNL     1     -10.640   3.200  -0.062  0.00  0.00    +0.041 A 
ATOM     23  C   UNL     1     -11.210   2.533  -1.138  0.00  0.00    +0.025 A 
ATOM     24  C   UNL     1     -12.506   2.064  -1.050  0.00  0.00    +0.023 A 
ATOM     25  C   UNL     1     -13.241   2.269   0.104  0.00  0.00    +0.059 A 
ATOM     26  C   UNL     1     -12.677   2.939   1.177  0.00  0.00    +0.061 A 
ATOM     27  C   UNL     1     -11.378   3.405   1.096  0.00  0.00    +0.045 A 
ATOM     28 CL   UNL     1     -13.602   3.193   2.624  0.00  0.00    -0.082 Cl
ATOM     29 CL   UNL     1     -14.873   1.685   0.207  0.00  0.00    -0.082 Cl
ENDBRANCH  18  22
ENDBRANCH   1  16
TORSDOF 4
