REMARK  Name = ZINC40570114
REMARK  12 active torsions:
REMARK  status: ('A' for Active; 'I' for Inactive)
REMARK    1  A    between atoms: C_1  and  N_2
REMARK    2  A    between atoms: C_7  and  C_24
REMARK    3  A    between atoms: C_9  and  N_23
REMARK    4  A    between atoms: C_10  and  C_14
REMARK    5  A    between atoms: C_14  and  O_16
REMARK    6  A    between atoms: O_16  and  C_17
REMARK    7  A    between atoms: C_26  and  O_34
REMARK    8  A    between atoms: C_27  and  O_32
REMARK    9  A    between atoms: C_28  and  O_30
REMARK   10  A    between atoms: O_30  and  C_31
REMARK   11  A    between atoms: O_32  and  C_33
REMARK   12  A    between atoms: O_34  and  C_35
REMARK                            x       y       z     vdW  Elec       q    Type
REMARK                         _______ _______ _______ _____ _____    ______ ____
ROOT
ATOM      1  C   UNL     1       2.622   0.681  -1.736  0.00  0.00    +0.105 C 
ATOM      2  N   UNL     1       2.074  -0.622  -1.338  0.00  0.00    -0.301 NA
ATOM      3  C   UNL     1       0.603  -0.605  -1.361  0.00  0.00    +0.090 C 
ATOM      4  C   UNL     1       0.101  -2.048  -1.306  0.00  0.00    +0.069 C 
ATOM      5  C   UNL     1       0.765  -2.781  -0.167  0.00  0.00    +0.023 A 
ATOM      6  C   UNL     1       1.912  -2.300   0.431  0.00  0.00    -0.006 A 
ATOM      7  C   UNL     1       2.501  -3.008   1.476  0.00  0.00    -0.000 A 
ATOM      8  C   UNL     1       1.901  -4.225   1.916  0.00  0.00    +0.035 A 
ATOM      9  C   UNL     1       2.332  -5.121   2.975  0.00  0.00    +0.056 A 
ATOM     10  C   UNL     1       1.580  -6.251   3.222  0.00  0.00    +0.120 A 
ATOM     11  S   UNL     1       0.264  -6.138   2.026  0.00  0.00    -0.062 S 
ATOM     12  C   UNL     1       0.729  -4.619   1.234  0.00  0.00    +0.088 A 
ATOM     13  N   UNL     1       0.217  -3.913   0.252  0.00  0.00    -0.352 N 
ATOM     14  C   UNL     1       2.556  -1.011  -0.009  0.00  0.00    +0.121 C 
ATOM     15  H   UNL     1      -0.590  -4.231  -0.182  0.00  0.00    +0.166 HD
ENDROOT
BRANCH   7  16
ATOM     16  C   UNL     1       3.734  -2.504   2.122  0.00  0.00    -0.010 A 
ATOM     17  C   UNL     1       3.679  -1.390   2.959  0.00  0.00    +0.058 A 
ATOM     18  C   UNL     1       4.833  -0.920   3.561  0.00  0.00    +0.166 A 
ATOM     19  C   UNL     1       6.048  -1.559   3.332  0.00  0.00    +0.204 A 
ATOM     20  C   UNL     1       6.105  -2.671   2.497  0.00  0.00    +0.166 A 
ATOM     21  C   UNL     1       4.952  -3.147   1.898  0.00  0.00    +0.058 A 
BRANCH  20  22
ATOM     22  O   UNL     1       7.294  -3.293   2.274  0.00  0.00    -0.491 OA
ATOM     23  C   UNL     1       7.279  -4.428   1.406  0.00  0.00    +0.277 C 
ENDBRANCH  20  22
BRANCH  19  24
ATOM     24  O   UNL     1       7.181  -1.095   3.924  0.00  0.00    -0.488 OA
ATOM     25  C   UNL     1       7.511  -1.635   5.205  0.00  0.00    +0.277 C 
ENDBRANCH  19  24
BRANCH  18  26
ATOM     26  O   UNL     1       4.780   0.166   4.378  0.00  0.00    -0.491 OA
ATOM     27  C   UNL     1       3.500   0.772   4.568  0.00  0.00    +0.277 C 
ENDBRANCH  18  26
ENDBRANCH   7  16
BRANCH   9  28
ATOM     28  N   UNL     1       3.470  -4.847   3.719  0.00  0.00    -0.356 N 
ATOM     29  H   UNL     1       3.866  -3.962   3.692  0.00  0.00    +0.142 HD
ATOM     30  H   UNL     1       3.870  -5.541   4.267  0.00  0.00    +0.142 HD
ENDBRANCH   9  28
BRANCH  10  31
ATOM     31  C   UNL     1       1.801  -7.258   4.190  0.00  0.00    +0.353 C 
ATOM     32  O   UNL     1       2.759  -7.183   4.938  0.00  0.00    -0.244 OA
BRANCH  31  33
ATOM     33  O   UNL     1       0.950  -8.301   4.286  0.00  0.00    -0.422 OA
BRANCH  33  34
ATOM     34  C   UNL     1       1.135  -9.185   5.302  0.00  0.00    +0.132 A 
ATOM     35  C   UNL     1       0.731  -8.859   6.588  0.00  0.00    +0.046 A 
ATOM     36  C   UNL     1       0.920  -9.759   7.619  0.00  0.00    +0.004 A 
ATOM     37  C   UNL     1       1.512 -10.983   7.370  0.00  0.00    +0.000 A 
ATOM     38  C   UNL     1       1.917 -11.310   6.088  0.00  0.00    +0.004 A 
ATOM     39  C   UNL     1       1.724 -10.416   5.053  0.00  0.00    +0.046 A 
ENDBRANCH  33  34
ENDBRANCH  31  33
ENDBRANCH  10  31
TORSDOF 8
