REMARK  Name = ZINC57962333
REMARK  8 active torsions:
REMARK  status: ('A' for Active; 'I' for Inactive)
REMARK    1  A    between atoms: C_4  and  C_7
REMARK    2  A    between atoms: C_7  and  O_8
REMARK    3  A    between atoms: O_8  and  C_9
REMARK    4  A    between atoms: C_12  and  O_15
REMARK    5  A    between atoms: O_15  and  C_16
REMARK    6  A    between atoms: C_16  and  C_17
REMARK    7  A    between atoms: N_19  and  N_20
REMARK    8  A    between atoms: C_21  and  C_23
REMARK                            x       y       z     vdW  Elec       q    Type
REMARK                         _______ _______ _______ _____ _____    ______ ____
ROOT
ATOM      1  C   UNL     1       9.323  -3.850   3.302  0.00  0.00    +0.326 C 
ENDROOT
BRANCH   1   2
ATOM      2  C   UNL     1      10.638  -4.586   3.284  0.00  0.00    +0.267 C 
ATOM      3  O   UNL     1      11.159  -4.873   2.227  0.00  0.00    -0.271 OA
ATOM      4  N   UNL     1      11.236  -4.925   4.444  0.00  0.00    -0.231 N 
ATOM      5  H   UNL     1      10.820  -4.696   5.289  0.00  0.00    +0.173 HD
BRANCH   4   6
ATOM      6  N   UNL     1      12.459  -5.609   4.427  0.00  0.00    -0.229 N 
ATOM      7  C   UNL     1      13.057  -5.948   5.587  0.00  0.00    +0.276 C 
ATOM      8  O   UNL     1      12.535  -5.660   6.647  0.00  0.00    -0.267 OA
ATOM      9  H   UNL     1      12.875  -5.839   3.582  0.00  0.00    +0.173 HD
BRANCH   7  10
ATOM     10  C   UNL     1      14.337  -6.664   5.570  0.00  0.00    +0.104 A 
ATOM     11  C   UNL     1      15.054  -7.077   6.672  0.00  0.00    +0.047 A 
ATOM     12  C   UNL     1      16.204  -7.717   6.199  0.00  0.00    +0.036 A 
ATOM     13  C   UNL     1      16.170  -7.684   4.844  0.00  0.00    +0.098 A 
ATOM     14  N   UNL     1      15.037  -7.052   4.450  0.00  0.00    -0.356 N 
ATOM     15  H   UNL     1      14.766  -6.897   3.531  0.00  0.00    +0.166 HD
ATOM     16 BR   UNL     1      17.566  -8.489   7.260  0.00  0.00    -0.049 Br
ENDBRANCH   7  10
ENDBRANCH   4   6
ENDBRANCH   1   2
BRANCH   1  17
ATOM     17  O   UNL     1       8.896  -3.606   1.960  0.00  0.00    -0.483 OA
BRANCH  17  21
ATOM     18  C   UNL     1       5.319  -1.605   1.467  0.00  0.00    +0.121 A 
ATOM     19  C   UNL     1       6.048  -2.007   0.357  0.00  0.00    +0.049 A 
ATOM     20  C   UNL     1       7.245  -2.677   0.522  0.00  0.00    +0.049 A 
ATOM     21  C   UNL     1       7.718  -2.946   1.798  0.00  0.00    +0.121 A 
ATOM     22  C   UNL     1       6.990  -2.544   2.907  0.00  0.00    +0.049 A 
ATOM     23  C   UNL     1       5.795  -1.871   2.742  0.00  0.00    +0.049 A 
BRANCH  18  24
ATOM     24  O   UNL     1       4.141  -0.946   1.304  0.00  0.00    -0.487 OA
BRANCH  24  25
ATOM     25  C   UNL     1       3.711  -0.707  -0.038  0.00  0.00    +0.264 C 
BRANCH  25  29
ATOM     26  C   UNL     1      -0.017   1.378   0.010  0.00  0.00    +0.000 A 
ATOM     27  C   UNL     1       1.171   2.086   0.002  0.00  0.00    +0.000 A 
ATOM     28  C   UNL     1       2.377   1.411  -0.013  0.00  0.00    +0.007 A 
ATOM     29  C   UNL     1       2.396   0.029  -0.020  0.00  0.00    -0.010 A 
ATOM     30  C   UNL     1       1.208  -0.679  -0.012  0.00  0.00    +0.007 A 
ATOM     31  C   UNL     1       0.002  -0.004   0.002  0.00  0.00    +0.000 A 
ENDBRANCH  25  29
ENDBRANCH  24  25
ENDBRANCH  18  24
ENDBRANCH  17  21
ENDBRANCH   1  17
TORSDOF 8
