REMARK  Name = ZINC15834088
REMARK  5 active torsions:
REMARK  status: ('A' for Active; 'I' for Inactive)
REMARK    1  A    between atoms: C_1  and  C_2
REMARK    2  A    between atoms: C_5  and  C_8
REMARK    3  A    between atoms: C_20  and  C_22
REMARK    4  A    between atoms: N_28  and  C_35
REMARK    5  A    between atoms: N_31  and  C_34
REMARK                            x       y       z     vdW  Elec       q    Type
REMARK                         _______ _______ _______ _____ _____    ______ ____
ROOT
ATOM      1  C   UNL     1      -1.490  -0.390   0.252  0.00  0.00    +0.069 A 
ATOM      2  C   UNL     1      -0.209   0.014   0.532  0.00  0.00    +0.089 A 
ATOM      3  C   UNL     1      -0.164   1.478   0.289  0.00  0.00    +0.082 A 
ATOM      4  C   UNL     1      -1.376   1.832  -0.112  0.00  0.00    +0.073 A 
ATOM      5  N   UNL     1      -2.194   0.711  -0.125  0.00  0.00    -0.306 N 
ATOM      6  C   UNL     1      -3.542   0.801  -0.504  0.00  0.00    +0.068 A 
ATOM      7  C   UNL     1      -4.293  -0.328  -0.778  0.00  0.00    +0.028 A 
ATOM      8  C   UNL     1      -5.613  -0.193  -1.173  0.00  0.00    +0.002 A 
ATOM      9  C   UNL     1      -6.175   1.064  -1.300  0.00  0.00    +0.002 A 
ATOM     10  C   UNL     1      -5.429   2.195  -1.027  0.00  0.00    +0.025 A 
ATOM     11  C   UNL     1      -4.109   2.072  -0.624  0.00  0.00    +0.052 A 
ATOM     12  N   UNL     1      -3.348   3.208  -0.325  0.00  0.00    -0.330 N 
ATOM     13  C   UNL     1      -1.891   3.193  -0.527  0.00  0.00    +0.150 C 
ATOM     14  N   UNL     1       1.042   2.162   0.502  0.00  0.00    -0.294 N 
ATOM     15  C   UNL     1       2.102   1.433   0.918  0.00  0.00    +0.332 A 
ATOM     16  O   UNL     1       3.147   2.026   1.101  0.00  0.00    -0.246 OA
ATOM     17  N   UNL     1       2.097   0.116   1.145  0.00  0.00    -0.263 N 
ATOM     18  C   UNL     1       1.005  -0.674   0.984  0.00  0.00    +0.266 A 
ATOM     19  O   UNL     1       1.031  -1.871   1.200  0.00  0.00    -0.267 OA
ATOM     20  C   UNL     1       3.343  -0.511   1.594  0.00  0.00    +0.157 C 
ATOM     21  C   UNL     1       1.148   3.606   0.283  0.00  0.00    +0.154 C 
ATOM     22  H   UNL     1      -3.781   4.005   0.016  0.00  0.00    +0.147 HD
ENDROOT
BRANCH   1  27
ATOM     23  C   UNL     1      -3.515  -5.763   0.608  0.00  0.00    +0.044 C 
ATOM     24  C   UNL     1      -2.985  -4.355   0.514  0.00  0.00    -0.050 A 
ATOM     25  C   UNL     1      -1.898  -4.081  -0.298  0.00  0.00    +0.004 A 
ATOM     26  C   UNL     1      -1.407  -2.795  -0.388  0.00  0.00    +0.010 A 
ATOM     27  C   UNL     1      -2.010  -1.768   0.343  0.00  0.00    -0.000 A 
ATOM     28  C   UNL     1      -3.103  -2.054   1.165  0.00  0.00    +0.010 A 
ATOM     29  C   UNL     1      -3.587  -3.343   1.241  0.00  0.00    +0.004 A 
ENDBRANCH   1  27
BRANCH  13  30
ATOM     30  C   UNL     1      -1.576   3.436  -1.981  0.00  0.00    -0.021 A 
ATOM     31  C   UNL     1      -2.145   2.636  -2.954  0.00  0.00    +0.006 A 
ATOM     32  C   UNL     1      -1.859   2.861  -4.288  0.00  0.00    +0.000 A 
ATOM     33  C   UNL     1      -0.998   3.880  -4.648  0.00  0.00    +0.000 A 
ATOM     34  C   UNL     1      -0.424   4.677  -3.674  0.00  0.00    +0.000 A 
ATOM     35  C   UNL     1      -0.713   4.455  -2.341  0.00  0.00    +0.006 A 
ENDBRANCH  13  30
TORSDOF 2
