REMARK  Name = ZINC09293744
REMARK  11 active torsions:
REMARK  status: ('A' for Active; 'I' for Inactive)
REMARK    1  A    between atoms: C_1  and  C_2
REMARK    2  A    between atoms: C_7  and  C_8
REMARK    3  A    between atoms: N_11  and  C_12
REMARK    4  A    between atoms: C_12  and  C_14
REMARK    5  A    between atoms: C_17  and  N_20
REMARK    6  A    between atoms: N_20  and  S_21
REMARK    7  A    between atoms: S_21  and  C_24
REMARK    8  A    between atoms: N_30  and  C_31
REMARK    9  A    between atoms: C_31  and  C_32
REMARK   10  A    between atoms: C_32  and  O_33
REMARK   11  A    between atoms: O_33  and  C_34
REMARK                            x       y       z     vdW  Elec       q    Type
REMARK                         _______ _______ _______ _____ _____    ______ ____
ROOT
ATOM      1  C   UNL     1       1.996  -1.606  -0.999  0.00  0.00    +0.269 C 
ATOM      2  O   UNL     1       0.818  -1.781  -1.262  0.00  0.00    -0.268 OA
ENDROOT
BRANCH   1  13
ATOM      3  C   UNL     1       0.241   6.654  -1.545  0.00  0.00    +0.044 C 
ATOM      4  C   UNL     1       0.069   5.157  -1.557  0.00  0.00    -0.046 A 
ATOM      5  C   UNL     1       1.153   4.351  -1.299  0.00  0.00    +0.030 A 
ATOM      6  C   UNL     1       1.024   2.954  -1.302  0.00  0.00    +0.058 A 
ATOM      7  C   UNL     1      -0.250   2.437  -1.581  0.00  0.00    +0.039 A 
ATOM      8  C   UNL     1      -1.333   3.244  -1.835  0.00  0.00    +0.020 A 
ATOM      9  C   UNL     1      -1.178   4.619  -1.828  0.00  0.00    -0.046 A 
ATOM     10  C   UNL     1      -2.353   5.520  -2.108  0.00  0.00    +0.044 C 
ATOM     11  S   UNL     1      -0.006   0.681  -1.493  0.00  0.00    -0.052 S 
ATOM     12  C   UNL     1       1.686   0.679  -1.111  0.00  0.00    +0.167 A 
ATOM     13  N   UNL     1       2.484  -0.364  -0.912  0.00  0.00    -0.152 NA
ATOM     14  N   UNL     1       1.999   2.002  -1.065  0.00  0.00    -0.319 N 
BRANCH  14  15
ATOM     15  C   UNL     1       3.371   2.420  -0.763  0.00  0.00    +0.152 C 
BRANCH  15  16
ATOM     16  C   UNL     1       3.971   1.478   0.283  0.00  0.00    +0.181 C 
BRANCH  16  17
ATOM     17  O   UNL     1       5.257   1.962   0.676  0.00  0.00    -0.381 OA
ATOM     18  C   UNL     1       5.909   1.151   1.656  0.00  0.00    +0.194 C 
ENDBRANCH  16  17
ENDBRANCH  15  16
ENDBRANCH  14  15
ENDBRANCH   1  13
BRANCH   1  19
ATOM     19  C   UNL     1       2.884  -2.767  -0.776  0.00  0.00    +0.039 A 
ATOM     20  C   UNL     1       4.234  -2.568  -0.481  0.00  0.00    +0.015 A 
ATOM     21  C   UNL     1       5.058  -3.650  -0.270  0.00  0.00    +0.025 A 
ATOM     22  C   UNL     1       4.549  -4.942  -0.360  0.00  0.00    +0.048 A 
ATOM     23  C   UNL     1       3.205  -5.144  -0.660  0.00  0.00    +0.025 A 
ATOM     24  C   UNL     1       2.376  -4.065  -0.867  0.00  0.00    +0.015 A 
BRANCH  22  25
ATOM     25  N   UNL     1       5.385  -6.035  -0.152  0.00  0.00    -0.216 N 
ATOM     26  H   UNL     1       5.095  -6.767   0.414  0.00  0.00    +0.174 HD
BRANCH  25  27
ATOM     27  S   UNL     1       6.876  -6.085  -0.871  0.00  0.00    +0.072 S 
ATOM     28  O   UNL     1       7.500  -4.838  -0.600  0.00  0.00    -0.150 OA
ATOM     29  O   UNL     1       7.463  -7.326  -0.503  0.00  0.00    -0.150 OA
BRANCH  27  30
ATOM     30  C   UNL     1       6.613  -6.149  -2.612  0.00  0.00    +0.108 A 
ATOM     31  C   UNL     1       6.392  -7.364  -3.233  0.00  0.00    +0.029 A 
ATOM     32  C   UNL     1       6.180  -7.414  -4.599  0.00  0.00    +0.002 A 
ATOM     33  C   UNL     1       6.201  -6.250  -5.344  0.00  0.00    +0.000 A 
ATOM     34  C   UNL     1       6.428  -5.036  -4.723  0.00  0.00    +0.002 A 
ATOM     35  C   UNL     1       6.634  -4.985  -3.357  0.00  0.00    +0.029 A 
ENDBRANCH  27  30
ENDBRANCH  25  27
ENDBRANCH  22  25
ENDBRANCH   1  19
TORSDOF 8
