REMARK  Name = ZINC08868910
REMARK  9 active torsions:
REMARK  status: ('A' for Active; 'I' for Inactive)
REMARK    1  A    between atoms: C_1  and  C_2
REMARK    2  A    between atoms: N_11  and  C_12
REMARK    3  A    between atoms: C_12  and  C_13
REMARK    4  A    between atoms: C_13  and  N_60
REMARK    5  A    between atoms: C_14  and  N_60
REMARK    6  A    between atoms: C_15  and  N_60
REMARK    7  A    between atoms: C_16  and  C_18
REMARK    8  A    between atoms: N_23  and  S_24
REMARK    9  A    between atoms: S_24  and  C_27
REMARK                            x       y       z     vdW  Elec       q    Type
REMARK                         _______ _______ _______ _____ _____    ______ ____
ROOT
ATOM      1  C   UNL     1      -1.336   2.302   1.064  0.00  0.00    +0.046 C 
ATOM      2  C   UNL     1       0.039   1.707   0.903  0.00  0.00    -0.024 A 
ATOM      3  C   UNL     1       0.198   0.346   0.939  0.00  0.00    +0.005 A 
ATOM      4  C   UNL     1       1.445  -0.242   0.788  0.00  0.00    +0.001 A 
ATOM      5  C   UNL     1       2.555   0.561   0.597  0.00  0.00    +0.017 A 
ATOM      6  C   UNL     1       2.406   1.924   0.560  0.00  0.00    +0.041 A 
ATOM      7  C   UNL     1       1.151   2.559   0.709  0.00  0.00    +0.083 A 
ATOM      8  N   UNL     1       1.167   3.908   0.648  0.00  0.00    -0.224 NA
ATOM      9  C   UNL     1       2.272   4.593   0.463  0.00  0.00    +0.168 A 
ATOM     10  S   UNL     1       3.504   3.304   0.345  0.00  0.00    -0.052 S 
ATOM     11  N   UNL     1       2.439   5.966   0.380  0.00  0.00    -0.251 N 
ATOM     12  C   UNL     1       1.387   6.786   0.571  0.00  0.00    +0.240 C 
ATOM     13  O   UNL     1       0.280   6.322   0.745  0.00  0.00    -0.273 OA
ENDROOT
BRANCH  12  14
ATOM     14  C   UNL     1       1.585   8.280   0.568  0.00  0.00    +0.166 C 
ATOM     15  C   UNL     1       1.909   8.769   1.996  0.00  0.00    +0.031 C 
ATOM     16  C   UNL     1       1.141  10.115   2.084  0.00  0.00    +0.019 C 
ATOM     17  C   UNL     1      -0.127   9.805   1.251  0.00  0.00    +0.110 C 
ATOM     18  N   UNL     1       0.345   8.948   0.148  0.00  0.00    -0.165 NA
BRANCH  18  19
ATOM     19  S   UNL     1      -0.397   8.770  -1.321  0.00  0.00    +0.062 S 
ATOM     20  O   UNL     1      -1.118   9.971  -1.561  0.00  0.00    -0.153 OA
ATOM     21  O   UNL     1       0.590   8.281  -2.219  0.00  0.00    -0.153 OA
BRANCH  19  22
ATOM     22  C   UNL     1      -1.596   7.490  -1.147  0.00  0.00    +0.106 A 
ATOM     23  C   UNL     1      -1.276   6.191  -1.498  0.00  0.00    +0.031 A 
ATOM     24  C   UNL     1      -2.214   5.186  -1.356  0.00  0.00    +0.040 A 
ATOM     25  C   UNL     1      -3.477   5.481  -0.874  0.00  0.00    +0.124 A 
ATOM     26  C   UNL     1      -3.798   6.783  -0.528  0.00  0.00    +0.040 A 
ATOM     27  C   UNL     1      -2.857   7.786  -0.665  0.00  0.00    +0.031 A 
ATOM     28  F   UNL     1      -4.397   4.500  -0.741  0.00  0.00    -0.205 F 
ENDBRANCH  19  22
ENDBRANCH  18  19
ENDBRANCH  12  14
BRANCH  11  29
ATOM     29  C   UNL     1       3.760   6.526   0.085  0.00  0.00    +0.097 C 
BRANCH  29  30
ATOM     30  C   UNL     1       3.893   6.753  -1.422  0.00  0.00    -0.060 C 
BRANCH  30  33
ATOM     31  C   UNL     1       6.280   6.346  -1.416  0.00  0.00    -0.097 C 
ATOM     32  C   UNL     1       5.298   7.766  -3.114  0.00  0.00    -0.097 C 
ATOM     33  N   UNL     1       5.221   7.337  -1.701  0.00  0.00    +0.377 N 
ATOM     34  H   UNL     1       5.359   8.156  -1.097  0.00  0.00    -0.083 HD
ENDBRANCH  30  33
ENDBRANCH  29  30
ENDBRANCH  11  29
TORSDOF 6
