REMARK  Name = ZINC59830623
REMARK  10 active torsions:
REMARK  status: ('A' for Active; 'I' for Inactive)
REMARK    1  A    between atoms: C_1  and  C_2
REMARK    2  A    between atoms: C_2  and  C_28
REMARK    3  A    between atoms: N_3  and  N_4
REMARK    4  A    between atoms: C_7  and  S_10
REMARK    5  A    between atoms: S_10  and  C_11
REMARK    6  A    between atoms: C_11  and  C_12
REMARK    7  A    between atoms: C_12  and  C_13
REMARK    8  A    between atoms: N_15  and  C_16
REMARK    9  A    between atoms: N_15  and  C_22
REMARK   10  A    between atoms: C_33  and  O_34
REMARK                            x       y       z     vdW  Elec       q    Type
REMARK                         _______ _______ _______ _____ _____    ______ ____
ROOT
ATOM      1  N   UNL     1       0.039  -0.835   1.766  0.00  0.00    -0.205 N 
ATOM      2  C   UNL     1       0.065  -1.406   3.025  0.00  0.00    +0.232 A 
ATOM      3  N   UNL     1       0.046  -2.695   3.291  0.00  0.00    -0.186 NA
ATOM      4  C   UNL     1       0.083  -2.882   4.614  0.00  0.00    +0.210 A 
ATOM      5  N   UNL     1       0.125  -1.714   5.209  0.00  0.00    -0.144 NA
ATOM      6  N   UNL     1       0.119  -0.739   4.197  0.00  0.00    -0.245 N 
ATOM      7  H   UNL     1       0.061   0.130   1.670  0.00  0.00    +0.177 HD
ATOM      8  H   UNL     1       0.147   0.223   4.318  0.00  0.00    +0.192 HD
ENDROOT
BRANCH   1  11
ATOM      9  C   UNL     1      -0.009   0.385  -0.703  0.00  0.00    +0.068 C 
ATOM     10  C   UNL     1      -0.042  -1.115  -0.554  0.00  0.00    +0.067 C 
ATOM     11  N   UNL     1      -0.018  -1.651   0.628  0.00  0.00    -0.184 NA
BRANCH  10  12
ATOM     12  C   UNL     1      -0.102  -1.973  -1.751  0.00  0.00    +0.039 A 
ATOM     13  C   UNL     1      -0.123  -1.400  -3.025  0.00  0.00    +0.013 A 
ATOM     14  C   UNL     1      -0.179  -2.209  -4.141  0.00  0.00    +0.001 A 
ATOM     15  C   UNL     1      -0.216  -3.586  -4.004  0.00  0.00    +0.004 A 
ATOM     16  C   UNL     1      -0.197  -4.164  -2.749  0.00  0.00    +0.046 A 
ATOM     17  C   UNL     1      -0.134  -3.367  -1.618  0.00  0.00    +0.126 A 
BRANCH  17  18
ATOM     18  O   UNL     1      -0.108  -3.935  -0.384  0.00  0.00    -0.506 OA
ATOM     19  H   UNL     1      -0.984  -4.077   0.002  0.00  0.00    +0.292 HD
ENDBRANCH  17  18
ENDBRANCH  10  12
ENDBRANCH   1  11
BRANCH   4  20
ATOM     20  S   UNL     1       0.075  -4.445   5.428  0.00  0.00    -0.084 S 
BRANCH  20  21
ATOM     21  C   UNL     1       0.137  -4.022   7.191  0.00  0.00    +0.087 C 
BRANCH  21  22
ATOM     22  C   UNL     1       0.136  -5.305   8.024  0.00  0.00    +0.108 C 
BRANCH  22  23
ATOM     23  C   UNL     1       0.188  -4.954   9.488  0.00  0.00    +0.225 C 
ATOM     24  O   UNL     1       0.317  -3.798   9.830  0.00  0.00    -0.275 OA
ATOM     25  N   UNL     1       0.089  -5.925  10.418  0.00  0.00    -0.240 N 
BRANCH  25  26
ATOM     26  C   UNL     1       0.060  -7.269  10.027  0.00  0.00    +0.041 A 
ATOM     27  C   UNL     1       1.178  -7.847   9.439  0.00  0.00    +0.024 A 
ATOM     28  C   UNL     1       1.146  -9.173   9.053  0.00  0.00    +0.002 A 
ATOM     29  C   UNL     1       0.002  -9.925   9.252  0.00  0.00    +0.000 A 
ATOM     30  C   UNL     1      -1.112  -9.352   9.838  0.00  0.00    +0.002 A 
ATOM     31  C   UNL     1      -1.084  -8.028  10.231  0.00  0.00    +0.024 A 
ENDBRANCH  25  26
BRANCH  25  32
ATOM     32  C   UNL     1       0.017  -5.589  11.776  0.00  0.00    +0.041 A 
ATOM     33  C   UNL     1      -0.986  -4.743  12.230  0.00  0.00    +0.024 A 
ATOM     34  C   UNL     1      -1.055  -4.414  13.570  0.00  0.00    +0.002 A 
ATOM     35  C   UNL     1      -0.126  -4.926  14.458  0.00  0.00    +0.000 A 
ATOM     36  C   UNL     1       0.873  -5.769  14.008  0.00  0.00    +0.002 A 
ATOM     37  C   UNL     1       0.944  -6.107  12.671  0.00  0.00    +0.024 A 
ENDBRANCH  25  32
ENDBRANCH  22  23
ENDBRANCH  21  22
ENDBRANCH  20  21
ENDBRANCH   4  20
TORSDOF 9
