REMARK  Name = ZINC17269804
REMARK  8 active torsions:
REMARK  status: ('A' for Active; 'I' for Inactive)
REMARK    1  A    between atoms: C_1  and  C_2
REMARK    2  A    between atoms: C_2  and  C_3
REMARK    3  A    between atoms: C_3  and  C_4
REMARK    4  A    between atoms: C_4  and  C_5
REMARK    5  A    between atoms: C_13  and  C_15
REMARK    6  A    between atoms: N_17  and  C_31
REMARK    7  A    between atoms: N_22  and  C_25
REMARK    8  A    between atoms: C_31  and  C_32
REMARK                            x       y       z     vdW  Elec       q    Type
REMARK                         _______ _______ _______ _____ _____    ______ ____
ROOT
ATOM      1  C   UNL     1      -1.636   4.117   4.778  0.00  0.00    +0.081 A 
ATOM      2  C   UNL     1      -0.364   3.759   4.440  0.00  0.00    +0.101 A 
ATOM      3  N   UNL     1       0.001   2.461   4.300  0.00  0.00    -0.349 N 
ATOM      4  C   UNL     1      -0.842   1.429   4.489  0.00  0.00    +0.101 A 
ATOM      5  C   UNL     1      -2.150   1.646   4.839  0.00  0.00    +0.085 A 
ATOM      6  C   UNL     1      -3.315   0.814   5.119  0.00  0.00    +0.283 A 
ATOM      7  O   UNL     1      -3.369  -0.405   5.096  0.00  0.00    -0.265 OA
ATOM      8  N   UNL     1      -4.324   1.665   5.409  0.00  0.00    -0.196 N 
ATOM      9  N   UNL     1      -3.880   2.988   5.332  0.00  0.00    -0.162 NA
ATOM     10  C   UNL     1      -2.621   3.041   5.004  0.00  0.00    +0.112 A 
ENDROOT
BRANCH   1  19
ATOM     11  C   UNL     1      -1.368   8.882   0.876  0.00  0.00    +0.216 C 
ATOM     12  O   UNL     1      -1.603  10.060   1.042  0.00  0.00    -0.276 OA
ATOM     13  N   UNL     1      -1.803   7.975   1.774  0.00  0.00    -0.298 N 
ATOM     14  C   UNL     1      -2.564   8.400   2.957  0.00  0.00    +0.126 C 
ATOM     15  C   UNL     1      -1.857   7.869   4.210  0.00  0.00    +0.127 C 
ATOM     16  N   UNL     1      -1.579   6.439   4.023  0.00  0.00    -0.294 N 
ATOM     17  C   UNL     1      -0.813   6.015   2.842  0.00  0.00    +0.127 C 
ATOM     18  C   UNL     1      -1.525   6.545   1.586  0.00  0.00    +0.126 C 
ATOM     19  C   UNL     1      -2.014   5.532   4.920  0.00  0.00    +0.250 C 
ATOM     20  O   UNL     1      -2.718   5.883   5.848  0.00  0.00    -0.270 OA
BRANCH  11  21
ATOM     21  C   UNL     1      -0.589   8.432  -0.333  0.00  0.00    +0.096 C 
BRANCH  21  22
ATOM     22  C   UNL     1      -0.217   9.649  -1.182  0.00  0.00    +0.009 C 
BRANCH  22  24
ATOM     23  C   UNL     1       0.945  10.409  -3.259  0.00  0.00    +0.004 C 
ATOM     24  C   UNL     1       0.574   9.192  -2.409  0.00  0.00    -0.003 C 
ENDBRANCH  22  24
ENDBRANCH  21  22
ENDBRANCH  11  21
ENDBRANCH   1  19
BRANCH   8  25
ATOM     25  C   UNL     1      -5.627   1.277   5.739  0.00  0.00    +0.069 A 
ATOM     26  C   UNL     1      -6.195   0.162   5.136  0.00  0.00    +0.028 A 
ATOM     27  C   UNL     1      -7.480  -0.222   5.468  0.00  0.00    +0.002 A 
ATOM     28  C   UNL     1      -8.204   0.509   6.392  0.00  0.00    +0.000 A 
ATOM     29  C   UNL     1      -7.644   1.623   6.990  0.00  0.00    +0.002 A 
ATOM     30  C   UNL     1      -6.358   2.009   6.666  0.00  0.00    +0.028 A 
ENDBRANCH   8  25
BRANCH   3  31
ATOM     31  C   UNL     1       1.387   2.166   3.928  0.00  0.00    +0.152 C 
BRANCH  31  32
ATOM     32  C   UNL     1       1.504   2.106   2.403  0.00  0.00    +0.138 C 
ATOM     33  C   UNL     1       2.929   1.673   1.990  0.00  0.00    +0.035 C 
ATOM     34  C   UNL     1       3.226   2.509   0.726  0.00  0.00    +0.031 C 
ATOM     35  C   UNL     1       1.946   3.349   0.521  0.00  0.00    +0.160 C 
ATOM     36  O   UNL     1       1.340   3.423   1.830  0.00  0.00    -0.375 OA
ENDBRANCH  31  32
ENDBRANCH   3  31
TORSDOF 7
