REMARK  Name = ZINC20885786
REMARK  10 active torsions:
REMARK  status: ('A' for Active; 'I' for Inactive)
REMARK    1  A    between atoms: C_1  and  C_2
REMARK    2  A    between atoms: C_2  and  O_3
REMARK    3  A    between atoms: O_3  and  C_4
REMARK    4  A    between atoms: C_6  and  C_12
REMARK    5  A    between atoms: C_9  and  O_10
REMARK    6  A    between atoms: C_17  and  C_22
REMARK    7  A    between atoms: C_25  and  O_30
REMARK    8  A    between atoms: C_26  and  O_28
REMARK    9  A    between atoms: O_28  and  C_29
REMARK   10  A    between atoms: O_30  and  C_31
REMARK                            x       y       z     vdW  Elec       q    Type
REMARK                         _______ _______ _______ _____ _____    ______ ____
ROOT
ATOM      1  C   UNL     1       4.633  -3.635  -7.941  0.00  0.00    +0.136 C 
ATOM      2  C   UNL     1       4.015  -2.916  -6.766  0.00  0.00    +0.036 C 
ATOM      3  C   UNL     1       2.719  -2.586  -6.636  0.00  0.00    +0.017 C 
ATOM      4  C   UNL     1       2.229  -1.860  -5.395  0.00  0.00    +0.059 C 
ATOM      5  C   UNL     1       3.056  -2.284  -4.182  0.00  0.00    +0.032 C 
ATOM      6  C   UNL     1       4.519  -1.925  -4.468  0.00  0.00    +0.088 C 
ATOM      7  C   UNL     1       4.937  -2.600  -5.740  0.00  0.00    +0.163 C 
ATOM      8  O   UNL     1       6.108  -2.885  -5.895  0.00  0.00    -0.292 OA
ATOM      9  N   UNL     1       1.759  -2.843  -7.561  0.00  0.00    -0.316 N 
ATOM     10  C   UNL     1       1.582  -4.062  -8.204  0.00  0.00    +0.052 A 
ATOM     11  C   UNL     1       0.447  -4.835  -8.028  0.00  0.00    +0.025 A 
ATOM     12  C   UNL     1       0.314  -6.016  -8.738  0.00  0.00    +0.002 A 
ATOM     13  C   UNL     1       1.304  -6.419  -9.615  0.00  0.00    +0.002 A 
ATOM     14  C   UNL     1       2.448  -5.656  -9.779  0.00  0.00    +0.025 A 
ATOM     15  C   UNL     1       2.593  -4.485  -9.054  0.00  0.00    +0.049 A 
ATOM     16  N   UNL     1       3.772  -3.742  -9.100  0.00  0.00    -0.331 N 
ATOM     17  H   UNL     1       1.048  -2.055  -7.849  0.00  0.00    +0.152 HD
ATOM     18  H   UNL     1       4.045  -3.233 -10.036  0.00  0.00    +0.147 HD
ENDROOT
BRANCH   1  21
ATOM     19  C   UNL     1       6.703  -6.683  -7.102  0.00  0.00    +0.163 A 
ATOM     20  C   UNL     1       6.347  -5.405  -7.505  0.00  0.00    +0.055 A 
ATOM     21  C   UNL     1       5.018  -5.025  -7.502  0.00  0.00    -0.018 A 
ATOM     22  C   UNL     1       4.041  -5.914  -7.093  0.00  0.00    +0.029 A 
ATOM     23  C   UNL     1       4.389  -7.192  -6.694  0.00  0.00    +0.086 A 
ATOM     24  C   UNL     1       5.720  -7.580  -6.695  0.00  0.00    +0.177 A 
ATOM     25 CL   UNL     1       3.160  -8.308  -6.187  0.00  0.00    -0.080 Cl
BRANCH  24  26
ATOM     26  O   UNL     1       6.065  -8.835  -6.299  0.00  0.00    -0.502 OA
ATOM     27  H   UNL     1       5.287  -9.543  -5.978  0.00  0.00    +0.292 HD
ENDBRANCH  24  26
BRANCH  19  28
ATOM     28  O   UNL     1       8.010  -7.059  -7.105  0.00  0.00    -0.489 OA
BRANCH  28  30
ATOM     29  C   UNL     1      10.369  -6.686  -7.471  0.00  0.00    +0.048 C 
ATOM     30  C   UNL     1       8.963  -6.086  -7.536  0.00  0.00    +0.226 C 
ENDBRANCH  28  30
ENDBRANCH  19  28
ENDBRANCH   1  21
BRANCH   5  31
ATOM     31  C   UNL     1       2.580  -1.549  -2.956  0.00  0.00    -0.040 A 
ATOM     32  C   UNL     1       2.590  -0.167  -2.933  0.00  0.00    +0.008 A 
ATOM     33  C   UNL     1       2.154   0.512  -1.811  0.00  0.00    +0.049 A 
ATOM     34  C   UNL     1       1.704  -0.193  -0.706  0.00  0.00    +0.161 A 
ATOM     35  C   UNL     1       1.699  -1.584  -0.727  0.00  0.00    +0.162 A 
ATOM     36  C   UNL     1       2.132  -2.258  -1.857  0.00  0.00    +0.053 A 
BRANCH  35  37
ATOM     37  O   UNL     1       1.263  -2.281   0.357  0.00  0.00    -0.491 OA
ATOM     38  C   UNL     1       1.286  -3.706   0.264  0.00  0.00    +0.277 C 
ENDBRANCH  35  37
BRANCH  34  39
ATOM     39  O   UNL     1       1.274   0.474   0.399  0.00  0.00    -0.491 OA
ATOM     40  C   UNL     1       1.313   1.901   0.352  0.00  0.00    +0.277 C 
ENDBRANCH  34  39
ENDBRANCH   5  31
TORSDOF 7
