REMARK  Name = ZINC60915735
REMARK  9 active torsions:
REMARK  status: ('A' for Active; 'I' for Inactive)
REMARK    1  A    between atoms: C_1  and  C_2
REMARK    2  A    between atoms: C_4  and  C_26
REMARK    3  A    between atoms: C_5  and  O_9
REMARK    4  A    between atoms: C_6  and  C_8
REMARK    5  A    between atoms: O_9  and  C_10
REMARK    6  A    between atoms: C_10  and  C_12
REMARK    7  A    between atoms: C_12  and  C_13
REMARK    8  A    between atoms: C_13  and  C_14
REMARK    9  A    between atoms: C_14  and  N_15
REMARK                            x       y       z     vdW  Elec       q    Type
REMARK                         _______ _______ _______ _____ _____    ______ ____
ROOT
ATOM      1  C   UNL     1       2.787  -6.690  -0.049  0.00  0.00    +0.031 C 
ENDROOT
BRANCH   1   2
ATOM      2  C   UNL     1       1.322  -6.250  -0.039  0.00  0.00    +0.122 C 
BRANCH   2   3
ATOM      3  C   UNL     1       1.250  -4.744  -0.030  0.00  0.00    +0.312 C 
ATOM      4  O   UNL     1       2.267  -4.091  -0.032  0.00  0.00    -0.250 OA
BRANCH   3   5
ATOM      5  O   UNL     1       0.057  -4.129  -0.021  0.00  0.00    -0.425 OA
BRANCH   5  10
ATOM      6  C   UNL     1      -0.018   1.503   0.010  0.00  0.00    +0.044 C 
ATOM      7  C   UNL     1       0.002  -0.004   0.002  0.00  0.00    -0.050 A 
ATOM      8  C   UNL     1       0.006  -0.688  -1.200  0.00  0.00    +0.010 A 
ATOM      9  C   UNL     1       0.024  -2.069  -1.210  0.00  0.00    -0.008 A 
ATOM     10  C   UNL     1       0.039  -2.770  -0.013  0.00  0.00    +0.137 A 
ATOM     11  C   UNL     1       0.036  -2.082   1.191  0.00  0.00    -0.008 A 
ATOM     12  C   UNL     1       0.023  -0.701   1.196  0.00  0.00    +0.010 A 
ATOM     13  C   UNL     1       0.052  -2.841   2.493  0.00  0.00    +0.047 C 
ATOM     14  C   UNL     1       0.027  -2.813  -2.520  0.00  0.00    +0.047 C 
ENDBRANCH   5  10
ENDBRANCH   3   5
ENDBRANCH   2   3
ENDBRANCH   1   2
BRANCH   1  15
ATOM     15  C   UNL     1       2.861  -8.218  -0.057  0.00  0.00    +0.118 C 
BRANCH  15  16
ATOM     16  N   UNL     1       4.263  -8.640  -0.067  0.00  0.00    -0.224 N 
ATOM     17  C   UNL     1       4.986  -8.847  -1.189  0.00  0.00    +0.246 C 
ATOM     18  O   UNL     1       4.615  -8.725  -2.336  0.00  0.00    -0.273 OA
ATOM     19  C   UNL     1       6.354  -9.262  -0.709  0.00  0.00    +0.113 C 
ATOM     20  C   UNL     1       7.431  -8.286  -1.202  0.00  0.00    +0.035 C 
ATOM     21  C   UNL     1       8.664  -9.188  -1.462  0.00  0.00    +0.003 C 
ATOM     22  C   UNL     1       8.031 -10.482  -2.034  0.00  0.00    +0.003 C 
ATOM     23  C   UNL     1       6.725 -10.654  -1.226  0.00  0.00    +0.035 C 
ATOM     24  N   UNL     1       6.252  -9.244   0.751  0.00  0.00    -0.285 N 
ATOM     25  C   UNL     1       4.990  -8.862   1.036  0.00  0.00    +0.309 C 
ATOM     26  O   UNL     1       4.560  -8.737   2.166  0.00  0.00    -0.252 OA
ATOM     27  H   UNL     1       6.952  -9.460   1.387  0.00  0.00    +0.151 HD
ENDBRANCH  15  16
ENDBRANCH   1  15
TORSDOF 6
