REMARK  Name = ZINC10732284
REMARK  7 active torsions:
REMARK  status: ('A' for Active; 'I' for Inactive)
REMARK    1  A    between atoms: C_1  and  C_2
REMARK    2  A    between atoms: C_2  and  C_4
REMARK    3  A    between atoms: C_2  and  O_12
REMARK    4  A    between atoms: N_6  and  C_7
REMARK    5  A    between atoms: C_7  and  C_8
REMARK    6  A    between atoms: O_12  and  C_13
REMARK    7  A    between atoms: C_13  and  C_15
REMARK                            x       y       z     vdW  Elec       q    Type
REMARK                         _______ _______ _______ _____ _____    ______ ____
ROOT
ATOM      1  C   UNL     1       2.942  -2.192   0.857  0.00  0.00    +0.078 A 
ATOM      2  C   UNL     1       4.028  -1.475   0.354  0.00  0.00    +0.017 A 
ATOM      3  C   UNL     1       5.312  -1.968   0.488  0.00  0.00    +0.013 A 
ATOM      4  C   UNL     1       5.529  -3.192   1.116  0.00  0.00    +0.035 A 
ATOM      5  C   UNL     1       4.440  -3.924   1.621  0.00  0.00    +0.052 A 
ATOM      6  C   UNL     1       3.147  -3.422   1.490  0.00  0.00    +0.066 A 
ATOM      7 CL   UNL     1       1.797  -4.319   2.110  0.00  0.00    -0.082 Cl
ATOM      8  C   UNL     1       4.667  -5.222   2.289  0.00  0.00    +0.196 C 
ATOM      9  O   UNL     1       3.725  -5.854   2.725  0.00  0.00    -0.287 OA
ATOM     10  C   UNL     1       6.040  -5.751   2.426  0.00  0.00    +0.033 A 
ATOM     11  C   UNL     1       6.261  -6.973   3.055  0.00  0.00    +0.012 A 
ATOM     12  C   UNL     1       7.550  -7.461   3.180  0.00  0.00    +0.001 A 
ATOM     13  C   UNL     1       8.622  -6.743   2.683  0.00  0.00    +0.001 A 
ATOM     14  C   UNL     1       8.420  -5.526   2.056  0.00  0.00    +0.012 A 
ATOM     15  C   UNL     1       7.130  -5.020   1.922  0.00  0.00    +0.033 A 
ATOM     16  C   UNL     1       6.904  -3.722   1.253  0.00  0.00    +0.195 C 
ATOM     17  O   UNL     1       7.846  -3.090   0.818  0.00  0.00    -0.287 OA
ENDROOT
BRANCH   1  18
ATOM     18  C   UNL     1       1.572  -1.655   0.715  0.00  0.00    +0.341 C 
ATOM     19  O   UNL     1       0.626  -2.281   1.149  0.00  0.00    -0.245 OA
BRANCH  18  20
ATOM     20  O   UNL     1       1.373  -0.470   0.106  0.00  0.00    -0.449 OA
BRANCH  20  22
ATOM     21  C   UNL     1      -0.613  -0.515  -1.302  0.00  0.00    +0.062 C 
ATOM     22  C   UNL     1       0.002  -0.004   0.002  0.00  0.00    +0.259 C 
BRANCH  22  23
ATOM     23  C   UNL     1      -0.018   1.503   0.010  0.00  0.00    +0.254 C 
ATOM     24  O   UNL     1       1.024   2.123   0.004  0.00  0.00    -0.272 OA
ATOM     25  N   UNL     1      -1.195   2.161   0.019  0.00  0.00    -0.304 N 
ATOM     26  H   UNL     1      -2.028   1.664   0.021  0.00  0.00    +0.149 HD
BRANCH  25  27
ATOM     27  C   UNL     1      -1.214   3.626   0.028  0.00  0.00    +0.217 C 
BRANCH  27  28
ATOM     28  C   UNL     1      -2.664   4.116   0.037  0.00  0.00    +0.405 C 
ATOM     29  F   UNL     1      -3.311   3.634   1.180  0.00  0.00    -0.169 F 
ATOM     30  F   UNL     1      -2.683   5.515   0.045  0.00  0.00    -0.169 F 
ATOM     31  F   UNL     1      -3.322   3.647  -1.105  0.00  0.00    -0.169 F 
ENDBRANCH  27  28
ENDBRANCH  25  27
ENDBRANCH  22  23
ENDBRANCH  20  22
ENDBRANCH  18  20
ENDBRANCH   1  18
TORSDOF 6
