REMARK  Name = ZINC36738365
REMARK  7 active torsions:
REMARK  status: ('A' for Active; 'I' for Inactive)
REMARK    1  A    between atoms: C_1  and  C_2
REMARK    2  A    between atoms: C_2  and  C_3
REMARK    3  A    between atoms: C_2  and  C_4
REMARK    4  A    between atoms: C_2  and  C_5
REMARK    5  A    between atoms: C_5  and  C_6
REMARK    6  A    between atoms: N_8  and  C_9
REMARK    7  A    between atoms: C_12  and  N_16
REMARK                            x       y       z     vdW  Elec       q    Type
REMARK                         _______ _______ _______ _____ _____    ______ ____
ROOT
ATOM      1  C   UNL     1       4.236   0.284  -2.352  0.00  0.00    +0.062 A 
ATOM      2  C   UNL     1       4.821   0.810  -1.207  0.00  0.00    +0.042 A 
ATOM      3  C   UNL     1       6.082   1.371  -1.270  0.00  0.00    +0.040 A 
ATOM      4  C   UNL     1       6.765   1.409  -2.479  0.00  0.00    +0.027 A 
ATOM      5  C   UNL     1       6.181   0.884  -3.624  0.00  0.00    +0.040 A 
ATOM      6  C   UNL     1       4.922   0.317  -3.559  0.00  0.00    +0.042 A 
ATOM      7 BR   UNL     1       4.130  -0.406  -5.117  0.00  0.00    -0.048 Br
ATOM      8 BR   UNL     1       3.890   0.759   0.439  0.00  0.00    -0.048 Br
ENDROOT
BRANCH   1  11
ATOM      9  C   UNL     1       1.868   0.477  -2.516  0.00  0.00    +0.218 C 
ATOM     10  O   UNL     1       1.989   1.672  -2.686  0.00  0.00    -0.275 OA
ATOM     11  N   UNL     1       2.957  -0.285  -2.288  0.00  0.00    -0.284 N 
ATOM     12  H   UNL     1       2.854  -1.227  -2.080  0.00  0.00    +0.155 HD
BRANCH   9  13
ATOM     13  C   UNL     1       0.501  -0.156  -2.559  0.00  0.00    +0.102 C 
BRANCH  13  15
ATOM     14  C   UNL     1      -0.258   1.593  -4.174  0.00  0.00    +0.011 C 
ATOM     15  C   UNL     1      -0.551   0.921  -2.831  0.00  0.00    -0.029 C 
ATOM     16  C   UNL     1      -0.509   1.968  -1.716  0.00  0.00    +0.011 C 
ATOM     17  C   UNL     1      -1.939   0.278  -2.874  0.00  0.00    +0.011 C 
ENDBRANCH  13  15
ENDBRANCH   9  13
ENDBRANCH   1  11
BRANCH   4  18
ATOM     18  N   UNL     1       8.042   1.977  -2.542  0.00  0.00    -0.358 N 
ATOM     19  H   UNL     1       8.450   2.344  -1.743  0.00  0.00    +0.142 HD
ATOM     20  H   UNL     1       8.519   2.003  -3.387  0.00  0.00    +0.142 HD
ENDBRANCH   4  18
TORSDOF 4
