REMARK  Name = ZINC39503046
REMARK  7 active torsions:
REMARK  status: ('A' for Active; 'I' for Inactive)
REMARK    1  A    between atoms: C_1  and  S_2
REMARK    2  A    between atoms: S_2  and  C_3
REMARK    3  A    between atoms: C_9  and  S_12
REMARK    4  A    between atoms: S_12  and  O_15
REMARK    5  A    between atoms: O_15  and  C_16
REMARK    6  A    between atoms: N_22  and  C_24
REMARK    7  A    between atoms: C_24  and  C_25
REMARK                            x       y       z     vdW  Elec       q    Type
REMARK                         _______ _______ _______ _____ _____    ______ ____
ROOT
ATOM      1  C   UNL     1       0.932  -0.227  -1.530  0.00  0.00    +0.028 C 
ATOM      2  C   UNL     1       0.929  -1.779  -1.553  0.00  0.00    +0.000 C 
ATOM      3  C   UNL     1       2.153  -2.110  -2.424  0.00  0.00    -0.062 C 
ATOM      4  C   UNL     1       2.863  -3.360  -1.891  0.00  0.00    -0.010 C 
ATOM      5  C   UNL     1       2.832  -4.399  -3.032  0.00  0.00    +0.028 C 
ATOM      6  C   UNL     1       1.628  -3.967  -3.907  0.00  0.00    +0.170 C 
ATOM      7  C   UNL     1       1.708  -2.420  -3.863  0.00  0.00    +0.018 C 
ATOM      8  N   UNL     1       3.050  -0.948  -2.400  0.00  0.00    +0.387 N 
ATOM      9  C   UNL     1       2.449   0.087  -1.527  0.00  0.00    -0.063 C 
ATOM     10  H   UNL     1       3.159  -0.582  -3.334  0.00  0.00    -0.080 HD
ENDROOT
BRANCH   6  11
ATOM     11  S   UNL     1       1.816  -4.577  -5.605  0.00  0.00    +0.123 S 
ATOM     12  O   UNL     1       0.643  -4.300  -6.357  0.00  0.00    -0.136 OA
ATOM     13  O   UNL     1       3.099  -4.231  -6.110  0.00  0.00    -0.136 OA
BRANCH  11  14
ATOM     14  O   UNL     1       1.846  -6.093  -5.475  0.00  0.00    -0.346 OA
BRANCH  14  15
ATOM     15  C   UNL     1       0.631  -6.651  -5.230  0.00  0.00    +0.156 A 
ATOM     16  C   UNL     1       0.199  -6.826  -3.923  0.00  0.00    +0.048 A 
ATOM     17  C   UNL     1      -1.037  -7.393  -3.676  0.00  0.00    +0.004 A 
ATOM     18  C   UNL     1      -1.842  -7.786  -4.730  0.00  0.00    +0.000 A 
ATOM     19  C   UNL     1      -1.412  -7.612  -6.033  0.00  0.00    +0.004 A 
ATOM     20  C   UNL     1      -0.180  -7.041  -6.285  0.00  0.00    +0.048 A 
ENDBRANCH  14  15
ENDBRANCH  11  14
ENDBRANCH   6  11
BRANCH   1  22
ATOM     21  C   UNL     1       0.191   2.204  -0.220  0.00  0.00    +0.084 C 
ATOM     22  S   UNL     1       0.136   0.402  -0.025  0.00  0.00    -0.163 S 
ENDBRANCH   1  22
BRANCH   8  23
ATOM     23  C   UNL     1       4.361  -1.345  -1.867  0.00  0.00    -0.042 C 
BRANCH  23  24
ATOM     24  C   UNL     1       5.298  -0.165  -1.908  0.00  0.00    -0.064 A 
ATOM     25  C   UNL     1       6.074   0.063  -3.029  0.00  0.00    +0.002 A 
ATOM     26  C   UNL     1       6.934   1.145  -3.066  0.00  0.00    +0.000 A 
ATOM     27  C   UNL     1       7.016   1.999  -1.982  0.00  0.00    +0.000 A 
ATOM     28  C   UNL     1       6.239   1.772  -0.862  0.00  0.00    +0.000 A 
ATOM     29  C   UNL     1       5.377   0.692  -0.826  0.00  0.00    +0.002 A 
ENDBRANCH  23  24
ENDBRANCH   8  23
TORSDOF 6
