REMARK  Name = ZINC39912160
REMARK  14 active torsions:
REMARK  status: ('A' for Active; 'I' for Inactive)
REMARK    1  A    between atoms: C_1  and  C_2
REMARK    2  A    between atoms: C_4  and  C_36
REMARK    3  A    between atoms: C_5  and  O_35
REMARK    4  A    between atoms: C_6  and  C_8
REMARK    5  A    between atoms: N_16  and  C_32
REMARK    6  A    between atoms: C_17  and  C_19
REMARK    7  A    between atoms: C_22  and  O_27
REMARK    8  A    between atoms: C_23  and  O_25
REMARK    9  A    between atoms: O_25  and  C_26
REMARK   10  A    between atoms: O_27  and  C_28
REMARK   11  A    between atoms: C_28  and  C_29
REMARK   12  A    between atoms: C_29  and  C_30
REMARK   13  A    between atoms: C_29  and  C_31
REMARK   14  A    between atoms: C_32  and  C_33
REMARK                            x       y       z     vdW  Elec       q    Type
REMARK                         _______ _______ _______ _____ _____    ______ ____
ROOT
ATOM      1  C   UNL     1      -0.284  -2.373   2.270  0.00  0.00    +0.102 A 
ATOM      2  C   UNL     1       0.009  -2.084   3.607  0.00  0.00    +0.035 A 
ATOM      3  C   UNL     1       0.210  -3.306   4.221  0.00  0.00    +0.126 A 
ATOM      4  N   UNL     1       0.033  -4.252   3.251  0.00  0.00    -0.272 N 
ATOM      5  H   UNL     1       0.111  -5.209   3.385  0.00  0.00    +0.189 HD
ATOM      6  N   UNL     1      -0.257  -3.684   2.134  0.00  0.00    -0.173 NA
ATOM      7  C   UNL     1       0.524  -3.072   5.635  0.00  0.00    +0.266 C 
ATOM      8  O   UNL     1       0.754  -3.946   6.449  0.00  0.00    -0.268 OA
ATOM      9  N   UNL     1       0.521  -1.754   5.903  0.00  0.00    -0.281 N 
ATOM     10  C   UNL     1       0.201  -1.032   4.665  0.00  0.00    +0.142 C 
ENDROOT
BRANCH   1  16
ATOM     11  C   UNL     1      -1.109   2.344   0.858  0.00  0.00    +0.044 C 
ATOM     12  C   UNL     1      -0.976   0.882   0.519  0.00  0.00    -0.049 A 
ATOM     13  C   UNL     1      -1.130   0.461  -0.790  0.00  0.00    +0.010 A 
ATOM     14  C   UNL     1      -1.010  -0.878  -1.111  0.00  0.00    -0.008 A 
ATOM     15  C   UNL     1      -0.734  -1.807  -0.121  0.00  0.00    +0.129 A 
ATOM     16  C   UNL     1      -0.579  -1.385   1.202  0.00  0.00    +0.044 A 
ATOM     17  C   UNL     1      -0.696  -0.033   1.514  0.00  0.00    +0.017 A 
ATOM     18  C   UNL     1      -1.178  -1.328  -2.540  0.00  0.00    +0.047 C 
BRANCH  15  19
ATOM     19  O   UNL     1      -0.617  -3.123  -0.435  0.00  0.00    -0.506 OA
ATOM     20  H   UNL     1       0.283  -3.395  -0.663  0.00  0.00    +0.292 HD
ENDBRANCH  15  19
ENDBRANCH   1  16
BRANCH  10  21
ATOM     21  C   UNL     1       1.339  -0.119   4.288  0.00  0.00    -0.019 A 
ATOM     22  C   UNL     1       1.078   1.173   3.873  0.00  0.00    +0.009 A 
ATOM     23  C   UNL     1       2.119   2.014   3.526  0.00  0.00    +0.050 A 
ATOM     24  C   UNL     1       3.427   1.563   3.595  0.00  0.00    +0.162 A 
ATOM     25  C   UNL     1       3.690   0.263   4.014  0.00  0.00    +0.162 A 
ATOM     26  C   UNL     1       2.642  -0.574   4.365  0.00  0.00    +0.055 A 
BRANCH  25  27
ATOM     27  O   UNL     1       4.972  -0.185   4.084  0.00  0.00    -0.491 OA
ATOM     28  C   UNL     1       5.170  -1.514   4.570  0.00  0.00    +0.277 C 
ENDBRANCH  25  27
BRANCH  24  29
ATOM     29  O   UNL     1       4.452   2.390   3.254  0.00  0.00    -0.488 OA
BRANCH  29  30
ATOM     30  C   UNL     1       4.107   3.711   2.833  0.00  0.00    +0.232 C 
BRANCH  30  31
ATOM     31  C   UNL     1       5.381   4.487   2.493  0.00  0.00    +0.020 C 
ATOM     32  C   UNL     1       6.064   3.842   1.285  0.00  0.00    +0.010 C 
ATOM     33  C   UNL     1       5.023   5.937   2.163  0.00  0.00    +0.010 C 
ENDBRANCH  30  31
ENDBRANCH  29  30
ENDBRANCH  24  29
ENDBRANCH  10  21
BRANCH   9  34
ATOM     34  C   UNL     1       0.792  -1.144   7.207  0.00  0.00    +0.135 C 
BRANCH  34  35
ATOM     35  C   UNL     1       2.267  -0.866   7.336  0.00  0.00    -0.016 C 
ATOM     36  C   UNL     1       2.684   0.343   7.617  0.00  0.00    +0.005 C 
ENDBRANCH  34  35
ENDBRANCH   9  34
TORSDOF 9
