REMARK  Name = ZINC39936275
REMARK  7 active torsions:
REMARK  status: ('A' for Active; 'I' for Inactive)
REMARK    1  A    between atoms: C_1  and  C_2
REMARK    2  A    between atoms: C_4  and  S_15
REMARK    3  A    between atoms: C_5  and  C_14
REMARK    4  A    between atoms: N_7  and  C_8
REMARK    5  A    between atoms: S_15  and  C_16
REMARK    6  A    between atoms: C_16  and  C_17
REMARK    7  A    between atoms: C_22  and  N_25
REMARK                            x       y       z     vdW  Elec       q    Type
REMARK                         _______ _______ _______ _____ _____    ______ ____
ROOT
ATOM      1  C   UNL     1      -1.059  -0.438  -4.927  0.00  0.00    +0.226 C 
ATOM      2  O   UNL     1      -2.027   0.280  -4.785  0.00  0.00    -0.275 OA
ATOM      3  N   UNL     1      -0.736  -0.899  -6.151  0.00  0.00    -0.301 N 
ATOM      4  C   UNL     1       0.429  -1.774  -6.337  0.00  0.00    +0.110 C 
ATOM      5  C   UNL     1      -0.019  -3.043  -7.069  0.00  0.00    +0.044 C 
ATOM      6  C   UNL     1      -0.728  -2.655  -8.368  0.00  0.00    +0.095 C 
ATOM      7  C   UNL     1      -1.969  -1.820  -8.045  0.00  0.00    +0.044 C 
ATOM      8  C   UNL     1      -1.546  -0.542  -7.324  0.00  0.00    +0.110 C 
ENDROOT
BRANCH   6   9
ATOM      9  N   UNL     1      -1.128  -3.867  -9.087  0.00  0.00    -0.289 N 
ATOM     10  C   UNL     1      -0.712  -4.233 -10.365  0.00  0.00    +0.070 A 
ATOM     11  C   UNL     1       0.131  -3.644 -11.295  0.00  0.00    +0.028 A 
ATOM     12  C   UNL     1       0.354  -4.265 -12.509  0.00  0.00    +0.002 A 
ATOM     13  C   UNL     1      -0.260  -5.471 -12.800  0.00  0.00    +0.002 A 
ATOM     14  C   UNL     1      -1.101  -6.064 -11.880  0.00  0.00    +0.028 A 
ATOM     15  C   UNL     1      -1.331  -5.450 -10.658  0.00  0.00    +0.067 A 
ATOM     16  N   UNL     1      -2.104  -5.786  -9.550  0.00  0.00    -0.306 N 
ATOM     17  H   UNL     1      -2.651  -6.581  -9.459  0.00  0.00    +0.170 HD
ATOM     18  C   UNL     1      -1.958  -4.821  -8.622  0.00  0.00    +0.328 A 
ATOM     19  O   UNL     1      -2.496  -4.810  -7.531  0.00  0.00    -0.247 OA
ENDBRANCH   6   9
BRANCH   1  20
ATOM     20  C   UNL     1      -0.219  -0.813  -3.734  0.00  0.00    +0.170 C 
BRANCH  20  21
ATOM     21  S   UNL     1      -0.906  -0.041  -2.243  0.00  0.00    -0.117 S 
BRANCH  21  24
ATOM     22  C   UNL     1      -0.639  -2.444   0.163  0.00  0.00    +0.035 C 
ATOM     23  C   UNL     1       0.601  -1.800  -0.460  0.00  0.00    +0.129 C 
ATOM     24  C   UNL     1       0.269  -0.421  -0.986  0.00  0.00    +0.026 C 
ATOM     25  C   UNL     1       1.021   0.447  -0.332  0.00  0.00    +0.030 C 
ATOM     26  N   UNL     1       1.845  -0.188   0.598  0.00  0.00    -0.267 N 
ATOM     27  N   UNL     1       1.633  -1.575   0.566  0.00  0.00    -0.246 N 
ATOM     28  C   UNL     1       0.993   1.936  -0.562  0.00  0.00    +0.063 C 
ATOM     29  H   UNL     1       2.473   0.264   1.182  0.00  0.00    +0.170 HD
BRANCH  27  30
ATOM     30  C   UNL     1       2.268  -2.544   1.346  0.00  0.00    +0.048 A 
ATOM     31  C   UNL     1       1.946  -3.886   1.188  0.00  0.00    +0.025 A 
ATOM     32  C   UNL     1       2.575  -4.842   1.961  0.00  0.00    +0.002 A 
ATOM     33  C   UNL     1       3.526  -4.464   2.891  0.00  0.00    +0.000 A 
ATOM     34  C   UNL     1       3.849  -3.129   3.052  0.00  0.00    +0.002 A 
ATOM     35  C   UNL     1       3.227  -2.169   2.277  0.00  0.00    +0.025 A 
ENDBRANCH  27  30
ENDBRANCH  21  24
ENDBRANCH  20  21
ENDBRANCH   1  20
TORSDOF 5
