REMARK  Name = ZINC35790853
REMARK  6 active torsions:
REMARK  status: ('A' for Active; 'I' for Inactive)
REMARK    1  A    between atoms: C_4  and  O_7
REMARK    2  A    between atoms: O_7  and  C_8
REMARK    3  A    between atoms: C_12  and  C_14
REMARK    4  A    between atoms: N_24  and  C_25
REMARK    5  A    between atoms: C_25  and  C_26
REMARK    6  A    between atoms: C_31  and  O_32
REMARK                            x       y       z     vdW  Elec       q    Type
REMARK                         _______ _______ _______ _____ _____    ______ ____
ROOT
ATOM      1  C   UNL     1       6.368  -4.714   0.351  0.00  0.00    +0.011 C 
ATOM      2  C   UNL     1       6.833  -5.021  -1.051  0.00  0.00    +0.009 A 
ATOM      3  C   UNL     1       6.684  -4.229  -2.131  0.00  0.00    +0.021 A 
ATOM      4  C   UNL     1       7.273  -4.893  -3.225  0.00  0.00    +0.019 A 
ATOM      5  C   UNL     1       7.758  -6.067  -2.773  0.00  0.00    +0.086 A 
ATOM      6  N   UNL     1       7.484  -6.157  -1.442  0.00  0.00    -0.352 N 
ATOM      7  C   UNL     1       7.810  -7.282  -0.559  0.00  0.00    +0.119 C 
ATOM      8  C   UNL     1       8.420  -6.737   0.736  0.00  0.00    +0.003 C 
ATOM      9  C   UNL     1       7.312  -6.435   1.739  0.00  0.00    -0.075 C 
ATOM     10  N   UNL     1       6.099  -5.972   1.061  0.00  0.00    +0.391 N 
ATOM     11  H   UNL     1       5.798  -6.672   0.399  0.00  0.00    -0.080 HD
ENDROOT
BRANCH   1  16
ATOM     12  C   UNL     1       3.923  -1.866   0.796  0.00  0.00    +0.129 A 
ATOM     13  C   UNL     1       2.788  -2.382   0.186  0.00  0.00    +0.046 A 
ATOM     14  C   UNL     1       2.817  -3.647  -0.367  0.00  0.00    +0.004 A 
ATOM     15  C   UNL     1       3.975  -4.400  -0.313  0.00  0.00    +0.002 A 
ATOM     16  C   UNL     1       5.107  -3.890   0.294  0.00  0.00    -0.052 A 
ATOM     17  C   UNL     1       5.086  -2.622   0.844  0.00  0.00    +0.048 A 
BRANCH  12  18
ATOM     18  O   UNL     1       3.898  -0.622   1.341  0.00  0.00    -0.456 OA
BRANCH  18  22
ATOM     19  C   UNL     1       2.070  -0.150   5.008  0.00  0.00    +0.000 A 
ATOM     20  C   UNL     1       2.044  -1.380   4.377  0.00  0.00    +0.004 A 
ATOM     21  C   UNL     1       2.655  -1.541   3.149  0.00  0.00    +0.046 A 
ATOM     22  C   UNL     1       3.296  -0.466   2.549  0.00  0.00    +0.128 A 
ATOM     23  C   UNL     1       3.320   0.767   3.184  0.00  0.00    +0.046 A 
ATOM     24  C   UNL     1       2.707   0.922   4.412  0.00  0.00    +0.004 A 
ENDBRANCH  18  22
ENDBRANCH  12  18
ENDBRANCH   1  16
BRANCH  10  25
ATOM     25  C   UNL     1       5.038  -5.755   2.054  0.00  0.00    -0.038 C 
BRANCH  25  26
ATOM     26  C   UNL     1       4.707  -7.061   2.728  0.00  0.00    -0.021 A 
ATOM     27  C   UNL     1       3.600  -7.785   2.327  0.00  0.00    +0.025 A 
ATOM     28  C   UNL     1       3.296  -8.985   2.946  0.00  0.00    +0.041 A 
ATOM     29  C   UNL     1       4.098  -9.461   3.967  0.00  0.00    +0.023 A 
ATOM     30  C   UNL     1       5.205  -8.741   4.371  0.00  0.00    +0.047 A 
ATOM     31  C   UNL     1       5.515  -7.541   3.748  0.00  0.00    +0.118 A 
ATOM     32 CL   UNL     1       1.905  -9.892   2.440  0.00  0.00    -0.084 Cl
BRANCH  31  33
ATOM     33  O   UNL     1       6.608  -6.833   4.140  0.00  0.00    -0.507 OA
ATOM     34  H   UNL     1       6.431  -6.197   4.846  0.00  0.00    +0.292 HD
ENDBRANCH  31  33
ENDBRANCH  25  26
ENDBRANCH  10  25
TORSDOF 6
