REMARK  Name = ZINC14254345
REMARK  9 active torsions:
REMARK  status: ('A' for Active; 'I' for Inactive)
REMARK    1  A    between atoms: C_1  and  C_2
REMARK    2  A    between atoms: C_3  and  C_29
REMARK    3  A    between atoms: C_4  and  C_26
REMARK    4  A    between atoms: C_5  and  S_9
REMARK    5  A    between atoms: C_7  and  C_8
REMARK    6  A    between atoms: S_9  and  C_10
REMARK    7  A    between atoms: C_10  and  C_11
REMARK    8  A    between atoms: N_16  and  C_17
REMARK    9  A    between atoms: C_23  and  C_25
REMARK                            x       y       z     vdW  Elec       q    Type
REMARK                         _______ _______ _______ _____ _____    ______ ____
ROOT
ATOM      1  C   UNL     1      -0.686  -2.726  -0.006  0.00  0.00    +0.172 C 
ENDROOT
BRANCH   1   2
ATOM      2  C   UNL     1      -0.964  -4.207  -0.011  0.00  0.00    +0.231 C 
ATOM      3  O   UNL     1      -0.044  -4.997  -0.024  0.00  0.00    -0.274 OA
ATOM      4  N   UNL     1      -2.236  -4.654  -0.002  0.00  0.00    -0.240 N 
ATOM      5  C   UNL     1      -2.484  -5.979  -0.006  0.00  0.00    +0.306 C 
ATOM      6  O   UNL     1      -1.562  -6.770  -0.019  0.00  0.00    -0.252 OA
ATOM      7  N   UNL     1      -3.756  -6.426   0.003  0.00  0.00    -0.296 N 
ATOM      8  H   UNL     1      -2.972  -4.023   0.009  0.00  0.00    +0.159 HD
ATOM      9  H   UNL     1      -4.492  -5.795   0.014  0.00  0.00    +0.151 HD
BRANCH   7  10
ATOM     10  C   UNL     1      -4.026  -7.866  -0.002  0.00  0.00    +0.077 C 
ATOM     11  C   UNL     1      -4.010  -8.383  -1.442  0.00  0.00    +0.022 C 
ATOM     12  C   UNL     1      -5.085  -7.659  -2.255  0.00  0.00    +0.002 C 
ATOM     13  C   UNL     1      -6.458  -7.923  -1.634  0.00  0.00    +0.000 C 
ATOM     14  C   UNL     1      -6.474  -7.406  -0.194  0.00  0.00    +0.005 C 
ATOM     15  C   UNL     1      -5.399  -8.130   0.620  0.00  0.00    +0.006 C 
ATOM     16  C   UNL     1      -5.415  -7.613   2.059  0.00  0.00    +0.009 C 
ENDBRANCH   7  10
ENDBRANCH   1   2
BRANCH   1  17
ATOM     17  S   UNL     1       1.102  -2.448  -0.022  0.00  0.00    -0.096 S 
BRANCH  17  22
ATOM     18  C   UNL     1       1.111   3.554   0.010  0.00  0.00    +0.046 C 
ATOM     19  C   UNL     1       1.157   2.048   0.002  0.00  0.00    -0.026 A 
ATOM     20  C   UNL     1       2.374   1.388  -0.014  0.00  0.00    -0.031 A 
ATOM     21  C   UNL     1       2.372  -0.011  -0.021  0.00  0.00    +0.071 A 
ATOM     22  C   UNL     1       1.138  -0.686  -0.013  0.00  0.00    +0.110 A 
ATOM     23  N   UNL     1       0.002  -0.004   0.002  0.00  0.00    -0.245 NA
ATOM     24  C   UNL     1      -0.016   1.314   0.009  0.00  0.00    +0.043 A 
ATOM     25  C   UNL     1      -1.339   2.036   0.019  0.00  0.00    +0.066 C 
ATOM     26  C   UNL     1       3.669   2.158  -0.023  0.00  0.00    +0.045 C 
BRANCH  21  27
ATOM     27  C   UNL     1       3.639  -0.764  -0.037  0.00  0.00    +0.244 C 
ATOM     28  O   UNL     1       4.151  -1.069  -1.097  0.00  0.00    -0.270 OA
ATOM     29  N   UNL     1       4.229  -1.114   1.123  0.00  0.00    -0.325 N 
ATOM     30  H   UNL     1       3.821  -0.870   1.968  0.00  0.00    +0.145 HD
ATOM     31  H   UNL     1       5.063  -1.609   1.112  0.00  0.00    +0.145 HD
ENDBRANCH  21  27
ENDBRANCH  17  22
ENDBRANCH   1  17
TORSDOF 5
