REMARK  Name = ZINC24916100
REMARK  9 active torsions:
REMARK  status: ('A' for Active; 'I' for Inactive)
REMARK    1  A    between atoms: C_1  and  C_2
REMARK    2  A    between atoms: C_2  and  C_3
REMARK    3  A    between atoms: C_10  and  C_12
REMARK    4  A    between atoms: C_15  and  S_18
REMARK    5  A    between atoms: N_16  and  C_17
REMARK    6  A    between atoms: S_18  and  C_19
REMARK    7  A    between atoms: C_19  and  C_21
REMARK    8  A    between atoms: C_19  and  C_22
REMARK    9  A    between atoms: C_24  and  C_27
REMARK                            x       y       z     vdW  Elec       q    Type
REMARK                         _______ _______ _______ _____ _____    ______ ____
ROOT
ATOM      1  C   UNL     1      -0.016   1.311   0.009  0.00  0.00    +0.171 A 
ATOM      2  N   UNL     1       0.002  -0.004   0.002  0.00  0.00    -0.128 NA
ATOM      3  N   UNL     1       1.216  -0.426  -0.012  0.00  0.00    -0.122 NA
ATOM      4  C   UNL     1       2.048   0.590  -0.014  0.00  0.00    +0.192 A 
ATOM      5  N   UNL     1       1.296   1.731  -0.001  0.00  0.00    -0.305 N 
ATOM      6  C   UNL     1       1.782   3.113   0.002  0.00  0.00    +0.153 C 
ENDROOT
BRANCH   1  13
ATOM      7  C   UNL     1      -5.814   3.662  -0.037  0.00  0.00    -0.007 C 
ATOM      8  C   UNL     1      -5.298   5.015   0.461  0.00  0.00    +0.009 C 
ATOM      9  C   UNL     1      -3.943   5.301  -0.203  0.00  0.00    +0.043 C 
ATOM     10  C   UNL     1      -3.093   4.077  -0.082  0.00  0.00    -0.006 A 
ATOM     11  C   UNL     1      -3.495   2.817   0.251  0.00  0.00    -0.036 A 
ATOM     12  C   UNL     1      -2.510   1.838   0.294  0.00  0.00    +0.023 A 
ATOM     13  C   UNL     1      -1.211   2.170   0.020  0.00  0.00    +0.057 A 
ATOM     14  S   UNL     1      -1.345   3.917  -0.330  0.00  0.00    -0.090 S 
ATOM     15  C   UNL     1      -4.965   2.532   0.546  0.00  0.00    +0.039 C 
BRANCH   7  17
ATOM     16  C   UNL     1      -7.830   2.196  -0.212  0.00  0.00    +0.004 C 
ATOM     17  C   UNL     1      -7.269   3.482   0.400  0.00  0.00    +0.000 C 
ENDBRANCH   7  17
ENDBRANCH   1  13
BRANCH   4  18
ATOM     18  S   UNL     1       3.808   0.499  -0.033  0.00  0.00    -0.073 S 
BRANCH  18  19
ATOM     19  C   UNL     1       4.029  -1.298  -0.044  0.00  0.00    +0.140 C 
ATOM     20  C   UNL     1       3.474  -1.871  -1.349  0.00  0.00    +0.029 C 
BRANCH  19  21
ATOM     21  C   UNL     1       5.497  -1.624   0.063  0.00  0.00    +0.240 A 
ATOM     22  N   UNL     1       6.041  -2.528   0.841  0.00  0.00    -0.195 NA
ATOM     23  C   UNL     1       7.363  -2.465   0.600  0.00  0.00    +0.169 A 
ATOM     24  N   UNL     1       7.552  -1.538  -0.291  0.00  0.00    -0.062 NA
ATOM     25  O   UNL     1       6.493  -1.042  -0.612  0.00  0.00    -0.337 OA
ATOM     26  C   UNL     1       8.429  -3.311   1.247  0.00  0.00    +0.091 C 
ENDBRANCH  19  21
ENDBRANCH  18  19
ENDBRANCH   4  18
TORSDOF 5
