REMARK  Name = ZINC12151568
REMARK  11 active torsions:
REMARK  status: ('A' for Active; 'I' for Inactive)
REMARK    1  A    between atoms: C_1  and  C_2
REMARK    2  A    between atoms: C_6  and  N_9
REMARK    3  A    between atoms: C_7  and  C_8
REMARK    4  A    between atoms: N_9  and  S_10
REMARK    5  A    between atoms: S_10  and  C_13
REMARK    6  A    between atoms: C_14  and  C_29
REMARK    7  A    between atoms: C_21  and  C_22
REMARK    8  A    between atoms: C_21  and  N_59
REMARK    9  A    between atoms: C_27  and  O_28
REMARK   10  A    between atoms: C_29  and  O_31
REMARK   11  A    between atoms: O_31  and  C_32
REMARK                            x       y       z     vdW  Elec       q    Type
REMARK                         _______ _______ _______ _____ _____    ______ ____
ROOT
ATOM      1  C   UNL     1      -1.558   2.387  -1.770  0.00  0.00    +0.160 A 
ATOM      2  C   UNL     1      -2.073   1.776  -2.895  0.00  0.00    +0.096 A 
ATOM      3  C   UNL     1      -2.037   2.515  -4.140  0.00  0.00    -0.025 A 
ATOM      4  C   UNL     1      -1.487   3.751  -4.061  0.00  0.00    -0.021 A 
ATOM      5  S   UNL     1      -1.035   3.930  -2.361  0.00  0.00    -0.074 S 
ATOM      6  C   UNL     1      -1.321   4.723  -5.187  0.00  0.00    -0.035 C 
ATOM      7  C   UNL     1      -2.750   3.194  -6.410  0.00  0.00    -0.073 C 
ATOM      8  C   UNL     1      -2.564   1.997  -5.473  0.00  0.00    +0.018 C 
ATOM      9  N   UNL     1      -1.499   3.979  -6.458  0.00  0.00    +0.386 N 
ATOM     10  H   UNL     1      -0.707   3.337  -6.583  0.00  0.00    -0.081 HD
ENDROOT
BRANCH   1  11
ATOM     11  S   UNL     1      -1.461   1.754  -0.129  0.00  0.00    +0.079 S 
ATOM     12  O   UNL     1      -2.474   0.764  -0.015  0.00  0.00    -0.149 OA
ATOM     13  O   UNL     1      -1.395   2.879   0.737  0.00  0.00    -0.149 OA
BRANCH  11  14
ATOM     14  N   UNL     1      -0.011   0.966   0.007  0.00  0.00    -0.216 N 
ATOM     15  H   UNL     1       0.009   0.019   0.218  0.00  0.00    +0.174 HD
BRANCH  14  21
ATOM     16  C   UNL     1       4.619   1.049  -1.638  0.00  0.00    +0.044 C 
ATOM     17  C   UNL     1       3.445   1.728  -0.981  0.00  0.00    -0.046 A 
ATOM     18  C   UNL     1       3.550   3.044  -0.569  0.00  0.00    +0.004 A 
ATOM     19  C   UNL     1       2.476   3.671   0.034  0.00  0.00    +0.002 A 
ATOM     20  C   UNL     1       1.293   2.985   0.227  0.00  0.00    +0.025 A 
ATOM     21  C   UNL     1       1.184   1.663  -0.186  0.00  0.00    +0.051 A 
ATOM     22  C   UNL     1       2.267   1.034  -0.787  0.00  0.00    -0.025 A 
ATOM     23  C   UNL     1       2.155  -0.401  -1.231  0.00  0.00    +0.046 C 
ENDBRANCH  14  21
ENDBRANCH  11  14
ENDBRANCH   1  11
BRANCH   2  24
ATOM     24  C   UNL     1      -2.641   0.421  -2.831  0.00  0.00    +0.342 C 
ATOM     25  O   UNL     1      -3.823   0.268  -2.591  0.00  0.00    -0.245 OA
BRANCH  24  26
ATOM     26  O   UNL     1      -1.851  -0.651  -3.039  0.00  0.00    -0.464 OA
ATOM     27  C   UNL     1      -2.479  -1.958  -2.961  0.00  0.00    +0.280 C 
ENDBRANCH  24  26
ENDBRANCH   2  24
BRANCH   9  28
ATOM     28  C   UNL     1      -1.537   4.923  -7.595  0.00  0.00    -0.039 C 
BRANCH  28  29
ATOM     29  C   UNL     1      -0.175   5.547  -7.756  0.00  0.00    -0.022 A 
ATOM     30  C   UNL     1       0.064   6.820  -7.275  0.00  0.00    +0.005 A 
ATOM     31  C   UNL     1       1.313   7.393  -7.421  0.00  0.00    +0.000 A 
ATOM     32  C   UNL     1       2.327   6.694  -8.051  0.00  0.00    +0.004 A 
ATOM     33  C   UNL     1       2.094   5.421  -8.534  0.00  0.00    +0.045 A 
ATOM     34  C   UNL     1       0.842   4.842  -8.383  0.00  0.00    +0.118 A 
BRANCH  34  35
ATOM     35  O   UNL     1       0.611   3.588  -8.853  0.00  0.00    -0.507 OA
ATOM     36  H   UNL     1       0.298   3.562  -9.768  0.00  0.00    +0.292 HD
ENDBRANCH  34  35
ENDBRANCH  28  29
ENDBRANCH   9  28
TORSDOF 8
