REMARK  Name = ZINC01859460
REMARK  6 active torsions:
REMARK  status: ('A' for Active; 'I' for Inactive)
REMARK    1  A    between atoms: C_3  and  C_9
REMARK    2  A    between atoms: C_12  and  C_14
REMARK    3  A    between atoms: N_16  and  C_17
REMARK    4  A    between atoms: C_17  and  N_19
REMARK    5  A    between atoms: N_19  and  C_20
REMARK    6  A    between atoms: C_21  and  C_30
REMARK                            x       y       z     vdW  Elec       q    Type
REMARK                         _______ _______ _______ _____ _____    ______ ____
ROOT
ATOM      1  C   UNL     1       1.147   1.655   0.000  0.00  0.00    +0.142 C 
ATOM      2  S   UNL     1       1.124   3.367   0.009  0.00  0.00    -0.018 S 
ENDROOT
BRANCH   1   5
ATOM      3  C   UNL     1      -1.187   1.624   0.017  0.00  0.00    +0.285 C 
ATOM      4  O   UNL     1      -1.204   2.841   0.023  0.00  0.00    -0.266 OA
ATOM      5  N   UNL     1      -0.011   0.966   0.007  0.00  0.00    -0.261 N 
ATOM      6  H   UNL     1       0.002  -0.004   0.002  0.00  0.00    +0.157 HD
BRANCH   3  10
ATOM      7  C   UNL     1      -3.869  -0.799   0.016  0.00  0.00    +0.137 A 
ATOM      8  C   UNL     1      -4.611   0.349   0.025  0.00  0.00    +0.051 A 
ATOM      9  C   UNL     1      -3.711   1.419   0.033  0.00  0.00    +0.055 A 
ATOM     10  C   UNL     1      -2.445   0.875   0.018  0.00  0.00    +0.190 A 
ATOM     11  O   UNL     1      -2.567  -0.470   0.012  0.00  0.00    -0.450 OA
BRANCH   7  14
ATOM     12  C   UNL     1      -5.887  -3.831   0.929  0.00  0.00    +0.002 A 
ATOM     13  C   UNL     1      -5.381  -2.548   0.942  0.00  0.00    +0.013 A 
ATOM     14  C   UNL     1      -4.410  -2.173   0.011  0.00  0.00    +0.037 A 
ATOM     15  C   UNL     1      -3.948  -3.106  -0.921  0.00  0.00    +0.070 A 
ATOM     16  C   UNL     1      -4.459  -4.389  -0.919  0.00  0.00    +0.060 A 
ATOM     17  C   UNL     1      -5.426  -4.751   0.004  0.00  0.00    +0.021 A 
ATOM     18 CL   UNL     1      -3.889  -5.551  -2.077  0.00  0.00    -0.082 Cl
ATOM     19 CL   UNL     1      -2.737  -2.652  -2.079  0.00  0.00    -0.081 Cl
ENDBRANCH   7  14
ENDBRANCH   3  10
ENDBRANCH   1   5
BRANCH   1  20
ATOM     20  N   UNL     1       2.323   0.998  -0.015  0.00  0.00    -0.291 N 
ATOM     21  H   UNL     1       2.336   0.028  -0.020  0.00  0.00    +0.154 HD
BRANCH  20  22
ATOM     22  C   UNL     1       3.513   1.707  -0.022  0.00  0.00    +0.084 A 
ATOM     23  C   UNL     1       4.809   1.215  -0.032  0.00  0.00    +0.068 A 
ATOM     24  C   UNL     1       5.901   2.180  -0.045  0.00  0.00    -0.023 A 
ATOM     25  C   UNL     1       5.516   3.474  -0.030  0.00  0.00    -0.004 A 
ATOM     26  S   UNL     1       3.744   3.423  -0.015  0.00  0.00    -0.077 S 
ATOM     27  C   UNL     1       6.390   4.689  -0.014  0.00  0.00    +0.043 C 
ATOM     28  C   UNL     1       7.463   4.556  -1.103  0.00  0.00    +0.005 C 
ATOM     29  C   UNL     1       8.677   3.854  -0.501  0.00  0.00    +0.001 C 
ATOM     30  C   UNL     1       8.230   2.846   0.556  0.00  0.00    +0.005 C 
ATOM     31  C   UNL     1       7.365   1.761  -0.075  0.00  0.00    +0.037 C 
BRANCH  23  32
ATOM     32  C   UNL     1       5.073  -0.227  -0.032  0.00  0.00    +0.244 C 
ATOM     33  O   UNL     1       5.175  -0.827  -1.086  0.00  0.00    -0.270 OA
ATOM     34  N   UNL     1       5.203  -0.889   1.135  0.00  0.00    -0.325 N 
ATOM     35  H   UNL     1       5.122  -0.411   1.975  0.00  0.00    +0.145 HD
ATOM     36  H   UNL     1       5.377  -1.843   1.135  0.00  0.00    +0.145 HD
ENDBRANCH  23  32
ENDBRANCH  20  22
ENDBRANCH   1  20
TORSDOF 6
