REMARK  Name = ZINC40372365
REMARK  4 active torsions:
REMARK  status: ('A' for Active; 'I' for Inactive)
REMARK    1  A    between atoms: C_2  and  C_8
REMARK    2  A    between atoms: N_10  and  C_11
REMARK    3  A    between atoms: C_11  and  C_17
REMARK    4  A    between atoms: N_18  and  O_19
REMARK                            x       y       z     vdW  Elec       q    Type
REMARK                         _______ _______ _______ _____ _____    ______ ____
ROOT
ATOM      1  C   UNL     1       1.967   5.459   0.022  0.00  0.00    +0.093 C 
ATOM      2  C   UNL     1       1.143   6.187   1.086  0.00  0.00    +0.033 C 
ATOM      3  C   UNL     1       1.407   5.557   2.455  0.00  0.00    +0.002 C 
ATOM      4  C   UNL     1       2.895   5.675   2.792  0.00  0.00    +0.000 C 
ATOM      5  C   UNL     1       3.719   4.947   1.728  0.00  0.00    +0.002 C 
ATOM      6  C   UNL     1       3.454   5.577   0.359  0.00  0.00    +0.033 C 
ENDROOT
BRANCH   1   7
ATOM      7  C   UNL     1       1.706   6.080  -1.326  0.00  0.00    +0.155 C 
ATOM      8  N   UNL     1       1.944   7.336  -1.516  0.00  0.00    -0.075 NA
ATOM      9  N   UNL     1       1.216   5.309  -2.357  0.00  0.00    -0.342 N 
ATOM     10  H   UNL     1       1.097   4.354  -2.233  0.00  0.00    +0.144 HD
ATOM     11  H   UNL     1       0.989   5.720  -3.205  0.00  0.00    +0.144 HD
BRANCH   8  12
ATOM     12  O   UNL     1       2.572   8.098  -0.502  0.00  0.00    -0.408 OA
ATOM     13  H   UNL     1       2.707   9.027  -0.735  0.00  0.00    +0.328 HD
ENDBRANCH   8  12
ENDBRANCH   1   7
BRANCH   1  16
ATOM     14  C   UNL     1       0.303   3.699  -0.244  0.00  0.00    +0.246 C 
ATOM     15  O   UNL     1      -0.550   4.559  -0.350  0.00  0.00    -0.270 OA
ATOM     16  N   UNL     1       1.584   4.045  -0.009  0.00  0.00    -0.299 N 
ATOM     17  H   UNL     1       2.252   3.358   0.139  0.00  0.00    +0.150 HD
BRANCH  14  19
ATOM     18  C   UNL     1      -1.394   1.901  -0.617  0.00  0.00    +0.031 A 
ATOM     19  C   UNL     1      -0.066   2.273  -0.373  0.00  0.00    +0.056 A 
ATOM     20  C   UNL     1       0.903   1.276  -0.254  0.00  0.00    +0.123 A 
ATOM     21  N   UNL     1       0.575   0.006  -0.370  0.00  0.00    -0.261 NA
ATOM     22  C   UNL     1      -0.667  -0.375  -0.600  0.00  0.00    +0.126 A 
ATOM     23  C   UNL     1      -1.686   0.552  -0.730  0.00  0.00    +0.037 A 
ATOM     24 BR   UNL     1      -3.459  -0.017  -1.059  0.00  0.00    -0.049 Br
ENDBRANCH  14  19
ENDBRANCH   1  16
TORSDOF 4
