REMARK  Name = ZINC38740798
REMARK  6 active torsions:
REMARK  status: ('A' for Active; 'I' for Inactive)
REMARK    1  A    between atoms: C_1  and  C_2
REMARK    2  A    between atoms: C_9  and  C_10
REMARK    3  A    between atoms: C_9  and  C_11
REMARK    4  A    between atoms: C_13  and  N_15
REMARK    5  A    between atoms: C_16  and  C_18
REMARK    6  A    between atoms: C_24  and  C_26
REMARK                            x       y       z     vdW  Elec       q    Type
REMARK                         _______ _______ _______ _____ _____    ______ ____
ROOT
ATOM      1  C   UNL     1      -1.545   0.439   2.810  0.00  0.00    +0.091 C 
ATOM      2  C   UNL     1      -2.308  -0.857   2.523  0.00  0.00    +0.040 C 
ATOM      3  C   UNL     1      -3.212  -1.190   3.673  0.00  0.00    -0.030 C 
ATOM      4  C   UNL     1      -3.099  -0.678   4.857  0.00  0.00    -0.030 C 
ATOM      5  C   UNL     1      -2.055   0.329   5.241  0.00  0.00    +0.040 C 
ATOM      6  C   UNL     1      -0.925   0.342   4.210  0.00  0.00    +0.091 C 
ENDROOT
BRANCH   6   7
ATOM      7  C   UNL     1      -0.029   1.530   4.449  0.00  0.00    +0.220 C 
ATOM      8  O   UNL     1      -0.204   2.557   3.829  0.00  0.00    -0.275 OA
ATOM      9  N   UNL     1       0.968   1.450   5.353  0.00  0.00    -0.298 N 
ATOM     10  C   UNL     1       1.266   0.179   6.028  0.00  0.00    +0.126 C 
ATOM     11  C   UNL     1       2.744  -0.162   5.802  0.00  0.00    +0.125 C 
ATOM     12  N   UNL     1       3.553   1.021   6.130  0.00  0.00    -0.314 N 
ATOM     13  C   UNL     1       3.256   2.292   5.455  0.00  0.00    +0.125 C 
ATOM     14  C   UNL     1       1.781   2.631   5.676  0.00  0.00    +0.126 C 
ATOM     15  C   UNL     1       4.581   0.938   7.062  0.00  0.00    +0.099 A 
ATOM     16  C   UNL     1       4.768  -0.238   7.781  0.00  0.00    +0.042 A 
ATOM     17  C   UNL     1       5.795  -0.306   8.705  0.00  0.00    +0.005 A 
ATOM     18  C   UNL     1       6.604   0.809   8.880  0.00  0.00    +0.018 A 
ATOM     19  C   UNL     1       6.362   1.944   8.132  0.00  0.00    +0.084 A 
ATOM     20  N   UNL     1       5.378   1.978   7.254  0.00  0.00    -0.350 N 
ATOM     21  H   UNL     1       5.232   2.787   6.739  0.00  0.00    +0.166 HD
ENDBRANCH   6   7
BRANCH   1  23
ATOM     22  N   UNL     1      -0.771   0.724   0.478  0.00  0.00    -0.312 N 
ATOM     23  C   UNL     1      -0.456   0.623   1.785  0.00  0.00    +0.217 C 
ATOM     24  O   UNL     1       0.703   0.681   2.136  0.00  0.00    -0.275 OA
ATOM     25  H   UNL     1      -1.698   0.678   0.198  0.00  0.00    +0.149 HD
BRANCH  22  35
ATOM     26  C   UNL     1      -0.164   3.112  -1.635  0.00  0.00    +0.009 C 
ATOM     27  C   UNL     1      -0.295   1.590  -1.751  0.00  0.00    +0.010 C 
ATOM     28  C   UNL     1       0.328   1.089  -3.053  0.00  0.00    -0.000 C 
ATOM     29  C   UNL     1       0.017  -0.419  -3.221  0.00  0.00    +0.008 C 
ATOM     30  C   UNL     1       1.256  -0.615  -2.322  0.00  0.00    -0.003 C 
ATOM     31  C   UNL     1       1.796   0.666  -2.973  0.00  0.00    -0.029 C 
ATOM     32  C   UNL     1       2.716   1.509  -2.096  0.00  0.00    +0.011 C 
ATOM     33  C   UNL     1       2.432   0.417  -4.355  0.00  0.00    +0.011 C 
ATOM     34  C   UNL     1       0.903  -0.456  -0.844  0.00  0.00    +0.026 C 
ATOM     35  C   UNL     1       0.296   0.905  -0.526  0.00  0.00    +0.076 C 
ENDBRANCH  22  35
ENDBRANCH   1  23
TORSDOF 3
