REMARK  Name = ZINC67269909
REMARK  3 active torsions:
REMARK  status: ('A' for Active; 'I' for Inactive)
REMARK    1  A    between atoms: N_6  and  C_27
REMARK    2  A    between atoms: C_11  and  N_12
REMARK    3  A    between atoms: C_13  and  C_15
REMARK                            x       y       z     vdW  Elec       q    Type
REMARK                         _______ _______ _______ _____ _____    ______ ____
ROOT
ATOM      1  N   UNL     1       3.396  -0.633  -1.556  0.00  0.00    -0.312 N 
ATOM      2  C   UNL     1       3.986  -1.782  -1.171  0.00  0.00    +0.216 C 
ATOM      3  O   UNL     1       3.685  -2.293  -0.113  0.00  0.00    -0.276 OA
ATOM      4  H   UNL     1       3.637  -0.225  -2.402  0.00  0.00    +0.149 HD
ENDROOT
BRANCH   2   5
ATOM      5  C   UNL     1       5.020  -2.432  -2.054  0.00  0.00    +0.075 C 
ATOM      6  C   UNL     1       4.393  -2.772  -3.407  0.00  0.00    +0.015 C 
ATOM      7  C   UNL     1       5.446  -3.423  -4.307  0.00  0.00    +0.036 C 
ATOM      8  C   UNL     1       5.976  -4.688  -3.640  0.00  0.00    +0.112 C 
ATOM      9  C   UNL     1       6.585  -4.367  -2.280  0.00  0.00    +0.036 C 
ATOM     10  C   UNL     1       5.527  -3.713  -1.387  0.00  0.00    +0.015 C 
ATOM     11  C   UNL     1       6.994  -5.366  -4.528  0.00  0.00    +0.244 C 
ATOM     12  O   UNL     1       8.051  -4.913  -4.911  0.00  0.00    -0.273 OA
ATOM     13  N   UNL     1       6.478  -6.582  -4.804  0.00  0.00    -0.238 N 
ATOM     14  C   UNL     1       5.287  -6.757  -4.217  0.00  0.00    +0.307 C 
ATOM     15  O   UNL     1       4.627  -7.772  -4.318  0.00  0.00    -0.252 OA
ATOM     16  N   UNL     1       4.904  -5.683  -3.502  0.00  0.00    -0.285 N 
ATOM     17  H   UNL     1       6.915  -7.246  -5.359  0.00  0.00    +0.159 HD
ATOM     18  H   UNL     1       4.083  -5.585  -2.995  0.00  0.00    +0.151 HD
ENDBRANCH   2   5
BRANCH   1  27
ATOM     19  C   UNL     1      -0.018   1.514   0.010  0.00  0.00    +0.001 C 
ATOM     20  C   UNL     1       1.358   2.154   0.001  0.00  0.00    +0.003 C 
ATOM     21  C   UNL     1       2.322   1.500  -0.980  0.00  0.00    -0.007 C 
ATOM     22  C   UNL     1       1.905   1.742  -2.424  0.00  0.00    -0.073 C 
ATOM     23  N   UNL     1       0.628   1.111  -2.753  0.00  0.00    +0.382 N 
ATOM     24  C   UNL     1       0.604  -0.312  -2.423  0.00  0.00    -0.073 C 
ATOM     25  C   UNL     1       1.008  -0.588  -0.982  0.00  0.00    -0.007 C 
ATOM     26  C   UNL     1       0.002  -0.004   0.002  0.00  0.00    +0.003 C 
ATOM     27  C   UNL     1       2.393  -0.003  -0.700  0.00  0.00    +0.076 C 
ATOM     28  H   UNL     1      -0.129   1.591  -2.298  0.00  0.00    -0.081 HD
BRANCH  23  29
ATOM     29  C   UNL     1       0.410   1.249  -4.199  0.00  0.00    -0.069 C 
ATOM     30  C   UNL     1      -0.719   2.174  -4.658  0.00  0.00    -0.017 C 
ATOM     31  C   UNL     1      -0.876   0.656  -4.779  0.00  0.00    -0.017 C 
ENDBRANCH  23  29
ENDBRANCH   1  27
TORSDOF 3
