REMARK  Name = ZINC24822888
REMARK  6 active torsions:
REMARK  status: ('A' for Active; 'I' for Inactive)
REMARK    1  A    between atoms: C_1  and  C_2
REMARK    2  A    between atoms: C_2  and  C_4
REMARK    3  A    between atoms: C_2  and  N_11
REMARK    4  A    between atoms: C_12  and  C_14
REMARK    5  A    between atoms: C_17  and  C_20
REMARK    6  A    between atoms: C_20  and  N_21
REMARK                            x       y       z     vdW  Elec       q    Type
REMARK                         _______ _______ _______ _____ _____    ______ ____
ROOT
ATOM      1  C   UNL     1       0.211   4.441   0.743  0.00  0.00    +0.037 A 
ATOM      2  C   UNL     1       1.474   3.872   0.915  0.00  0.00    +0.013 A 
ATOM      3  C   UNL     1       1.590   2.519   1.159  0.00  0.00    +0.006 A 
ATOM      4  C   UNL     1       0.458   1.727   1.235  0.00  0.00    -0.030 A 
ATOM      5  C   UNL     1      -0.797   2.284   1.060  0.00  0.00    +0.006 A 
ATOM      6  C   UNL     1      -0.927   3.636   0.820  0.00  0.00    +0.013 A 
ENDROOT
BRANCH   1   8
ATOM      7  N   UNL     1      -1.141   6.437   0.316  0.00  0.00    -0.305 N 
ATOM      8  C   UNL     1       0.079   5.890   0.481  0.00  0.00    +0.245 C 
ATOM      9  O   UNL     1       1.072   6.589   0.415  0.00  0.00    -0.270 OA
ATOM     10  H   UNL     1      -2.040   5.805   0.376  0.00  0.00    +0.150 HD
BRANCH   7  12
ATOM     11  C   UNL     1      -1.168   8.131  -1.448  0.00  0.00    +0.033 C 
ATOM     12  C   UNL     1      -1.272   7.873   0.057  0.00  0.00    +0.102 C 
BRANCH  12  13
ATOM     13  C   UNL     1      -2.609   8.354   0.557  0.00  0.00    -0.009 A 
ATOM     14  C   UNL     1      -3.678   7.479   0.625  0.00  0.00    +0.007 A 
ATOM     15  C   UNL     1      -4.903   7.920   1.089  0.00  0.00    +0.000 A 
ATOM     16  C   UNL     1      -5.064   9.237   1.475  0.00  0.00    +0.001 A 
ATOM     17  C   UNL     1      -3.998  10.114   1.403  0.00  0.00    +0.020 A 
ATOM     18  C   UNL     1      -2.770   9.673   0.943  0.00  0.00    +0.046 A 
ATOM     19 CL   UNL     1      -1.431  10.774   0.851  0.00  0.00    -0.083 Cl
ENDBRANCH  12  13
ENDBRANCH   7  12
ENDBRANCH   1   8
BRANCH   4  20
ATOM     20  C   UNL     1       0.592   0.250   1.502  0.00  0.00    +0.152 C 
BRANCH  20  21
ATOM     21  N   UNL     1       0.559   0.010   2.947  0.00  0.00    -0.230 N 
ATOM     22  C   UNL     1       1.645  -0.012   3.740  0.00  0.00    +0.254 C 
ATOM     23  O   UNL     1       2.791   0.162   3.377  0.00  0.00    -0.270 OA
ATOM     24  C   UNL     1       1.210  -0.280   5.127  0.00  0.00    +0.049 A 
ATOM     25  C   UNL     1       1.869  -0.411   6.339  0.00  0.00    +0.014 A 
ATOM     26  C   UNL     1       1.143  -0.675   7.490  0.00  0.00    +0.001 A 
ATOM     27  C   UNL     1      -0.232  -0.809   7.436  0.00  0.00    +0.001 A 
ATOM     28  C   UNL     1      -0.904  -0.681   6.231  0.00  0.00    +0.014 A 
ATOM     29  C   UNL     1      -0.191  -0.417   5.072  0.00  0.00    +0.049 A 
ATOM     30  C   UNL     1      -0.561  -0.223   3.654  0.00  0.00    +0.254 C 
ATOM     31  O   UNL     1      -1.688  -0.266   3.204  0.00  0.00    -0.270 OA
ENDBRANCH  20  21
ENDBRANCH   4  20
TORSDOF 5
