REMARK  Name = ZINC11865096
REMARK  7 active torsions:
REMARK  status: ('A' for Active; 'I' for Inactive)
REMARK    1  A    between atoms: C_1  and  C_2
REMARK    2  A    between atoms: C_3  and  C_26
REMARK    3  A    between atoms: C_4  and  C_9
REMARK    4  A    between atoms: C_12  and  O_16
REMARK    5  A    between atoms: C_14  and  O_15
REMARK    6  A    between atoms: O_16  and  C_17
REMARK    7  A    between atoms: C_17  and  C_18
REMARK                            x       y       z     vdW  Elec       q    Type
REMARK                         _______ _______ _______ _____ _____    ______ ____
ROOT
ATOM      1  C   UNL     1      -5.478   4.172   1.650  0.00  0.00    +0.043 A 
ATOM      2  C   UNL     1      -5.104   4.011   0.315  0.00  0.00    +0.017 A 
ATOM      3  C   UNL     1      -3.987   3.270  -0.003  0.00  0.00    +0.046 A 
ATOM      4  C   UNL     1      -3.235   2.672   1.002  0.00  0.00    +0.124 A 
ATOM      5  C   UNL     1      -3.598   2.826   2.332  0.00  0.00    +0.091 A 
ATOM      6  C   UNL     1      -4.716   3.574   2.662  0.00  0.00    +0.129 A 
ENDROOT
BRANCH   1  10
ATOM      7  C   UNL     1      -8.241   8.355   1.268  0.00  0.00    +0.066 C 
ATOM      8  C   UNL     1      -7.998   6.972   1.815  0.00  0.00    +0.052 A 
ATOM      9  C   UNL     1      -6.849   6.264   1.461  0.00  0.00    +0.029 A 
ATOM     10  C   UNL     1      -6.673   4.972   1.995  0.00  0.00    +0.087 A 
ATOM     11  N   UNL     1      -7.598   4.486   2.820  0.00  0.00    -0.214 NA
ATOM     12  C   UNL     1      -8.668   5.200   3.130  0.00  0.00    +0.213 A 
ATOM     13  N   UNL     1      -8.868   6.416   2.641  0.00  0.00    -0.219 NA
ATOM     14  N   UNL     1      -9.608   4.661   3.991  0.00  0.00    -0.327 N 
ATOM     15  H   UNL     1      -9.476   3.772   4.357  0.00  0.00    +0.145 HD
ATOM     16  H   UNL     1     -10.398   5.171   4.229  0.00  0.00    +0.145 HD
BRANCH   9  17
ATOM     17  C   UNL     1      -5.845   6.852   0.543  0.00  0.00    -0.014 A 
ATOM     18  C   UNL     1      -4.582   7.202   1.020  0.00  0.00    +0.010 A 
ATOM     19  C   UNL     1      -3.650   7.745   0.160  0.00  0.00    +0.020 A 
ATOM     20  C   UNL     1      -3.969   7.952  -1.171  0.00  0.00    +0.041 A 
ATOM     21  C   UNL     1      -5.223   7.612  -1.648  0.00  0.00    +0.020 A 
ATOM     22  C   UNL     1      -6.162   7.063  -0.798  0.00  0.00    +0.010 A 
ATOM     23 CL   UNL     1      -2.793   8.642  -2.245  0.00  0.00    -0.084 Cl
ENDBRANCH   9  17
ENDBRANCH   1  10
BRANCH   6  24
ATOM     24  O   UNL     1      -5.073   3.726   3.963  0.00  0.00    -0.506 OA
ATOM     25  H   UNL     1      -4.676   4.497   4.392  0.00  0.00    +0.292 HD
ENDBRANCH   6  24
BRANCH   4  26
ATOM     26  O   UNL     1      -2.138   1.939   0.681  0.00  0.00    -0.487 OA
BRANCH  26  27
ATOM     27  C   UNL     1      -1.820   1.821  -0.707  0.00  0.00    +0.264 C 
BRANCH  27  28
ATOM     28  C   UNL     1      -0.581   0.979  -0.869  0.00  0.00    -0.009 A 
ATOM     29  C   UNL     1       0.665   1.577  -0.877  0.00  0.00    +0.008 A 
ATOM     30  C   UNL     1       1.802   0.806  -1.031  0.00  0.00    +0.022 A 
ATOM     31  C   UNL     1       1.694  -0.565  -1.177  0.00  0.00    +0.059 A 
ATOM     32  C   UNL     1       0.446  -1.165  -1.168  0.00  0.00    +0.060 A 
ATOM     33  C   UNL     1      -0.691  -0.391  -1.014  0.00  0.00    +0.028 A 
ATOM     34 CL   UNL     1       0.308  -2.885  -1.350  0.00  0.00    -0.082 Cl
ATOM     35 CL   UNL     1       3.121  -1.534  -1.369  0.00  0.00    -0.082 Cl
ENDBRANCH  27  28
ENDBRANCH  26  27
ENDBRANCH   4  26
TORSDOF 6
