REMARK  Name = ZINC35593228
REMARK  12 active torsions:
REMARK  status: ('A' for Active; 'I' for Inactive)
REMARK    1  A    between atoms: C_1  and  C_2
REMARK    2  A    between atoms: C_2  and  C_3
REMARK    3  A    between atoms: C_3  and  N_4
REMARK    4  A    between atoms: C_5  and  C_7
REMARK    5  A    between atoms: C_7  and  N_8
REMARK    6  A    between atoms: C_11  and  C_21
REMARK    7  A    between atoms: N_13  and  C_14
REMARK    8  A    between atoms: C_19  and  C_20
REMARK    9  A    between atoms: C_21  and  C_22
REMARK   10  A    between atoms: C_21  and  C_23
REMARK   11  A    between atoms: C_21  and  C_24
REMARK   12  A    between atoms: C_25  and  C_31
REMARK                            x       y       z     vdW  Elec       q    Type
REMARK                         _______ _______ _______ _____ _____    ______ ____
ROOT
ATOM      1  N   UNL     1      -4.170  -1.310   3.566  0.00  0.00    -0.246 N 
ATOM      2  C   UNL     1      -4.661  -2.590   3.270  0.00  0.00    +0.136 A 
ATOM      3  C   UNL     1      -5.976  -2.885   3.155  0.00  0.00    +0.034 A 
ATOM      4  C   UNL     1      -6.087  -4.242   2.850  0.00  0.00    +0.075 A 
ATOM      5  N   UNL     1      -4.879  -4.748   2.786  0.00  0.00    -0.169 NA
ATOM      6  N   UNL     1      -3.955  -3.724   3.050  0.00  0.00    -0.217 N 
ATOM      7  C   UNL     1      -7.099  -1.895   3.338  0.00  0.00    +0.113 C 
ATOM      8  S   UNL     1      -7.145  -0.790   1.881  0.00  0.00    -0.138 S 
ATOM      9  C   UNL     1      -5.371  -0.491   1.580  0.00  0.00    +0.166 C 
ATOM     10  C   UNL     1      -4.647  -0.269   2.876  0.00  0.00    +0.231 C 
ATOM     11  O   UNL     1      -4.491   0.858   3.296  0.00  0.00    -0.274 OA
ENDROOT
BRANCH   6  12
ATOM     12  C   UNL     1      -2.559  -3.853   3.081  0.00  0.00    +0.070 A 
ATOM     13  C   UNL     1      -1.769  -3.053   2.267  0.00  0.00    +0.028 A 
ATOM     14  C   UNL     1      -0.394  -3.182   2.300  0.00  0.00    +0.002 A 
ATOM     15  C   UNL     1       0.195  -4.107   3.142  0.00  0.00    +0.000 A 
ATOM     16  C   UNL     1      -0.590  -4.905   3.954  0.00  0.00    +0.005 A 
ATOM     17  C   UNL     1      -1.965  -4.777   3.930  0.00  0.00    -0.025 A 
ATOM     18  C   UNL     1      -2.819  -5.643   4.819  0.00  0.00    +0.046 C 
ENDBRANCH   6  12
BRANCH   7  19
ATOM     19  C   UNL     1      -8.408  -2.632   3.460  0.00  0.00    -0.012 A 
ATOM     20  C   UNL     1      -9.103  -3.000   2.323  0.00  0.00    +0.006 A 
ATOM     21  C   UNL     1     -10.303  -3.676   2.434  0.00  0.00    +0.000 A 
ATOM     22  C   UNL     1     -10.810  -3.985   3.683  0.00  0.00    +0.001 A 
ATOM     23  C   UNL     1     -10.116  -3.618   4.821  0.00  0.00    +0.020 A 
ATOM     24  C   UNL     1      -8.911  -2.946   4.709  0.00  0.00    +0.046 A 
ATOM     25 CL   UNL     1      -8.036  -2.491   6.138  0.00  0.00    -0.083 Cl
ENDBRANCH   7  19
BRANCH   4  26
ATOM     26  C   UNL     1      -7.373  -4.997   2.632  0.00  0.00    +0.007 C 
ATOM     27  C   UNL     1      -7.975  -4.598   1.283  0.00  0.00    +0.017 C 
ATOM     28  C   UNL     1      -7.090  -6.500   2.640  0.00  0.00    +0.017 C 
ATOM     29  C   UNL     1      -8.360  -4.657   3.751  0.00  0.00    +0.017 C 
ENDBRANCH   4  26
BRANCH   1  30
ATOM     30  C   UNL     1      -3.162  -1.116   4.611  0.00  0.00    +0.210 C 
BRANCH  30  32
ATOM     31  N   UNL     1      -3.110  -0.528   7.013  0.00  0.00    -0.314 N 
ATOM     32  C   UNL     1      -3.843  -0.754   5.905  0.00  0.00    +0.231 C 
ATOM     33  O   UNL     1      -5.052  -0.665   5.950  0.00  0.00    -0.274 OA
ATOM     34  H   UNL     1      -2.143  -0.599   6.977  0.00  0.00    +0.149 HD
BRANCH  31  35
ATOM     35  C   UNL     1      -3.772  -0.175   8.271  0.00  0.00    +0.104 C 
BRANCH  35  37
ATOM     36  C   UNL     1      -3.411   0.394  10.677  0.00  0.00    +0.005 C 
ATOM     37  C   UNL     1      -2.719   0.026   9.363  0.00  0.00    +0.015 C 
ENDBRANCH  35  37
ENDBRANCH  31  35
ENDBRANCH  30  32
ENDBRANCH   1  30
TORSDOF 7
