REMARK  Name = ZINC24877923
REMARK  9 active torsions:
REMARK  status: ('A' for Active; 'I' for Inactive)
REMARK    1  A    between atoms: C_4  and  O_29
REMARK    2  A    between atoms: C_5  and  C_7
REMARK    3  A    between atoms: C_7  and  N_8
REMARK    4  A    between atoms: C_11  and  N_14
REMARK    5  A    between atoms: N_14  and  C_15
REMARK    6  A    between atoms: N_14  and  S_19
REMARK    7  A    between atoms: C_15  and  C_16
REMARK    8  A    between atoms: S_19  and  C_22
REMARK    9  A    between atoms: O_29  and  C_30
REMARK                            x       y       z     vdW  Elec       q    Type
REMARK                         _______ _______ _______ _____ _____    ______ ____
ROOT
ATOM      1  N   UNL     1      -2.010  -1.832   3.968  0.00  0.00    +0.383 N 
ATOM      2  C   UNL     1      -1.879  -2.409   2.624  0.00  0.00    -0.077 C 
ATOM      3  C   UNL     1      -1.583  -1.296   1.616  0.00  0.00    +0.002 C 
ATOM      4  C   UNL     1      -2.721  -0.272   1.644  0.00  0.00    +0.076 C 
ATOM      5  C   UNL     1      -2.868   0.278   3.066  0.00  0.00    +0.002 C 
ATOM      6  C   UNL     1      -3.127  -0.881   4.031  0.00  0.00    -0.077 C 
ATOM      7  H   UNL     1      -1.085  -1.278   4.186  0.00  0.00    -0.081 HD
ENDROOT
BRANCH   1   8
ATOM      8  C   UNL     1      -2.158  -2.885   4.981  0.00  0.00    -0.039 C 
BRANCH   8  13
ATOM      9  C   UNL     1      -0.747  -1.815   8.316  0.00  0.00    +0.000 A 
ATOM     10  C   UNL     1      -1.830  -1.169   8.883  0.00  0.00    +0.004 A 
ATOM     11  C   UNL     1      -3.021  -1.075   8.189  0.00  0.00    +0.046 A 
ATOM     12  C   UNL     1      -3.130  -1.631   6.922  0.00  0.00    +0.128 A 
ATOM     13  C   UNL     1      -2.042  -2.280   6.356  0.00  0.00    -0.022 A 
ATOM     14  C   UNL     1      -0.855  -2.375   7.056  0.00  0.00    +0.005 A 
BRANCH  12  15
ATOM     15  O   UNL     1      -4.301  -1.541   6.238  0.00  0.00    -0.434 OA
BRANCH  15  16
ATOM     16  C   UNL     1      -5.378  -0.860   6.883  0.00  0.00    +0.541 C 
ATOM     17  F   UNL     1      -5.692  -1.511   8.081  0.00  0.00    -0.166 F 
ATOM     18  F   UNL     1      -5.000   0.459   7.155  0.00  0.00    -0.166 F 
ENDBRANCH  15  16
ENDBRANCH  12  15
ENDBRANCH   8  13
ENDBRANCH   1   8
BRANCH   4  19
ATOM     19  N   UNL     1      -2.414   0.826   0.724  0.00  0.00    -0.173 NA
BRANCH  19  20
ATOM     20  S   UNL     1      -3.432   1.154  -0.541  0.00  0.00    +0.064 S 
ATOM     21  O   UNL     1      -2.630   1.713  -1.573  0.00  0.00    -0.153 OA
ATOM     22  O   UNL     1      -4.224  -0.009  -0.737  0.00  0.00    -0.153 OA
BRANCH  20  23
ATOM     23  C   UNL     1      -4.528   2.428  -0.011  0.00  0.00    +0.140 A 
ATOM     24  C   UNL     1      -4.471   3.678  -0.597  0.00  0.00    +0.031 A 
ATOM     25  C   UNL     1      -5.331   4.677  -0.182  0.00  0.00    +0.002 A 
ATOM     26  C   UNL     1      -6.250   4.426   0.820  0.00  0.00    +0.003 A 
ATOM     27  C   UNL     1      -6.310   3.177   1.407  0.00  0.00    +0.040 A 
ATOM     28  C   UNL     1      -5.451   2.174   0.989  0.00  0.00    +0.150 A 
ATOM     29  F   UNL     1      -5.512   0.951   1.559  0.00  0.00    -0.203 F 
ENDBRANCH  20  23
ENDBRANCH  19  20
BRANCH  19  30
ATOM     30  C   UNL     1      -1.208   1.633   0.923  0.00  0.00    +0.113 C 
BRANCH  30  31
ATOM     31  C   UNL     1      -0.023   0.958   0.231  0.00  0.00    +0.005 C 
ATOM     32  C   UNL     1       0.648   1.712  -0.919  0.00  0.00    +0.005 C 
ATOM     33  C   UNL     1       1.360   1.582   0.429  0.00  0.00    +0.005 C 
ENDBRANCH  30  31
ENDBRANCH  19  30
ENDBRANCH   4  19
TORSDOF 9
