REMARK  Name = ZINC01155586
REMARK  5 active torsions:
REMARK  status: ('A' for Active; 'I' for Inactive)
REMARK    1  A    between atoms: C_1  and  O_2
REMARK    2  A    between atoms: O_2  and  C_3
REMARK    3  A    between atoms: C_5  and  C_11
REMARK    4  A    between atoms: C_8  and  O_9
REMARK    5  A    between atoms: C_16  and  C_21
REMARK                            x       y       z     vdW  Elec       q    Type
REMARK                         _______ _______ _______ _____ _____    ______ ____
ROOT
ATOM      1  C   UNL     1      -3.337   8.775  -0.004  0.00  0.00    +0.136 C 
ATOM      2  C   UNL     1      -2.724   7.395   0.006  0.00  0.00    +0.036 C 
ATOM      3  C   UNL     1      -2.396   6.686   1.098  0.00  0.00    +0.017 C 
ATOM      4  C   UNL     1      -1.806   5.292   0.962  0.00  0.00    +0.060 C 
ATOM      5  C   UNL     1      -0.950   5.213  -0.301  0.00  0.00    +0.039 C 
ATOM      6  C   UNL     1      -1.854   5.524  -1.500  0.00  0.00    +0.088 C 
ATOM      7  C   UNL     1      -2.490   6.864  -1.285  0.00  0.00    +0.163 C 
ATOM      8  O   UNL     1      -2.816   7.519  -2.256  0.00  0.00    -0.292 OA
ATOM      9  N   UNL     1      -2.550   7.114   2.377  0.00  0.00    -0.316 N 
ATOM     10  C   UNL     1      -3.700   7.711   2.880  0.00  0.00    +0.052 A 
ATOM     11  C   UNL     1      -4.469   7.121   3.867  0.00  0.00    +0.025 A 
ATOM     12  C   UNL     1      -5.578   7.791   4.355  0.00  0.00    +0.002 A 
ATOM     13  C   UNL     1      -5.911   9.040   3.863  0.00  0.00    +0.002 A 
ATOM     14  C   UNL     1      -5.153   9.624   2.863  0.00  0.00    +0.025 A 
ATOM     15  C   UNL     1      -4.055   8.946   2.358  0.00  0.00    +0.049 A 
ATOM     16  N   UNL     1      -3.326   9.445   1.279  0.00  0.00    -0.331 N 
ATOM     17  H   UNL     1      -1.803   6.994   2.984  0.00  0.00    +0.152 HD
ATOM     18  H   UNL     1      -2.803  10.254   1.390  0.00  0.00    +0.147 HD
ENDROOT
BRANCH   1  21
ATOM     19  C   UNL     1      -6.465   9.130  -2.094  0.00  0.00    +0.163 A 
ATOM     20  C   UNL     1      -5.153   9.242  -1.661  0.00  0.00    +0.055 A 
ATOM     21  C   UNL     1      -4.766   8.657  -0.470  0.00  0.00    -0.018 A 
ATOM     22  C   UNL     1      -5.687   7.970   0.298  0.00  0.00    +0.025 A 
ATOM     23  C   UNL     1      -6.999   7.858  -0.125  0.00  0.00    +0.063 A 
ATOM     24  C   UNL     1      -7.392   8.438  -1.321  0.00  0.00    +0.173 A 
ATOM     25 BR   UNL     1      -8.256   6.917   0.928  0.00  0.00    -0.046 Br
BRANCH  19  27
ATOM     26  C   UNL     1      -5.841  10.395  -4.008  0.00  0.00    +0.277 C 
ATOM     27  O   UNL     1      -6.846   9.700  -3.268  0.00  0.00    -0.491 OA
ENDBRANCH  19  27
BRANCH  24  28
ATOM     28  O   UNL     1      -8.682   8.329  -1.740  0.00  0.00    -0.503 OA
ATOM     29  H   UNL     1      -9.257   9.044  -1.433  0.00  0.00    +0.292 HD
ENDBRANCH  24  28
ENDBRANCH   1  21
BRANCH   5  30
ATOM     30  C   UNL     1      -0.374   3.827  -0.442  0.00  0.00    -0.006 A 
ATOM     31  C   UNL     1       0.925   3.444  -0.501  0.00  0.00    +0.011 A 
ATOM     32  C   UNL     1       1.223   2.101  -0.632  0.00  0.00    +0.008 A 
ATOM     33  C   UNL     1       0.207   1.206  -0.698  0.00  0.00    +0.045 A 
ATOM     34  S   UNL     1      -1.226   2.264  -0.580  0.00  0.00    -0.101 S 
ENDBRANCH   5  30
TORSDOF 4
