REMARK  Name = ZINC28614607
REMARK  10 active torsions:
REMARK  status: ('A' for Active; 'I' for Inactive)
REMARK    1  A    between atoms: C_1  and  C_2
REMARK    2  A    between atoms: C_5  and  C_34
REMARK    3  A    between atoms: N_8  and  C_10
REMARK    4  A    between atoms: C_13  and  C_19
REMARK    5  A    between atoms: C_15  and  N_16
REMARK    6  A    between atoms: C_19  and  O_21
REMARK    7  A    between atoms: O_21  and  C_22
REMARK    8  A    between atoms: C_22  and  C_23
REMARK    9  A    between atoms: N_25  and  C_26
REMARK   10  A    between atoms: C_27  and  C_31
REMARK                            x       y       z     vdW  Elec       q    Type
REMARK                         _______ _______ _______ _____ _____    ______ ____
ROOT
ATOM      1  C   UNL     1      -3.672   1.484   0.028  0.00  0.00    +0.340 C 
ATOM      2  O   UNL     1      -3.848   2.686   0.035  0.00  0.00    -0.245 OA
ENDROOT
BRANCH   1   6
ATOM      3  C   UNL     1      -6.996  -1.149   0.030  0.00  0.00    +0.060 A 
ATOM      4  C   UNL     1      -5.701  -1.660   0.021  0.00  0.00    +0.026 A 
ATOM      5  C   UNL     1      -4.629  -0.814   0.020  0.00  0.00    +0.017 A 
ATOM      6  C   UNL     1      -4.829   0.570   0.028  0.00  0.00    +0.061 A 
ATOM      7  C   UNL     1      -6.129   1.086   0.043  0.00  0.00    +0.049 A 
ATOM      8  C   UNL     1      -7.205   0.227   0.039  0.00  0.00    +0.148 A 
BRANCH   3  14
ATOM      9  C   UNL     1     -10.614  -2.720   1.278  0.00  0.00    +0.009 C 
ATOM     10  C   UNL     1      -9.399  -3.651   1.294  0.00  0.00    +0.003 C 
ATOM     11  C   UNL     1      -9.440  -4.565   0.066  0.00  0.00    +0.009 C 
ATOM     12  C   UNL     1      -9.355  -3.709  -1.200  0.00  0.00    +0.003 C 
ATOM     13  C   UNL     1      -8.073  -2.873  -1.161  0.00  0.00    +0.108 C 
ATOM     14  N   UNL     1      -8.083  -2.016   0.031  0.00  0.00    -0.328 N 
ATOM     15  C   UNL     1      -8.117  -2.817   1.261  0.00  0.00    +0.108 C 
ATOM     16  C   UNL     1      -9.335  -4.618  -2.431  0.00  0.00    +0.009 C 
ENDBRANCH   3  14
BRANCH   8  17
ATOM     17  N   UNL     1      -8.583   0.767   0.049  0.00  0.00    +0.058 N 
ATOM     18  O   UNL     1      -8.765   1.971   0.057  0.00  0.00    -0.126 OA
ATOM     19  O   UNL     1      -9.535   0.007   0.050  0.00  0.00    -0.126 OA
ENDBRANCH   8  17
ENDBRANCH   1   6
BRANCH   1  20
ATOM     20  O   UNL     1      -2.420   0.986   0.019  0.00  0.00    -0.452 OA
BRANCH  20  21
ATOM     21  C   UNL     1      -1.330   1.944   0.019  0.00  0.00    +0.328 C 
BRANCH  21  22
ATOM     22  C   UNL     1      -0.014   1.209   0.009  0.00  0.00    +0.255 C 
ATOM     23  O   UNL     1       0.002  -0.004   0.002  0.00  0.00    -0.272 OA
ATOM     24  N   UNL     1       1.143   1.898   0.001  0.00  0.00    -0.277 N 
ATOM     25  H   UNL     1       1.129   2.998   0.007  0.00  0.00    +0.155 HD
BRANCH  24  26
ATOM     26  C   UNL     1       2.354   1.221  -0.014  0.00  0.00    +0.084 A 
ATOM     27  C   UNL     1       3.639   1.750  -0.029  0.00  0.00    +0.065 A 
ATOM     28  C   UNL     1       4.730   0.805  -0.038  0.00  0.00    +0.022 A 
ATOM     29  C   UNL     1       4.410  -0.501  -0.043  0.00  0.00    +0.048 A 
ATOM     30  S   UNL     1       2.630  -0.488  -0.026  0.00  0.00    -0.081 S 
BRANCH  27  31
ATOM     31  C   UNL     1       3.875   3.198  -0.031  0.00  0.00    +0.244 C 
ATOM     32  O   UNL     1       2.932   3.968  -0.019  0.00  0.00    -0.270 OA
ATOM     33  N   UNL     1       5.135   3.675  -0.046  0.00  0.00    -0.325 N 
ATOM     34  H   UNL     1       5.312   4.761  -0.047  0.00  0.00    +0.145 HD
ATOM     35  H   UNL     1       5.987   2.979  -0.056  0.00  0.00    +0.145 HD
ENDBRANCH  27  31
ENDBRANCH  24  26
ENDBRANCH  21  22
ENDBRANCH  20  21
ENDBRANCH   1  20
TORSDOF 8
