REMARK  Name = ZINC20286869
REMARK  9 active torsions:
REMARK  status: ('A' for Active; 'I' for Inactive)
REMARK    1  A    between atoms: C_1  and  C_2
REMARK    2  A    between atoms: C_2  and  C_3
REMARK    3  A    between atoms: C_3  and  C_4
REMARK    4  A    between atoms: C_10  and  C_11
REMARK    5  A    between atoms: C_10  and  N_12
REMARK    6  A    between atoms: N_12  and  C_13
REMARK    7  A    between atoms: C_13  and  C_14
REMARK    8  A    between atoms: C_17  and  S_20
REMARK    9  A    between atoms: S_20  and  N_23
REMARK                            x       y       z     vdW  Elec       q    Type
REMARK                         _______ _______ _______ _____ _____    ______ ____
ROOT
ATOM      1  C   UNL     1       0.739  -2.004  -1.265  0.00  0.00    +0.074 C 
ATOM      2  N   UNL     1       0.229  -2.783  -0.360  0.00  0.00    -0.174 NA
ATOM      3  N   UNL     1       0.425  -4.127  -0.679  0.00  0.00    -0.132 N 
ATOM      4  C   UNL     1       1.093  -4.234  -1.846  0.00  0.00    +0.275 C 
ATOM      5  O   UNL     1       1.425  -5.263  -2.409  0.00  0.00    -0.268 OA
ATOM      6  C   UNL     1       1.334  -2.860  -2.303  0.00  0.00    +0.078 C 
ATOM      7  C   UNL     1       1.982  -2.457  -3.458  0.00  0.00    +0.015 C 
ATOM      8  C   UNL     1       2.532  -3.486  -4.412  0.00  0.00    +0.061 C 
ATOM      9  C   UNL     1      -0.004  -5.197   0.092  0.00  0.00    +0.189 A 
ATOM     10  N   UNL     1       0.142  -6.483  -0.129  0.00  0.00    -0.223 NA
ATOM     11  C   UNL     1      -0.331  -7.423   0.716  0.00  0.00    +0.080 A 
ATOM     12  C   UNL     1      -0.242  -8.830   0.595  0.00  0.00    +0.029 A 
ATOM     13  C   UNL     1      -0.782  -9.650   1.551  0.00  0.00    +0.002 A 
ATOM     14  C   UNL     1      -1.432  -9.136   2.664  0.00  0.00    +0.001 A 
ATOM     15  C   UNL     1      -1.538  -7.766   2.814  0.00  0.00    +0.017 A 
ATOM     16  C   UNL     1      -1.000  -6.936   1.862  0.00  0.00    +0.041 A 
ATOM     17  S   UNL     1      -0.891  -5.177   1.644  0.00  0.00    -0.050 S 
ENDROOT
BRANCH   7  18
ATOM     18  N   UNL     1       2.123  -1.143  -3.729  0.00  0.00    -0.343 N 
ATOM     19  H   UNL     1       1.769  -0.481  -3.115  0.00  0.00    +0.146 HD
BRANCH  18  20
ATOM     20  C   UNL     1       2.809  -0.717  -4.952  0.00  0.00    +0.136 C 
BRANCH  20  21
ATOM     21  C   UNL     1       2.830   0.788  -5.016  0.00  0.00    -0.030 A 
ATOM     22  C   UNL     1       1.795   1.468  -5.630  0.00  0.00    +0.007 A 
ATOM     23  C   UNL     1       1.815   2.849  -5.690  0.00  0.00    +0.029 A 
ATOM     24  C   UNL     1       2.870   3.550  -5.135  0.00  0.00    +0.105 A 
ATOM     25  C   UNL     1       3.904   2.870  -4.521  0.00  0.00    +0.029 A 
ATOM     26  C   UNL     1       3.882   1.489  -4.457  0.00  0.00    +0.007 A 
BRANCH  24  27
ATOM     27  S   UNL     1       2.896   5.310  -5.213  0.00  0.00    +0.056 S 
ATOM     28  O   UNL     1       4.257   5.702  -5.102  0.00  0.00    -0.153 OA
ATOM     29  O   UNL     1       2.084   5.680  -6.319  0.00  0.00    -0.153 OA
BRANCH  27  30
ATOM     30  N   UNL     1       2.130   5.871  -3.855  0.00  0.00    -0.204 NA
ATOM     31  H   UNL     1       1.773   5.245  -3.206  0.00  0.00    +0.144 HD
ATOM     32  H   UNL     1       2.039   6.826  -3.709  0.00  0.00    +0.144 HD
ENDBRANCH  27  30
ENDBRANCH  24  27
ENDBRANCH  20  21
ENDBRANCH  18  20
ENDBRANCH   7  18
BRANCH   1  33
ATOM     33  C   UNL     1       0.718  -0.497  -1.257  0.00  0.00    +0.057 C 
BRANCH  33  35
ATOM     34  C   UNL     1      -0.019   1.526   0.010  0.00  0.00    +0.004 C 
ATOM     35  C   UNL     1       0.002  -0.004   0.002  0.00  0.00    +0.003 C 
ENDBRANCH  33  35
ENDBRANCH   1  33
TORSDOF 7
