REMARK  Name = ZINC35809758
REMARK  7 active torsions:
REMARK  status: ('A' for Active; 'I' for Inactive)
REMARK    1  A    between atoms: C_1  and  C_2
REMARK    2  A    between atoms: C_2  and  O_3
REMARK    3  A    between atoms: O_3  and  C_4
REMARK    4  A    between atoms: C_7  and  C_10
REMARK    5  A    between atoms: C_10  and  N_11
REMARK    6  A    between atoms: C_20  and  C_22
REMARK    7  A    between atoms: C_26  and  C_28
REMARK                            x       y       z     vdW  Elec       q    Type
REMARK                         _______ _______ _______ _____ _____    ______ ____
ROOT
ATOM      1  N   UNL     1      -0.049  -6.560  -2.511  0.00  0.00    +0.391 N 
ATOM      2  C   UNL     1      -1.251  -6.497  -1.677  0.00  0.00    -0.075 C 
ATOM      3  C   UNL     1      -2.491  -6.883  -2.474  0.00  0.00    +0.003 C 
ATOM      4  C   UNL     1      -2.339  -6.419  -3.926  0.00  0.00    +0.119 C 
ATOM      5  N   UNL     1      -1.666  -7.473  -4.694  0.00  0.00    -0.352 N 
ATOM      6  C   UNL     1      -2.036  -7.944  -5.917  0.00  0.00    +0.086 A 
ATOM      7  C   UNL     1      -1.153  -8.893  -6.288  0.00  0.00    +0.019 A 
ATOM      8  C   UNL     1      -0.204  -9.016  -5.253  0.00  0.00    +0.021 A 
ATOM      9  C   UNL     1      -0.546  -8.141  -4.287  0.00  0.00    +0.009 A 
ATOM     10  C   UNL     1       0.171  -7.936  -2.975  0.00  0.00    +0.011 C 
ATOM     11  H   UNL     1      -0.164  -5.952  -3.309  0.00  0.00    -0.080 HD
ENDROOT
BRANCH  10  12
ATOM     12  C   UNL     1       1.647  -8.173  -3.166  0.00  0.00    -0.055 A 
ATOM     13  C   UNL     1       2.281  -9.186  -2.471  0.00  0.00    +0.002 A 
ATOM     14  C   UNL     1       3.634  -9.403  -2.647  0.00  0.00    +0.001 A 
ATOM     15  C   UNL     1       4.355  -8.607  -3.518  0.00  0.00    +0.012 A 
ATOM     16  C   UNL     1       3.721  -7.595  -4.213  0.00  0.00    +0.055 A 
ATOM     17  C   UNL     1       2.366  -7.381  -4.041  0.00  0.00    +0.014 A 
BRANCH  16  18
ATOM     18  C   UNL     1       4.507  -6.727  -5.163  0.00  0.00    +0.417 C 
ATOM     19  F   UNL     1       5.845  -7.136  -5.169  0.00  0.00    -0.166 F 
ATOM     20  F   UNL     1       3.976  -6.847  -6.452  0.00  0.00    -0.166 F 
ATOM     21  F   UNL     1       4.429  -5.393  -4.748  0.00  0.00    -0.166 F 
ENDBRANCH  16  18
ENDBRANCH  10  12
BRANCH   1  22
ATOM     22  C   UNL     1       1.112  -6.118  -1.727  0.00  0.00    -0.042 C 
BRANCH  22  26
ATOM     23  C   UNL     1       0.594  -2.031  -0.591  0.00  0.00    +0.121 A 
ATOM     24  C   UNL     1       0.129  -3.046   0.233  0.00  0.00    +0.046 A 
ATOM     25  C   UNL     1       0.297  -4.366  -0.136  0.00  0.00    +0.005 A 
ATOM     26  C   UNL     1       0.929  -4.677  -1.326  0.00  0.00    -0.064 A 
ATOM     27  C   UNL     1       1.393  -3.668  -2.150  0.00  0.00    +0.005 A 
ATOM     28  C   UNL     1       1.222  -2.346  -1.787  0.00  0.00    +0.046 A 
BRANCH  23  29
ATOM     29  O   UNL     1       0.428  -0.732  -0.230  0.00  0.00    -0.492 OA
BRANCH  29  31
ATOM     30  C   UNL     1      -0.320   1.027   1.249  0.00  0.00    +0.048 C 
ATOM     31  C   UNL     1      -0.227  -0.482   1.015  0.00  0.00    +0.225 C 
ENDBRANCH  29  31
ENDBRANCH  23  29
ENDBRANCH  22  26
ENDBRANCH   1  22
TORSDOF 6
