REMARK  Name = ZINC35271684
REMARK  13 active torsions:
REMARK  status: ('A' for Active; 'I' for Inactive)
REMARK    1  A    between atoms: C_1  and  C_2
REMARK    2  A    between atoms: C_4  and  O_25
REMARK    3  A    between atoms: C_8  and  C_24
REMARK    4  A    between atoms: C_12  and  O_20
REMARK    5  A    between atoms: C_15  and  C_16
REMARK    6  A    between atoms: C_15  and  O_19
REMARK    7  A    between atoms: C_16  and  C_17
REMARK    8  A    between atoms: C_16  and  C_18
REMARK    9  A    between atoms: O_20  and  C_21
REMARK   10  A    between atoms: C_21  and  C_23
REMARK   11  A    between atoms: O_25  and  C_26
REMARK   12  A    between atoms: C_26  and  C_28
REMARK   13  A    between atoms: C_31  and  O_34
REMARK                            x       y       z     vdW  Elec       q    Type
REMARK                         _______ _______ _______ _____ _____    ______ ____
ROOT
ATOM      1  C   UNL     1       4.954   1.260   4.796  0.00  0.00    +0.047 C 
ATOM      2  C   UNL     1       4.443   0.393   3.674  0.00  0.00    -0.009 C 
ATOM      3  C   UNL     1       3.842   0.961   2.624  0.00  0.00    +0.024 C 
ATOM      4  C   UNL     1       3.313   0.073   1.515  0.00  0.00    +0.207 C 
ATOM      5  C   UNL     1       2.175  -0.750   2.095  0.00  0.00    +0.076 C 
ATOM      6  C   UNL     1       2.681  -2.096   2.620  0.00  0.00    +0.021 C 
ATOM      7  C   UNL     1       3.397  -1.942   3.948  0.00  0.00    +0.090 C 
ATOM      8  C   UNL     1       4.617  -1.063   3.746  0.00  0.00    +0.159 C 
ATOM      9  O   UNL     1       5.723  -1.553   3.646  0.00  0.00    -0.292 OA
ATOM     10  C   UNL     1       1.393  -2.934   2.724  0.00  0.00    +0.186 C 
ATOM     11  C   UNL     1       0.586  -2.515   1.470  0.00  0.00    +0.080 C 
ATOM     12  C   UNL     1       1.117  -1.139   1.054  0.00  0.00    +0.079 C 
ATOM     13  C   UNL     1       3.624  -2.729   1.595  0.00  0.00    +0.016 C 
ENDROOT
BRANCH  12  14
ATOM     14  C   UNL     1       1.748  -1.209  -0.338  0.00  0.00    +0.015 C 
ATOM     15  C   UNL     1       1.456  -2.576  -0.961  0.00  0.00    +0.010 C 
ATOM     16  C   UNL     1       1.156  -0.110  -1.222  0.00  0.00    +0.010 C 
ENDBRANCH  12  14
BRANCH  12  17
ATOM     17  O   UNL     1       0.046  -0.193   1.064  0.00  0.00    -0.388 OA
ATOM     18  H   UNL     1      -0.655  -0.386   0.426  0.00  0.00    +0.210 HD
ENDBRANCH  12  17
BRANCH  10  19
ATOM     19  O   UNL     1       1.697  -4.330   2.686  0.00  0.00    -0.461 OA
BRANCH  19  20
ATOM     20  C   UNL     1       0.869  -5.152   3.351  0.00  0.00    +0.304 C 
ATOM     21  O   UNL     1      -0.082  -4.701   3.945  0.00  0.00    -0.251 OA
ATOM     22  C   UNL     1       1.126  -6.636   3.357  0.00  0.00    +0.136 C 
ENDBRANCH  19  20
ENDBRANCH  10  19
BRANCH   4  23
ATOM     23  O   UNL     1       2.832   0.878   0.436  0.00  0.00    -0.453 OA
BRANCH  23  24
ATOM     24  C   UNL     1       3.737   1.284  -0.475  0.00  0.00    +0.340 C 
ATOM     25  O   UNL     1       4.880   0.878  -0.419  0.00  0.00    -0.245 OA
BRANCH  24  26
ATOM     26  C   UNL     1       3.340   2.223  -1.541  0.00  0.00    +0.059 A 
ATOM     27  C   UNL     1       2.068   2.805  -1.525  0.00  0.00    +0.018 A 
ATOM     28  C   UNL     1       1.702   3.681  -2.522  0.00  0.00    +0.046 A 
ATOM     29  C   UNL     1       2.593   3.986  -3.544  0.00  0.00    +0.117 A 
ATOM     30  C   UNL     1       3.858   3.410  -3.564  0.00  0.00    +0.046 A 
ATOM     31  C   UNL     1       4.235   2.537  -2.567  0.00  0.00    +0.018 A 
BRANCH  29  32
ATOM     32  O   UNL     1       2.227   4.850  -4.525  0.00  0.00    -0.507 OA
ATOM     33  H   UNL     1       2.436   5.774  -4.333  0.00  0.00    +0.292 HD
ENDBRANCH  29  32
ENDBRANCH  24  26
ENDBRANCH  23  24
ENDBRANCH   4  23
TORSDOF 8
