REMARK  Name = ZINC43409840
REMARK  5 active torsions:
REMARK  status: ('A' for Active; 'I' for Inactive)
REMARK    1  A    between atoms: C_1  and  N_2
REMARK    2  A    between atoms: N_2  and  C_3
REMARK    3  A    between atoms: C_3  and  C_4
REMARK    4  A    between atoms: C_11  and  C_20
REMARK    5  A    between atoms: C_20  and  N_21
REMARK                            x       y       z     vdW  Elec       q    Type
REMARK                         _______ _______ _______ _____ _____    ______ ____
ROOT
ATOM      1  C   UNL     1      -1.432   0.326   0.353  0.00  0.00    +0.131 C 
ATOM      2  N   UNL     1      -0.110  -0.026  -0.173  0.00  0.00    -0.315 N 
ATOM      3  C   UNL     1       0.003  -0.633  -1.418  0.00  0.00    +0.100 A 
ATOM      4  C   UNL     1       0.040   0.150  -2.568  0.00  0.00    -0.027 A 
ATOM      5  C   UNL     1       0.150  -0.476  -3.794  0.00  0.00    +0.010 A 
ATOM      6  C   UNL     1       0.221  -1.867  -3.839  0.00  0.00    -0.028 A 
ATOM      7  C   UNL     1       0.184  -2.581  -2.665  0.00  0.00    +0.021 A 
ATOM      8  N   UNL     1       0.079  -1.948  -1.502  0.00  0.00    -0.346 N 
ATOM      9  C   UNL     1       0.275  -4.085  -2.632  0.00  0.00    +0.053 C 
ATOM     10  C   UNL     1      -0.040  -4.673  -4.007  0.00  0.00    +0.006 C 
ATOM     11  C   UNL     1       0.830  -3.960  -5.049  0.00  0.00    +0.005 C 
ATOM     12  C   UNL     1       0.333  -2.523  -5.189  0.00  0.00    +0.037 C 
ATOM     13  H   UNL     1       0.054  -2.471  -0.685  0.00  0.00    +0.167 HD
ENDROOT
BRANCH   2  14
ATOM     14  C   UNL     1       1.092   0.262   0.613  0.00  0.00    +0.141 C 
BRANCH  14  15
ATOM     15  C   UNL     1       1.378  -0.894   1.536  0.00  0.00    -0.022 A 
ATOM     16  C   UNL     1       0.834  -0.930   2.806  0.00  0.00    +0.028 A 
ATOM     17  C   UNL     1       1.112  -1.986   3.611  0.00  0.00    +0.055 A 
ATOM     18  S   UNL     1       2.171  -2.975   2.569  0.00  0.00    -0.090 S 
ATOM     19  C   UNL     1       2.167  -1.918   1.130  0.00  0.00    +0.051 A 
ATOM     20 BR   UNL     1       0.529  -2.322   5.378  0.00  0.00    -0.043 Br
ENDBRANCH  14  15
ENDBRANCH   2  14
BRANCH   4  21
ATOM     21  C   UNL     1      -0.038   1.652  -2.477  0.00  0.00    -0.047 C 
BRANCH  21  22
ATOM     22  N   UNL     1       1.283   2.190  -2.126  0.00  0.00    +0.381 N 
ATOM     23  H   UNL     1       1.594   1.779  -1.258  0.00  0.00    -0.090 HD
ATOM     24  H   UNL     1       1.942   1.970  -2.857  0.00  0.00    -0.090 HD
ATOM     25  H   UNL     1       1.221   3.192  -2.020  0.00  0.00    -0.090 HD
ENDBRANCH  21  22
ENDBRANCH   4  21
TORSDOF 4
