REMARK  Name = ZINC63068629
REMARK  11 active torsions:
REMARK  status: ('A' for Active; 'I' for Inactive)
REMARK    1  A    between atoms: C_1  and  C_2
REMARK    2  A    between atoms: C_2  and  C_3
REMARK    3  A    between atoms: C_3  and  C_4
REMARK    4  A    between atoms: C_3  and  N_19
REMARK    5  A    between atoms: C_4  and  N_5
REMARK    6  A    between atoms: N_8  and  C_9
REMARK    7  A    between atoms: C_9  and  C_10
REMARK    8  A    between atoms: C_9  and  C_11
REMARK    9  A    between atoms: C_12  and  C_18
REMARK   10  A    between atoms: N_14  and  C_17
REMARK   11  A    between atoms: C_15  and  C_16
REMARK                            x       y       z     vdW  Elec       q    Type
REMARK                         _______ _______ _______ _____ _____    ______ ____
ROOT
ATOM      1  N   UNL     1      -2.821  -2.587   0.046  0.00  0.00    -0.301 N 
ATOM      2  C   UNL     1      -3.041  -3.895   0.288  0.00  0.00    +0.300 C 
ATOM      3  O   UNL     1      -2.134  -4.601   0.683  0.00  0.00    -0.253 OA
ATOM      4  N   UNL     1      -4.267  -4.419   0.091  0.00  0.00    -0.293 N 
ATOM      5  H   UNL     1      -3.545  -2.024  -0.269  0.00  0.00    +0.150 HD
ATOM      6  H   UNL     1      -4.991  -3.856  -0.224  0.00  0.00    +0.151 HD
ENDROOT
BRANCH   4   7
ATOM      7  C   UNL     1      -4.506  -5.841   0.354  0.00  0.00    +0.105 C 
ATOM      8  C   UNL     1      -3.970  -6.672  -0.814  0.00  0.00    +0.033 C 
BRANCH   7   9
ATOM      9  C   UNL     1      -5.986  -6.082   0.505  0.00  0.00    +0.016 A 
ATOM     10  C   UNL     1      -6.985  -5.640  -0.368  0.00  0.00    +0.065 A 
ATOM     11  N   UNL     1      -8.140  -6.043   0.095  0.00  0.00    -0.176 NA
ATOM     12  N   UNL     1      -7.912  -6.755   1.280  0.00  0.00    -0.271 N 
ATOM     13  C   UNL     1      -6.582  -6.769   1.506  0.00  0.00    +0.041 A 
ATOM     14  C   UNL     1      -5.886  -7.429   2.668  0.00  0.00    +0.065 C 
ATOM     15  C   UNL     1      -8.937  -7.379   2.120  0.00  0.00    +0.172 C 
ATOM     16  C   UNL     1      -6.768  -4.838  -1.626  0.00  0.00    +0.068 C 
ENDBRANCH   7   9
ENDBRANCH   4   7
BRANCH   1  17
ATOM     17  C   UNL     1      -1.489  -2.017   0.260  0.00  0.00    +0.090 C 
BRANCH  17  18
ATOM     18  C   UNL     1      -1.460  -0.579  -0.263  0.00  0.00    -0.051 C 
BRANCH  18  19
ATOM     19  N   UNL     1      -1.542  -0.590  -1.730  0.00  0.00    +0.385 N 
ATOM     20  C   UNL     1      -2.796  -1.238  -2.147  0.00  0.00    -0.073 C 
ATOM     21  C   UNL     1      -3.010  -0.970  -3.638  0.00  0.00    +0.017 C 
ATOM     22  C   UNL     1      -1.764  -1.330  -4.405  0.00  0.00    -0.048 A 
ATOM     23  C   UNL     1      -1.853  -1.492  -5.779  0.00  0.00    +0.004 A 
ATOM     24  C   UNL     1      -0.733  -1.819  -6.516  0.00  0.00    +0.000 A 
ATOM     25  C   UNL     1       0.484  -1.985  -5.881  0.00  0.00    +0.000 A 
ATOM     26  C   UNL     1       0.573  -1.825  -4.513  0.00  0.00    +0.002 A 
ATOM     27  C   UNL     1      -0.552  -1.498  -3.770  0.00  0.00    -0.061 A 
ATOM     28  C   UNL     1      -0.411  -1.342  -2.279  0.00  0.00    -0.042 C 
ATOM     29  H   UNL     1      -1.519   0.357  -2.077  0.00  0.00    -0.081 HD
ENDBRANCH  18  19
BRANCH  18  31
ATOM     30  C   UNL     1      -0.159   1.554  -0.292  0.00  0.00    +0.002 C 
ATOM     31  C   UNL     1      -0.156   0.095   0.169  0.00  0.00    -0.017 C 
ENDBRANCH  18  31
ENDBRANCH  17  18
ENDBRANCH   1  17
TORSDOF 6
