REMARK  Name = ZINC08979470
REMARK  9 active torsions:
REMARK  status: ('A' for Active; 'I' for Inactive)
REMARK    1  A    between atoms: C_1  and  C_2
REMARK    2  A    between atoms: C_2  and  C_3
REMARK    3  A    between atoms: C_3  and  C_4
REMARK    4  A    between atoms: C_4  and  N_5
REMARK    5  A    between atoms: C_9  and  N_18
REMARK    6  A    between atoms: C_19  and  C_21
REMARK    7  A    between atoms: N_26  and  S_27
REMARK    8  A    between atoms: S_27  and  C_30
REMARK    9  A    between atoms: C_33  and  C_36
REMARK                            x       y       z     vdW  Elec       q    Type
REMARK                         _______ _______ _______ _____ _____    ______ ____
ROOT
ATOM      1  N   UNL     1       4.200   6.184  -2.395  0.00  0.00    -0.284 N 
ATOM      2  C   UNL     1       4.444   4.994  -1.811  0.00  0.00    +0.236 C 
ATOM      3  O   UNL     1       5.114   4.940  -0.802  0.00  0.00    -0.274 OA
ATOM      4  H   UNL     1       3.733   6.221  -3.244  0.00  0.00    +0.155 HD
ENDROOT
BRANCH   1   9
ATOM      5  N   UNL     1       5.891  11.027  -0.177  0.00  0.00    -0.267 N 
ATOM      6  C   UNL     1       5.478   9.730  -0.462  0.00  0.00    +0.045 A 
ATOM      7  C   UNL     1       5.232   8.570   0.253  0.00  0.00    +0.026 A 
ATOM      8  C   UNL     1       4.813   7.419  -0.407  0.00  0.00    +0.026 A 
ATOM      9  C   UNL     1       4.621   7.363  -1.779  0.00  0.00    +0.041 A 
ATOM     10  C   UNL     1       4.869   8.527  -2.536  0.00  0.00    +0.006 A 
ATOM     11  C   UNL     1       5.282   9.662  -1.836  0.00  0.00    +0.017 A 
ATOM     12  C   UNL     1       5.564  10.899  -2.436  0.00  0.00    +0.047 A 
ATOM     13  C   UNL     1       5.410  10.975  -3.810  0.00  0.00    +0.014 A 
ATOM     14  C   UNL     1       5.008   9.847  -4.523  0.00  0.00    +0.001 A 
ATOM     15  C   UNL     1       4.730   8.645  -3.926  0.00  0.00    +0.010 A 
ATOM     16  C   UNL     1       5.959  11.762  -1.318  0.00  0.00    +0.251 C 
ATOM     17  O   UNL     1       6.288  12.931  -1.398  0.00  0.00    -0.270 OA
BRANCH   5  18
ATOM     18  C   UNL     1       6.209  11.529   1.162  0.00  0.00    +0.114 C 
BRANCH  18  19
ATOM     19  C   UNL     1       7.695  11.305   1.452  0.00  0.00    +0.019 C 
BRANCH  19  21
ATOM     20  C   UNL     1       9.512  11.604   3.140  0.00  0.00    +0.004 C 
ATOM     21  C   UNL     1       8.027  11.829   2.851  0.00  0.00    -0.002 C 
ENDBRANCH  19  21
ENDBRANCH  18  19
ENDBRANCH   5  18
ENDBRANCH   1   9
BRANCH   2  22
ATOM     22  C   UNL     1       3.882   3.731  -2.411  0.00  0.00    +0.166 C 
ATOM     23  C   UNL     1       4.459   3.521  -3.827  0.00  0.00    +0.031 C 
ATOM     24  C   UNL     1       4.673   1.986  -3.891  0.00  0.00    +0.019 C 
ATOM     25  C   UNL     1       5.100   1.672  -2.433  0.00  0.00    +0.110 C 
ATOM     26  N   UNL     1       4.281   2.572  -1.601  0.00  0.00    -0.165 NA
BRANCH  26  27
ATOM     27  S   UNL     1       3.882   2.321  -0.013  0.00  0.00    +0.062 S 
ATOM     28  O   UNL     1       3.609   3.599   0.544  0.00  0.00    -0.153 OA
ATOM     29  O   UNL     1       4.871   1.452   0.522  0.00  0.00    -0.153 OA
BRANCH  27  30
ATOM     30  C   UNL     1       2.363   1.427   0.008  0.00  0.00    +0.106 A 
ATOM     31  C   UNL     1       1.161   2.109   0.029  0.00  0.00    +0.029 A 
ATOM     32  C   UNL     1      -0.031   1.408   0.045  0.00  0.00    +0.005 A 
ATOM     33  C   UNL     1      -0.020   0.026   0.041  0.00  0.00    -0.050 A 
ATOM     34  C   UNL     1       1.183  -0.655   0.021  0.00  0.00    +0.005 A 
ATOM     35  C   UNL     1       2.374   0.045   0.005  0.00  0.00    +0.029 A 
ATOM     36  C   UNL     1      -1.319  -0.738   0.058  0.00  0.00    +0.044 C 
ENDBRANCH  27  30
ENDBRANCH  26  27
ENDBRANCH   2  22
TORSDOF 7
