REMARK  Name = ZINC16383230
REMARK  9 active torsions:
REMARK  status: ('A' for Active; 'I' for Inactive)
REMARK    1  A    between atoms: C_1  and  C_2
REMARK    2  A    between atoms: C_2  and  N_67
REMARK    3  A    between atoms: N_5  and  C_8
REMARK    4  A    between atoms: C_10  and  N_18
REMARK    5  A    between atoms: C_11  and  N_15
REMARK    6  A    between atoms: C_22  and  C_25
REMARK    7  A    between atoms: C_26  and  C_28
REMARK    8  A    between atoms: C_28  and  O_29
REMARK    9  A    between atoms: O_29  and  C_30
REMARK                            x       y       z     vdW  Elec       q    Type
REMARK                         _______ _______ _______ _____ _____    ______ ____
ROOT
ATOM      1  C   UNL     1       0.757   2.241   0.897  0.00  0.00    +0.067 A 
ATOM      2  C   UNL     1      -0.559   2.676   0.956  0.00  0.00    +0.051 A 
ATOM      3  C   UNL     1      -1.036   3.567   0.005  0.00  0.00    +0.062 A 
ATOM      4  C   UNL     1      -0.195   4.025  -1.000  0.00  0.00    +0.150 A 
ATOM      5  C   UNL     1       1.115   3.587  -1.061  0.00  0.00    +0.074 A 
ATOM      6  C   UNL     1       1.594   2.699  -0.115  0.00  0.00    +0.147 A 
ATOM      7  F   UNL     1       2.876   2.276  -0.174  0.00  0.00    -0.203 F 
ENDROOT
BRANCH   3   8
ATOM      8  N   UNL     1      -2.362   4.006   0.062  0.00  0.00    -0.325 N 
ATOM      9  C   UNL     1      -3.296   2.877  -0.044  0.00  0.00    +0.124 C 
ATOM     10  C   UNL     1      -4.728   3.412  -0.160  0.00  0.00    +0.127 C 
ATOM     11  N   UNL     1      -4.979   4.324   0.967  0.00  0.00    -0.293 N 
ATOM     12  C   UNL     1      -4.009   5.401   1.220  0.00  0.00    +0.090 C 
ATOM     13  C   UNL     1      -2.606   4.787   1.282  0.00  0.00    +0.127 C 
ATOM     14  C   UNL     1      -4.330   6.084   2.550  0.00  0.00    +0.029 C 
ATOM     15  C   UNL     1      -6.068   4.176   1.746  0.00  0.00    +0.254 C 
ATOM     16  O   UNL     1      -6.216   4.883   2.721  0.00  0.00    -0.272 OA
BRANCH  15  17
ATOM     17  C   UNL     1      -7.102   3.134   1.407  0.00  0.00    +0.324 C 
BRANCH  17  18
ATOM     18  O   UNL     1      -8.153   3.172   2.375  0.00  0.00    -0.480 OA
BRANCH  18  19
ATOM     19  C   UNL     1      -9.173   2.288   2.213  0.00  0.00    +0.156 A 
ATOM     20  C   UNL     1      -9.166   1.407   1.143  0.00  0.00    +0.048 A 
ATOM     21  C   UNL     1     -10.202   0.506   0.984  0.00  0.00    +0.004 A 
ATOM     22  C   UNL     1     -11.251   0.489   1.885  0.00  0.00    +0.003 A 
ATOM     23  C   UNL     1     -11.264   1.370   2.950  0.00  0.00    +0.042 A 
ATOM     24  C   UNL     1     -10.228   2.271   3.118  0.00  0.00    +0.165 A 
ATOM     25  F   UNL     1     -10.241   3.131   4.159  0.00  0.00    -0.202 F 
ENDBRANCH  18  19
ENDBRANCH  17  18
ENDBRANCH  15  17
ENDBRANCH   3   8
BRANCH   1  28
ATOM     26  C   UNL     1       1.753   0.933   4.212  0.00  0.00    -0.060 C 
ATOM     27  C   UNL     1       1.141   1.910   3.205  0.00  0.00    +0.086 C 
ATOM     28  N   UNL     1       1.242   1.343   1.853  0.00  0.00    -0.331 N 
ATOM     29  C   UNL     1       0.538   0.056   1.772  0.00  0.00    +0.086 C 
ATOM     30  C   UNL     1       1.150  -0.922   2.778  0.00  0.00    -0.060 C 
ATOM     31  N   UNL     1       1.022  -0.350   4.135  0.00  0.00    +0.382 N 
ATOM     32  H   UNL     1       0.029  -0.181   4.334  0.00  0.00    -0.082 HD
BRANCH  31  34
ATOM     33  C   UNL     1       0.988  -2.691   4.862  0.00  0.00    -0.017 C 
ATOM     34  C   UNL     1       1.558  -1.298   5.135  0.00  0.00    -0.082 C 
ENDBRANCH  31  34
ENDBRANCH   1  28
BRANCH   4  35
ATOM     35  N   UNL     1      -0.702   4.981  -2.011  0.00  0.00    +0.058 N 
ATOM     36  O   UNL     1       0.002   5.303  -2.951  0.00  0.00    -0.126 OA
ATOM     37  O   UNL     1      -1.823   5.445  -1.901  0.00  0.00    -0.126 OA
ENDBRANCH   4  35
TORSDOF 7
