REMARK  Name = ZINC24704582
REMARK  9 active torsions:
REMARK  status: ('A' for Active; 'I' for Inactive)
REMARK    1  A    between atoms: C_1  and  C_2
REMARK    2  A    between atoms: C_2  and  C_3
REMARK    3  A    between atoms: C_2  and  C_4
REMARK    4  A    between atoms: C_2  and  C_5
REMARK    5  A    between atoms: C_12  and  C_14
REMARK    6  A    between atoms: N_16  and  N_17
REMARK    7  A    between atoms: C_18  and  C_20
REMARK    8  A    between atoms: C_20  and  C_21
REMARK    9  A    between atoms: C_21  and  N_22
REMARK                            x       y       z     vdW  Elec       q    Type
REMARK                         _______ _______ _______ _____ _____    ______ ____
ROOT
ATOM      1  N   UNL     1       0.002  -0.004   0.002  0.00  0.00    -0.234 N 
ATOM      2  C   UNL     1       1.178  -0.662  -0.013  0.00  0.00    +0.231 C 
ATOM      3  O   UNL     1       2.220  -0.041  -0.019  0.00  0.00    -0.274 OA
ATOM      4  H   UNL     1      -0.943  -0.567   0.008  0.00  0.00    +0.173 HD
ENDROOT
BRANCH   1   7
ATOM      5  C   UNL     1      -1.193   2.055   0.019  0.00  0.00    +0.267 C 
ATOM      6  O   UNL     1      -2.239   1.432   0.021  0.00  0.00    -0.268 OA
ATOM      7  N   UNL     1      -0.017   1.397   0.010  0.00  0.00    -0.230 N 
ATOM      8  H   UNL     1       0.928   1.960   0.008  0.00  0.00    +0.173 HD
BRANCH   5  15
ATOM      9  C   UNL     1      -2.598   8.118   0.521  0.00  0.00    -0.001 C 
ATOM     10  C   UNL     1      -1.373   8.483  -0.323  0.00  0.00    +0.009 C 
ATOM     11  C   UNL     1      -0.222   7.535   0.042  0.00  0.00    +0.043 C 
ATOM     12  C   UNL     1      -0.745   6.132   0.038  0.00  0.00    -0.006 A 
ATOM     13  C   UNL     1      -2.054   5.741   0.043  0.00  0.00    -0.036 A 
ATOM     14  C   UNL     1      -2.298   4.378   0.037  0.00  0.00    +0.024 A 
ATOM     15  C   UNL     1      -1.213   3.520   0.027  0.00  0.00    +0.076 A 
ATOM     16  S   UNL     1       0.157   4.665   0.035  0.00  0.00    -0.088 S 
ATOM     17  C   UNL     1      -3.172   6.780   0.055  0.00  0.00    +0.040 C 
BRANCH   9  19
ATOM     18  C   UNL     1      -4.881   8.851   1.224  0.00  0.00    +0.011 C 
ATOM     19  C   UNL     1      -3.661   9.208   0.371  0.00  0.00    -0.035 C 
ATOM     20  C   UNL     1      -3.088  10.547   0.838  0.00  0.00    +0.011 C 
ATOM     21  C   UNL     1      -4.079   9.315  -1.097  0.00  0.00    +0.011 C 
ENDBRANCH   9  19
ENDBRANCH   5  15
ENDBRANCH   1   7
BRANCH   2  22
ATOM     22  C   UNL     1       1.199  -2.169  -0.021  0.00  0.00    +0.119 C 
BRANCH  22  23
ATOM     23  C   UNL     1       2.648  -2.659  -0.037  0.00  0.00    +0.136 C 
BRANCH  23  24
ATOM     24  N   UNL     1       2.668  -4.124  -0.046  0.00  0.00    -0.288 N 
ATOM     25  C   UNL     1       2.666  -4.780  -1.226  0.00  0.00    +0.262 A 
ATOM     26  O   UNL     1       2.647  -4.171  -2.278  0.00  0.00    -0.267 OA
ATOM     27  C   UNL     1       2.686  -6.254  -1.206  0.00  0.00    +0.063 A 
ATOM     28  C   UNL     1       2.686  -7.003  -2.381  0.00  0.00    +0.015 A 
ATOM     29  C   UNL     1       2.706  -8.380  -2.308  0.00  0.00    +0.001 A 
ATOM     30  C   UNL     1       2.727  -9.018  -1.077  0.00  0.00    +0.002 A 
ATOM     31  C   UNL     1       2.728  -8.287   0.094  0.00  0.00    +0.026 A 
ATOM     32  C   UNL     1       2.707  -6.902   0.041  0.00  0.00    +0.053 A 
ATOM     33  N   UNL     1       2.708  -6.130   1.194  0.00  0.00    -0.335 N 
ATOM     34  H   UNL     1       2.720  -6.616   2.181  0.00  0.00    +0.168 HD
ATOM     35  C   UNL     1       2.693  -4.788   1.120  0.00  0.00    +0.161 A 
ATOM     36  S   UNL     1       2.701  -3.888   2.576  0.00  0.00    -0.013 S 
ENDBRANCH  23  24
ENDBRANCH  22  23
ENDBRANCH   2  22
TORSDOF 6
