REMARK  Name = ZINC40248689
REMARK  4 active torsions:
REMARK  status: ('A' for Active; 'I' for Inactive)
REMARK    1  A    between atoms: C_1  and  C_2
REMARK    2  A    between atoms: C_6  and  C_7
REMARK    3  A    between atoms: C_7  and  C_9
REMARK    4  A    between atoms: C_7  and  O_20
REMARK                            x       y       z     vdW  Elec       q    Type
REMARK                         _______ _______ _______ _____ _____    ______ ____
ROOT
ATOM      1  C   UNL     1       1.410  -0.333   3.166  0.00  0.00    -0.014 A 
ATOM      2  C   UNL     1       1.823  -1.562   3.645  0.00  0.00    +0.008 A 
ATOM      3  C   UNL     1       3.087  -1.708   4.182  0.00  0.00    +0.024 A 
ATOM      4  C   UNL     1       3.944  -0.617   4.239  0.00  0.00    +0.037 A 
ATOM      5  C   UNL     1       3.527   0.617   3.756  0.00  0.00    -0.025 A 
ATOM      6  C   UNL     1       2.263   0.754   3.216  0.00  0.00    +0.012 A 
ATOM      7  C   UNL     1       4.457   1.800   3.817  0.00  0.00    +0.046 C 
ATOM      8  C   UNL     1       5.324   1.704   5.073  0.00  0.00    +0.101 C 
ATOM      9  C   UNL     1       5.918   0.325   5.181  0.00  0.00    +0.218 C 
ATOM     10  O   UNL     1       7.035   0.188   5.635  0.00  0.00    -0.275 OA
ATOM     11  N   UNL     1       5.226  -0.756   4.780  0.00  0.00    -0.285 N 
ATOM     12  H   UNL     1       5.618  -1.639   4.868  0.00  0.00    +0.155 HD
ENDROOT
BRANCH   1  13
ATOM     13  C   UNL     1       0.030  -0.179   2.581  0.00  0.00    +0.181 C 
BRANCH  13  19
ATOM     14  C   UNL     1      -0.018   1.503   0.010  0.00  0.00    +0.044 C 
ATOM     15  C   UNL     1       0.002  -0.004   0.002  0.00  0.00    -0.037 A 
ATOM     16  C   UNL     1       0.006  -0.699  -1.193  0.00  0.00    +0.011 A 
ATOM     17  C   UNL     1       0.024  -2.054  -1.165  0.00  0.00    +0.046 A 
ATOM     18  S   UNL     1       0.037  -2.387   0.589  0.00  0.00    -0.098 S 
ATOM     19  C   UNL     1       0.023  -0.698   1.166  0.00  0.00    +0.025 A 
ENDBRANCH  13  19
BRANCH  13  20
ATOM     20  O   UNL     1      -0.906  -0.921   3.365  0.00  0.00    -0.382 OA
ATOM     21  H   UNL     1      -0.718  -1.869   3.409  0.00  0.00    +0.211 HD
ENDBRANCH  13  20
ENDBRANCH   1  13
TORSDOF 3
