REMARK  Name = ZINC62129940
REMARK  10 active torsions:
REMARK  status: ('A' for Active; 'I' for Inactive)
REMARK    1  A    between atoms: C_1  and  C_2
REMARK    2  A    between atoms: C_2  and  C_3
REMARK    3  A    between atoms: C_2  and  C_4
REMARK    4  A    between atoms: N_8  and  C_9
REMARK    5  A    between atoms: C_9  and  C_10
REMARK    6  A    between atoms: C_16  and  C_18
REMARK    7  A    between atoms: C_18  and  O_19
REMARK    8  A    between atoms: O_19  and  C_20
REMARK    9  A    between atoms: C_27  and  C_29
REMARK   10  A    between atoms: C_27  and  C_30
REMARK                            x       y       z     vdW  Elec       q    Type
REMARK                         _______ _______ _______ _____ _____    ______ ____
ROOT
ATOM      1  C   UNL     1      -0.482  -3.590  -0.831  0.00  0.00    +0.012 C 
ATOM      2  C   UNL     1       0.646  -3.026   0.036  0.00  0.00    +0.024 C 
ATOM      3  C   UNL     1       1.279  -4.162   0.846  0.00  0.00    +0.108 C 
ATOM      4  N   UNL     1       1.702  -5.223  -0.078  0.00  0.00    -0.299 N 
ATOM      5  C   UNL     1       0.717  -5.774  -1.019  0.00  0.00    +0.108 C 
ATOM      6  C   UNL     1       0.090  -4.620  -1.808  0.00  0.00    +0.024 C 
ATOM      7  C   UNL     1       2.969  -5.683  -0.062  0.00  0.00    +0.253 C 
ATOM      8  O   UNL     1       3.772  -5.220   0.719  0.00  0.00    -0.272 OA
ENDROOT
BRANCH   1   9
ATOM      9  C   UNL     1      -1.139  -2.453  -1.615  0.00  0.00    +0.126 C 
BRANCH   9  14
ATOM     10  C   UNL     1      -3.021  -1.703  -0.127  0.00  0.00    +0.090 A 
ATOM     11  N   UNL     1      -3.268  -0.684   0.650  0.00  0.00    -0.349 N 
ATOM     12  C   UNL     1      -2.228   0.163   0.614  0.00  0.00    +0.101 A 
ATOM     13  C   UNL     1      -1.302  -0.350  -0.218  0.00  0.00    +0.104 A 
ATOM     14  N   UNL     1      -1.802  -1.536  -0.684  0.00  0.00    -0.335 N 
ATOM     15  H   UNL     1      -4.076  -0.559   1.172  0.00  0.00    +0.166 HD
BRANCH  10  17
ATOM     16  C   UNL     1      -4.679  -3.207   0.938  0.00  0.00    +0.015 C 
ATOM     17  C   UNL     1      -3.940  -2.874  -0.360  0.00  0.00    +0.047 C 
ATOM     18  C   UNL     1      -4.956  -2.517  -1.447  0.00  0.00    +0.015 C 
ENDBRANCH  10  17
ENDBRANCH   9  14
ENDBRANCH   1   9
BRANCH   7  19
ATOM     19  C   UNL     1       3.387  -6.772  -1.017  0.00  0.00    +0.324 C 
BRANCH  19  20
ATOM     20  O   UNL     1       4.765  -7.084  -0.808  0.00  0.00    -0.479 OA
BRANCH  20  21
ATOM     21  C   UNL     1       5.304  -8.054  -1.594  0.00  0.00    +0.163 A 
ATOM     22  C   UNL     1       4.522  -8.684  -2.547  0.00  0.00    +0.049 A 
ATOM     23  C   UNL     1       5.062  -9.672  -3.349  0.00  0.00    +0.004 A 
ATOM     24  C   UNL     1       6.389 -10.034  -3.196  0.00  0.00    +0.007 A 
ATOM     25  C   UNL     1       7.170  -9.411  -2.247  0.00  0.00    +0.002 A 
ATOM     26  C   UNL     1       6.647  -8.408  -1.443  0.00  0.00    +0.166 A 
ATOM     27  O   UNL     1       7.592  -7.910  -0.598  0.00  0.00    -0.482 OA
ATOM     28  C   UNL     1       8.675  -8.849  -0.492  0.00  0.00    +0.109 C 
ATOM     29  C   UNL     1       8.620  -9.593  -1.843  0.00  0.00    +0.086 C 
ATOM     30  C   UNL     1       8.434  -9.826   0.661  0.00  0.00    +0.056 C 
ATOM     31  C   UNL     1      10.009  -8.121  -0.318  0.00  0.00    +0.056 C 
ENDBRANCH  20  21
ENDBRANCH  19  20
ENDBRANCH   7  19
TORSDOF 6
