REMARK  Name = ZINC59119337
REMARK  7 active torsions:
REMARK  status: ('A' for Active; 'I' for Inactive)
REMARK    1  A    between atoms: C_1  and  C_2
REMARK    2  A    between atoms: C_2  and  C_4
REMARK    3  A    between atoms: C_2  and  N_11
REMARK    4  A    between atoms: N_14  and  C_15
REMARK    5  A    between atoms: C_15  and  C_16
REMARK    6  A    between atoms: C_16  and  C_18
REMARK    7  A    between atoms: C_16  and  O_25
REMARK                            x       y       z     vdW  Elec       q    Type
REMARK                         _______ _______ _______ _____ _____    ______ ____
ROOT
ATOM      1  N   UNL     1       0.711  -0.489   1.189  0.00  0.00    -0.293 N 
ATOM      2  C   UNL     1       0.051  -0.633   2.355  0.00  0.00    +0.300 C 
ATOM      3  O   UNL     1      -1.132  -0.361   2.423  0.00  0.00    -0.253 OA
ATOM      4  N   UNL     1       0.703  -1.080   3.447  0.00  0.00    -0.297 N 
ATOM      5  H   UNL     1       1.654  -0.707   1.135  0.00  0.00    +0.151 HD
ATOM      6  H   UNL     1       1.647  -1.298   3.394  0.00  0.00    +0.150 HD
ENDROOT
BRANCH   1   8
ATOM      7  C   UNL     1      -0.019   1.526   0.010  0.00  0.00    +0.033 C 
ATOM      8  C   UNL     1       0.002  -0.004   0.002  0.00  0.00    +0.102 C 
BRANCH   8   9
ATOM      9  C   UNL     1       0.707  -0.490  -1.238  0.00  0.00    -0.026 A 
ATOM     10  C   UNL     1       2.089  -0.511  -1.284  0.00  0.00    +0.005 A 
ATOM     11  C   UNL     1       2.737  -0.957  -2.421  0.00  0.00    +0.001 A 
ATOM     12  C   UNL     1       2.003  -1.382  -3.513  0.00  0.00    +0.015 A 
ATOM     13  C   UNL     1       0.621  -1.361  -3.467  0.00  0.00    +0.018 A 
ATOM     14  C   UNL     1      -0.027  -0.920  -2.327  0.00  0.00    +0.020 A 
ATOM     15 BR   UNL     1      -0.383  -1.942  -4.960  0.00  0.00    -0.050 Br
ENDBRANCH   8   9
ENDBRANCH   1   8
BRANCH   4  16
ATOM     16  C   UNL     1      -0.014  -1.237   4.715  0.00  0.00    +0.142 C 
BRANCH  16  17
ATOM     17  C   UNL     1       0.950  -1.754   5.785  0.00  0.00    +0.164 C 
BRANCH  17  18
ATOM     18  C   UNL     1       0.212  -1.915   7.090  0.00  0.00    +0.018 A 
ATOM     19  C   UNL     1      -0.309  -3.146   7.442  0.00  0.00    +0.009 A 
ATOM     20  C   UNL     1      -0.985  -3.294   8.638  0.00  0.00    +0.001 A 
ATOM     21  C   UNL     1      -1.141  -2.211   9.484  0.00  0.00    +0.003 A 
ATOM     22  C   UNL     1      -0.621  -0.980   9.134  0.00  0.00    +0.039 A 
ATOM     23  C   UNL     1       0.062  -0.832   7.938  0.00  0.00    +0.129 A 
ATOM     24  F   UNL     1       0.575   0.371   7.598  0.00  0.00    -0.205 F 
ENDBRANCH  17  18
BRANCH  17  25
ATOM     25  O   UNL     1       1.480  -3.017   5.379  0.00  0.00    -0.386 OA
ATOM     26  H   UNL     1       0.809  -3.700   5.245  0.00  0.00    +0.210 HD
ENDBRANCH  17  25
ENDBRANCH  16  17
ENDBRANCH   4  16
TORSDOF 6
