REMARK  Name = ZINC16972955
REMARK  2 active torsions:
REMARK  status: ('A' for Active; 'I' for Inactive)
REMARK    1  A    between atoms: C_4  and  N_7
REMARK    2  A    between atoms: C_14  and  N_30
REMARK                            x       y       z     vdW  Elec       q    Type
REMARK                         _______ _______ _______ _____ _____    ______ ____
ROOT
ATOM      1  N   UNL     1       3.620  -0.649  -0.036  0.00  0.00    -0.327 N 
ATOM      2  C   UNL     1       4.848   0.120  -0.150  0.00  0.00    +0.124 C 
ATOM      3  C   UNL     1       5.801  -0.506  -1.147  0.00  0.00    +0.124 C 
ATOM      4  N   UNL     1       5.815  -1.966  -1.089  0.00  0.00    -0.322 N 
ATOM      5  C   UNL     1       7.056  -2.592  -1.321  0.00  0.00    +0.033 A 
ATOM      6  C   UNL     1       8.184  -1.791  -1.478  0.00  0.00    +0.025 A 
ATOM      7  C   UNL     1       9.414  -2.369  -1.716  0.00  0.00    +0.024 A 
ATOM      8  C   UNL     1       9.527  -3.751  -1.801  0.00  0.00    +0.025 A 
ATOM      9  C   UNL     1       8.402  -4.549  -1.641  0.00  0.00    +0.028 A 
ATOM     10  C   UNL     1       7.172  -3.967  -1.397  0.00  0.00    -0.023 A 
ATOM     11  C   UNL     1       5.963  -4.845  -1.200  0.00  0.00    +0.064 C 
ATOM     12  C   UNL     1       4.982  -4.128  -0.269  0.00  0.00    +0.147 C 
ATOM     13  C   UNL     1       4.620  -2.760  -0.863  0.00  0.00    +0.115 C 
ATOM     14  C   UNL     1       3.613  -2.095   0.067  0.00  0.00    +0.129 C 
ATOM     15  C   UNL     1       5.627  -3.926   1.074  0.00  0.00    +0.238 C 
ATOM     16  N   UNL     1       5.100  -4.429   2.198  0.00  0.00    -0.239 N 
ATOM     17  C   UNL     1       3.966  -5.146   2.191  0.00  0.00    +0.312 C 
ATOM     18  N   UNL     1       3.302  -5.401   1.054  0.00  0.00    -0.239 N 
ATOM     19  C   UNL     1       3.731  -4.951  -0.134  0.00  0.00    +0.238 C 
ATOM     20  O   UNL     1       3.090  -5.215  -1.129  0.00  0.00    -0.274 OA
ATOM     21  O   UNL     1       3.530  -5.576   3.241  0.00  0.00    -0.252 OA
ATOM     22  O   UNL     1       6.655  -3.288   1.142  0.00  0.00    -0.274 OA
ATOM     23  H   UNL     1       5.551  -4.271   3.042  0.00  0.00    +0.159 HD
ATOM     24  H   UNL     1       2.487  -5.926   1.091  0.00  0.00    +0.159 HD
ENDROOT
BRANCH   1  28
ATOM     25  C   UNL     1      -0.017   1.379   0.011  0.00  0.00    +0.000 A 
ATOM     26  C   UNL     1       0.002  -0.004  -0.011  0.00  0.00    +0.002 A 
ATOM     27  C   UNL     1       1.206  -0.680  -0.028  0.00  0.00    +0.023 A 
ATOM     28  C   UNL     1       2.400   0.031  -0.021  0.00  0.00    +0.030 A 
ATOM     29  C   UNL     1       2.377   1.420   0.002  0.00  0.00    +0.023 A 
ATOM     30  C   UNL     1       1.170   2.089   0.018  0.00  0.00    +0.002 A 
ENDBRANCH   1  28
BRANCH   8  31
ATOM     31  N   UNL     1      10.774  -4.338  -2.048  0.00  0.00    -0.358 N 
ATOM     32  H   UNL     1      11.559  -3.780  -2.159  0.00  0.00    +0.142 HD
ATOM     33  H   UNL     1      10.852  -5.303  -2.107  0.00  0.00    +0.142 HD
ENDBRANCH   8  31
TORSDOF 2
