REMARK  Name = ZINC02827218
REMARK  8 active torsions:
REMARK  status: ('A' for Active; 'I' for Inactive)
REMARK    1  A    between atoms: C_1  and  C_2
REMARK    2  A    between atoms: C_2  and  C_3
REMARK    3  A    between atoms: C_5  and  N_29
REMARK    4  A    between atoms: C_6  and  C_19
REMARK    5  A    between atoms: C_15  and  C_17
REMARK    6  A    between atoms: C_15  and  C_18
REMARK    7  A    between atoms: N_21  and  C_22
REMARK    8  A    between atoms: C_22  and  C_23
REMARK                            x       y       z     vdW  Elec       q    Type
REMARK                         _______ _______ _______ _____ _____    ______ ____
ROOT
ATOM      1  C   UNL     1      -0.189   4.000   0.252  0.00  0.00    -0.024 A 
ATOM      2  C   UNL     1      -1.258   3.107   0.026  0.00  0.00    +0.033 A 
ATOM      3  C   UNL     1      -1.208   1.673  -0.222  0.00  0.00    +0.054 A 
ATOM      4  C   UNL     1      -2.394   1.002  -0.419  0.00  0.00    +0.097 A 
ATOM      5  S   UNL     1      -3.623   2.285  -0.285  0.00  0.00    -0.062 S 
ATOM      6  C   UNL     1      -2.557   3.672   0.025  0.00  0.00    +0.111 A 
ATOM      7  N   UNL     1      -2.777   4.955   0.226  0.00  0.00    -0.244 NA
ATOM      8  C   UNL     1      -1.795   5.809   0.441  0.00  0.00    +0.054 A 
ATOM      9  C   UNL     1      -0.470   5.348   0.464  0.00  0.00    +0.043 A 
ATOM     10  C   UNL     1       0.634   6.290   0.716  0.00  0.00    +0.166 C 
ATOM     11  O   UNL     1       1.756   5.894   0.950  0.00  0.00    -0.292 OA
ATOM     12  C   UNL     1       0.319   7.771   0.674  0.00  0.00    +0.086 C 
ATOM     13  C   UNL     1      -1.012   7.978   1.409  0.00  0.00    -0.022 C 
ATOM     14  C   UNL     1      -2.126   7.261   0.652  0.00  0.00    +0.063 C 
ATOM     15  C   UNL     1      -1.326   9.474   1.484  0.00  0.00    +0.011 C 
ATOM     16  C   UNL     1      -0.908   7.407   2.825  0.00  0.00    +0.011 C 
ENDROOT
BRANCH   4  17
ATOM     17  C   UNL     1      -2.590  -0.379  -0.669  0.00  0.00    +0.253 C 
ATOM     18  O   UNL     1      -1.632  -1.129  -0.731  0.00  0.00    -0.270 OA
ATOM     19  N   UNL     1      -3.837  -0.863  -0.839  0.00  0.00    -0.308 N 
ATOM     20  H   UNL     1      -4.599  -0.266  -0.790  0.00  0.00    +0.149 HD
BRANCH  19  21
ATOM     21  C   UNL     1      -4.039  -2.291  -1.097  0.00  0.00    +0.136 C 
BRANCH  21  22
ATOM     22  C   UNL     1      -5.535  -2.574  -1.250  0.00  0.00    +0.135 C 
ATOM     23  C   UNL     1      -5.783  -4.091  -1.398  0.00  0.00    +0.035 C 
ATOM     24  C   UNL     1      -6.940  -4.185  -2.418  0.00  0.00    +0.031 C 
ATOM     25  C   UNL     1      -7.254  -2.713  -2.765  0.00  0.00    +0.160 C 
ATOM     26  O   UNL     1      -6.034  -1.997  -2.476  0.00  0.00    -0.375 OA
ENDBRANCH  21  22
ENDBRANCH  19  21
ENDBRANCH   4  17
BRANCH   3  27
ATOM     27  N   UNL     1       0.004   0.999  -0.254  0.00  0.00    -0.356 N 
ATOM     28  H   UNL     1       0.114   0.225  -0.828  0.00  0.00    +0.142 HD
ATOM     29  H   UNL     1       0.743   1.304   0.295  0.00  0.00    +0.142 HD
ENDBRANCH   3  27
BRANCH   1  31
ATOM     30  C   UNL     1       1.614   3.099   1.696  0.00  0.00    +0.009 C 
ATOM     31  C   UNL     1       1.234   3.502   0.271  0.00  0.00    +0.033 C 
ENDBRANCH   1  31
TORSDOF 5
