REMARK  Name = ZINC59886208
REMARK  12 active torsions:
REMARK  status: ('A' for Active; 'I' for Inactive)
REMARK    1  A    between atoms: C_1  and  C_2
REMARK    2  A    between atoms: C_5  and  S_24
REMARK    3  A    between atoms: C_7  and  C_8
REMARK    4  A    between atoms: N_10  and  C_11
REMARK    5  A    between atoms: C_11  and  C_12
REMARK    6  A    between atoms: C_12  and  C_14
REMARK    7  A    between atoms: C_12  and  N_21
REMARK    8  A    between atoms: N_21  and  C_22
REMARK    9  A    between atoms: N_21  and  C_23
REMARK   10  A    between atoms: S_24  and  N_27
REMARK   11  A    between atoms: N_27  and  C_28
REMARK   12  A    between atoms: C_28  and  C_29
REMARK                            x       y       z     vdW  Elec       q    Type
REMARK                         _______ _______ _______ _____ _____    ______ ____
ROOT
ATOM      1  C   UNL     1      -0.302   1.332   0.011  0.00  0.00    +0.044 C 
ATOM      2  C   UNL     1      -0.309  -0.175   0.048  0.00  0.00    -0.038 A 
ATOM      3  C   UNL     1      -0.505  -0.894  -1.113  0.00  0.00    +0.006 A 
ATOM      4  C   UNL     1      -0.513  -2.277  -1.081  0.00  0.00    +0.029 A 
ATOM      5  C   UNL     1      -0.324  -2.948   0.114  0.00  0.00    +0.106 A 
ATOM      6  C   UNL     1      -0.127  -2.241   1.282  0.00  0.00    +0.041 A 
ATOM      7  C   UNL     1      -0.113  -0.846   1.256  0.00  0.00    +0.041 A 
ENDROOT
BRANCH   7   8
ATOM      8  C   UNL     1       0.103  -0.082   2.503  0.00  0.00    +0.244 C 
ATOM      9  O   UNL     1       0.047   1.133   2.489  0.00  0.00    -0.270 OA
ATOM     10  N   UNL     1       0.364  -0.731   3.654  0.00  0.00    -0.313 N 
ATOM     11  H   UNL     1       0.409  -1.700   3.665  0.00  0.00    +0.149 HD
BRANCH  10  12
ATOM     12  C   UNL     1       0.578   0.026   4.890  0.00  0.00    +0.094 C 
BRANCH  12  13
ATOM     13  C   UNL     1       0.972  -0.934   6.014  0.00  0.00    -0.021 C 
BRANCH  13  14
ATOM     14  C   UNL     1      -0.176  -1.865   6.306  0.00  0.00    -0.059 A 
ATOM     15  C   UNL     1      -1.234  -1.433   7.084  0.00  0.00    +0.005 A 
ATOM     16  C   UNL     1      -2.289  -2.286   7.352  0.00  0.00    +0.038 A 
ATOM     17  C   UNL     1      -2.285  -3.572   6.840  0.00  0.00    +0.123 A 
ATOM     18  C   UNL     1      -1.225  -4.003   6.061  0.00  0.00    +0.038 A 
ATOM     19  C   UNL     1      -0.174  -3.147   5.790  0.00  0.00    +0.005 A 
ATOM     20  F   UNL     1      -3.315  -4.407   7.102  0.00  0.00    -0.205 F 
ENDBRANCH  13  14
BRANCH  13  21
ATOM     21  N   UNL     1       1.298  -0.165   7.223  0.00  0.00    +0.382 N 
ATOM     22  C   UNL     1       1.761  -1.080   8.275  0.00  0.00    -0.096 C 
ATOM     23  C   UNL     1       2.359   0.804   6.916  0.00  0.00    -0.096 C 
ATOM     24  H   UNL     1       0.476   0.326   7.541  0.00  0.00    -0.082 HD
ENDBRANCH  13  21
ENDBRANCH  12  13
ENDBRANCH  10  12
ENDBRANCH   7   8
BRANCH   5  25
ATOM     25  S   UNL     1      -0.337  -4.710   0.144  0.00  0.00    +0.059 S 
ATOM     26  O   UNL     1      -0.682  -5.091   1.469  0.00  0.00    -0.153 OA
ATOM     27  O   UNL     1      -1.084  -5.130  -0.989  0.00  0.00    -0.153 OA
BRANCH  25  28
ATOM     28  N   UNL     1       1.221  -5.215  -0.102  0.00  0.00    -0.183 NA
ATOM     29  H   UNL     1       1.449  -5.713  -0.903  0.00  0.00    +0.148 HD
BRANCH  28  30
ATOM     30  C   UNL     1       2.256  -4.909   0.889  0.00  0.00    +0.180 C 
BRANCH  30  31
ATOM     31  C   UNL     1       3.467  -5.768   0.631  0.00  0.00    +0.120 A 
ATOM     32  C   UNL     1       4.507  -5.444  -0.159  0.00  0.00    +0.046 A 
ATOM     33  C   UNL     1       5.411  -6.531  -0.111  0.00  0.00    +0.041 A 
ATOM     34  C   UNL     1       4.869  -7.453   0.705  0.00  0.00    +0.195 A 
ATOM     35  O   UNL     1       3.695  -6.983   1.156  0.00  0.00    -0.466 OA
ENDBRANCH  30  31
ENDBRANCH  28  30
ENDBRANCH  25  28
ENDBRANCH   5  25
TORSDOF 9
