REMARK  Name = ZINC14415571
REMARK  5 active torsions:
REMARK  status: ('A' for Active; 'I' for Inactive)
REMARK    1  A    between atoms: C_1  and  C_2
REMARK    2  A    between atoms: C_7  and  O_27
REMARK    3  A    between atoms: C_9  and  O_26
REMARK    4  A    between atoms: C_17  and  O_25
REMARK    5  A    between atoms: C_19  and  O_24
REMARK                            x       y       z     vdW  Elec       q    Type
REMARK                         _______ _______ _______ _____ _____    ______ ____
ROOT
ATOM      1  C   UNL     1      -2.234   1.783  -0.899  0.00  0.00    +0.052 C 
ATOM      2  C   UNL     1      -0.753   1.593  -1.232  0.00  0.00    +0.177 C 
ATOM      3  C   UNL     1      -0.086   0.761  -0.134  0.00  0.00    +0.071 C 
ATOM      4  C   UNL     1      -0.812   0.975   1.169  0.00  0.00    -0.025 C 
ATOM      5  C   UNL     1      -0.356   0.423   2.267  0.00  0.00    +0.002 C 
ATOM      6  C   UNL     1      -1.080   0.633   3.573  0.00  0.00    +0.166 C 
ATOM      7  C   UNL     1      -0.257   1.563   4.466  0.00  0.00    +0.147 C 
ATOM      8  C   UNL     1      -0.772   2.995   4.327  0.00  0.00    +0.038 C 
ATOM      9  C   UNL     1       0.398   3.976   4.427  0.00  0.00    +0.030 C 
ATOM     10  C   UNL     1       0.511   4.755   3.143  0.00  0.00    -0.026 C 
ATOM     11  C   UNL     1       1.485   4.464   2.278  0.00  0.00    +0.005 C 
ATOM     12  C   UNL     1       1.575   5.232   1.025  0.00  0.00    -0.004 A 
ATOM     13  C   UNL     1       2.179   6.487   1.030  0.00  0.00    +0.054 A 
ATOM     14  C   UNL     1       2.281   7.211  -0.148  0.00  0.00    +0.121 A 
ATOM     15  C   UNL     1       1.784   6.697  -1.339  0.00  0.00    +0.091 A 
ATOM     16  C   UNL     1       1.174   5.454  -1.364  0.00  0.00    +0.135 A 
ATOM     17  C   UNL     1       1.063   4.710  -0.181  0.00  0.00    +0.108 A 
ATOM     18  C   UNL     1       0.414   3.392  -0.187  0.00  0.00    +0.344 C 
ATOM     19  O   UNL     1       0.349   2.748   0.843  0.00  0.00    -0.245 OA
ATOM     20  O   UNL     1      -0.108   2.891  -1.321  0.00  0.00    -0.458 OA
ENDROOT
BRANCH  16  21
ATOM     21  O   UNL     1       0.688   4.957  -2.529  0.00  0.00    -0.506 OA
ATOM     22  H   UNL     1      -0.234   5.191  -2.702  0.00  0.00    +0.292 HD
ENDBRANCH  16  21
BRANCH  14  23
ATOM     23  O   UNL     1       2.872   8.433  -0.138  0.00  0.00    -0.507 OA
ATOM     24  H   UNL     1       3.825   8.410  -0.299  0.00  0.00    +0.292 HD
ENDBRANCH  14  23
BRANCH   7  25
ATOM     25  O   UNL     1       1.116   1.510   4.071  0.00  0.00    -0.389 OA
ATOM     26  H   UNL     1       1.510   0.629   4.135  0.00  0.00    +0.210 HD
ENDBRANCH   7  25
BRANCH   6  27
ATOM     27  O   UNL     1      -1.256  -0.625   4.228  0.00  0.00    -0.385 OA
ATOM     28  H   UNL     1      -1.770  -1.265   3.718  0.00  0.00    +0.210 HD
ENDBRANCH   6  27
TORSDOF 4
