REMARK  Name = ZINC67117847
REMARK  6 active torsions:
REMARK  status: ('A' for Active; 'I' for Inactive)
REMARK    1  A    between atoms: C_1  and  C_2
REMARK    2  A    between atoms: C_5  and  N_11
REMARK    3  A    between atoms: C_6  and  N_8
REMARK    4  A    between atoms: C_12  and  C_14
REMARK    5  A    between atoms: C_14  and  N_15
REMARK    6  A    between atoms: C_19  and  C_21
REMARK                            x       y       z     vdW  Elec       q    Type
REMARK                         _______ _______ _______ _____ _____    ______ ____
ROOT
ATOM      1  C   UNL     1      -0.173  -6.457  -1.194  0.00  0.00    +0.020 C 
ENDROOT
BRANCH   1   2
ATOM      2  N   UNL     1      -0.295  -6.978  -2.562  0.00  0.00    +0.393 N 
ATOM      3  C   UNL     1      -1.638  -6.664  -3.096  0.00  0.00    -0.077 C 
ATOM      4  C   UNL     1      -2.016  -7.893  -3.961  0.00  0.00    -0.020 C 
ATOM      5  C   UNL     1      -1.415  -9.057  -3.131  0.00  0.00    -0.008 C 
ATOM      6  C   UNL     1      -0.124  -8.442  -2.552  0.00  0.00    +0.020 C 
ATOM      7  H   UNL     1       0.409  -6.558  -3.150  0.00  0.00    -0.080 HD
BRANCH   6   8
ATOM      8  C   UNL     1       0.086  -8.924  -1.140  0.00  0.00    +0.202 C 
ATOM      9  O   UNL     1      -0.798  -8.800  -0.319  0.00  0.00    -0.277 OA
ATOM     10  N   UNL     1       1.256  -9.494  -0.789  0.00  0.00    -0.301 N 
ATOM     11  C   UNL     1       2.362  -9.524  -1.747  0.00  0.00    +0.118 C 
ATOM     12  C   UNL     1       3.512  -8.655  -1.226  0.00  0.00    +0.088 C 
ATOM     13  S   UNL     1       4.005  -9.265   0.414  0.00  0.00    -0.158 S 
ATOM     14  C   UNL     1       2.441  -9.273   1.340  0.00  0.00    +0.088 C 
ATOM     15  C   UNL     1       1.406 -10.071   0.548  0.00  0.00    +0.118 C 
ENDBRANCH   6   8
ENDBRANCH   1   2
BRANCH   1  17
ATOM     16  N   UNL     1      -0.088  -4.250  -0.080  0.00  0.00    -0.285 N 
ATOM     17  C   UNL     1      -0.188  -4.950  -1.227  0.00  0.00    +0.201 C 
ATOM     18  O   UNL     1      -0.290  -4.368  -2.286  0.00  0.00    -0.278 OA
ATOM     19  H   UNL     1       0.061  -4.712   0.759  0.00  0.00    +0.155 HD
BRANCH  16  24
ATOM     20  C   UNL     1      -0.535   1.405  -0.162  0.00  0.00    +0.044 C 
ATOM     21  C   UNL     1      -0.417  -0.097  -0.140  0.00  0.00    -0.048 A 
ATOM     22  C   UNL     1       0.197  -0.756  -1.190  0.00  0.00    +0.005 A 
ATOM     23  C   UNL     1       0.307  -2.132  -1.173  0.00  0.00    +0.026 A 
ATOM     24  C   UNL     1      -0.198  -2.855  -0.100  0.00  0.00    +0.064 A 
ATOM     25  C   UNL     1      -0.813  -2.190   0.952  0.00  0.00    +0.148 A 
ATOM     26  C   UNL     1      -0.916  -0.813   0.932  0.00  0.00    +0.038 A 
BRANCH  25  27
ATOM     27  N   UNL     1      -1.353  -2.957   2.098  0.00  0.00    +0.058 N 
ATOM     28  O   UNL     1      -1.965  -2.388   2.971  0.00  0.00    -0.126 OA
ATOM     29  O   UNL     1      -1.181  -4.152   2.160  0.00  0.00    -0.126 OA
ENDBRANCH  25  27
ENDBRANCH  16  24
ENDBRANCH   1  17
TORSDOF 5
