REMARK  Name = ZINC11343680
REMARK  11 active torsions:
REMARK  status: ('A' for Active; 'I' for Inactive)
REMARK    1  A    between atoms: C_1  and  C_2
REMARK    2  A    between atoms: C_4  and  C_18
REMARK    3  A    between atoms: C_5  and  C_17
REMARK    4  A    between atoms: N_6  and  C_7
REMARK    5  A    between atoms: C_18  and  C_20
REMARK    6  A    between atoms: C_20  and  O_21
REMARK    7  A    between atoms: O_21  and  C_22
REMARK    8  A    between atoms: C_22  and  C_24
REMARK    9  A    between atoms: C_28  and  S_30
REMARK   10  A    between atoms: S_30  and  N_33
REMARK   11  A    between atoms: N_33  and  C_34
REMARK                            x       y       z     vdW  Elec       q    Type
REMARK                         _______ _______ _______ _____ _____    ______ ____
ROOT
ATOM      1  C   UNL     1      -6.770  -1.835  -1.400  0.00  0.00    +0.202 C 
ATOM      2  O   UNL     1      -6.921  -1.322  -2.489  0.00  0.00    -0.288 OA
ENDROOT
BRANCH   1   6
ATOM      3  C   UNL     1      -3.279  -1.823   2.312  0.00  0.00    +0.064 C 
ATOM      4  C   UNL     1      -4.030  -1.560   1.032  0.00  0.00    +0.022 A 
ATOM      5  C   UNL     1      -5.223  -2.086   0.707  0.00  0.00    +0.034 A 
ATOM      6  C   UNL     1      -5.564  -1.553  -0.619  0.00  0.00    +0.042 A 
ATOM      7  C   UNL     1      -4.514  -0.727  -0.977  0.00  0.00    +0.032 A 
ATOM      8  N   UNL     1      -3.607  -0.747   0.018  0.00  0.00    -0.317 N 
ATOM      9  C   UNL     1      -4.404   0.058  -2.259  0.00  0.00    +0.064 C 
BRANCH   8  10
ATOM     10  C   UNL     1      -2.400  -0.032   0.016  0.00  0.00    +0.050 A 
ATOM     11  C   UNL     1      -2.416   1.356   0.026  0.00  0.00    +0.030 A 
ATOM     12  C   UNL     1      -1.228   2.062   0.019  0.00  0.00    +0.051 A 
ATOM     13  C   UNL     1      -0.017   1.386   0.010  0.00  0.00    +0.162 A 
ATOM     14  C   UNL     1       0.002  -0.004   0.002  0.00  0.00    +0.164 A 
ATOM     15  C   UNL     1      -1.190  -0.711   0.004  0.00  0.00    +0.075 A 
ATOM     16  O   UNL     1       1.181  -0.685  -0.007  0.00  0.00    -0.485 OA
ATOM     17  C   UNL     1       2.347   0.053  -0.388  0.00  0.00    +0.270 C 
ATOM     18  C   UNL     1       2.335   1.391   0.364  0.00  0.00    +0.270 C 
ATOM     19  O   UNL     1       1.144   2.098   0.002  0.00  0.00    -0.485 OA
ENDBRANCH   8  10
ENDBRANCH   1   6
BRANCH   1  20
ATOM     20  C   UNL     1      -7.822  -2.763  -0.851  0.00  0.00    +0.311 C 
BRANCH  20  21
ATOM     21  O   UNL     1      -8.911  -2.879  -1.806  0.00  0.00    -0.453 OA
BRANCH  21  22
ATOM     22  C   UNL     1      -9.941  -3.678  -1.465  0.00  0.00    +0.340 C 
ATOM     23  O   UNL     1      -9.930  -4.262  -0.400  0.00  0.00    -0.245 OA
BRANCH  22  24
ATOM     24  C   UNL     1     -11.083  -3.844  -2.387  0.00  0.00    +0.061 A 
ATOM     25  C   UNL     1     -11.101  -3.170  -3.610  0.00  0.00    +0.015 A 
ATOM     26  C   UNL     1     -12.168  -3.333  -4.468  0.00  0.00    +0.003 A 
ATOM     27  C   UNL     1     -13.225  -4.155  -4.115  0.00  0.00    +0.028 A 
ATOM     28  C   UNL     1     -13.215  -4.822  -2.902  0.00  0.00    +0.106 A 
ATOM     29  C   UNL     1     -12.152  -4.671  -2.037  0.00  0.00    +0.043 A 
BRANCH  28  30
ATOM     30  S   UNL     1     -14.565  -5.865  -2.463  0.00  0.00    +0.058 S 
ATOM     31  O   UNL     1     -15.182  -6.266  -3.679  0.00  0.00    -0.153 OA
ATOM     32  O   UNL     1     -14.065  -6.801  -1.518  0.00  0.00    -0.153 OA
BRANCH  30  33
ATOM     33  N   UNL     1     -15.668  -4.927  -1.660  0.00  0.00    -0.193 NA
ATOM     34  C   UNL     1     -16.353  -3.838  -2.362  0.00  0.00    +0.127 C 
ATOM     35  H   UNL     1     -15.862  -5.098  -0.725  0.00  0.00    +0.148 HD
ENDBRANCH  30  33
ENDBRANCH  28  30
ENDBRANCH  22  24
ENDBRANCH  21  22
ENDBRANCH  20  21
ENDBRANCH   1  20
TORSDOF 8
