REMARK  Name = ZINC34949547
REMARK  9 active torsions:
REMARK  status: ('A' for Active; 'I' for Inactive)
REMARK    1  A    between atoms: C_1  and  C_2
REMARK    2  A    between atoms: C_2  and  C_4
REMARK    3  A    between atoms: C_2  and  N_10
REMARK    4  A    between atoms: C_11  and  C_13
REMARK    5  A    between atoms: C_13  and  C_15
REMARK    6  A    between atoms: C_13  and  N_22
REMARK    7  A    between atoms: C_15  and  C_16
REMARK    8  A    between atoms: N_22  and  S_23
REMARK    9  A    between atoms: S_23  and  C_26
REMARK                            x       y       z     vdW  Elec       q    Type
REMARK                         _______ _______ _______ _____ _____    ______ ____
ROOT
ATOM      1  C   UNL     1      -3.465  -1.164  -1.134  0.00  0.00    +0.166 C 
ENDROOT
BRANCH   1   3
ATOM      2  N   UNL     1      -1.372  -0.511   0.012  0.00  0.00    -0.307 N 
ATOM      3  C   UNL     1      -2.051  -0.643  -1.145  0.00  0.00    +0.232 C 
ATOM      4  O   UNL     1      -1.524  -0.341  -2.194  0.00  0.00    -0.274 OA
ATOM      5  H   UNL     1      -1.794  -0.752   0.852  0.00  0.00    +0.149 HD
BRANCH   2   7
ATOM      6  C   UNL     1      -0.019   1.526   0.010  0.00  0.00    +0.033 C 
ATOM      7  C   UNL     1       0.002  -0.004   0.002  0.00  0.00    +0.100 C 
BRANCH   7   8
ATOM      8  C   UNL     1       0.731  -0.503   1.223  0.00  0.00    -0.027 A 
ATOM      9  C   UNL     1       0.081  -0.558   2.442  0.00  0.00    +0.005 A 
ATOM     10  C   UNL     1       0.749  -1.016   3.562  0.00  0.00    +0.000 A 
ATOM     11  C   UNL     1       2.068  -1.420   3.463  0.00  0.00    +0.000 A 
ATOM     12  C   UNL     1       2.718  -1.365   2.244  0.00  0.00    +0.000 A 
ATOM     13  C   UNL     1       2.048  -0.911   1.123  0.00  0.00    +0.005 A 
ENDBRANCH   7   8
ENDBRANCH   2   7
ENDBRANCH   1   3
BRANCH   1  14
ATOM     14  N   UNL     1      -3.978  -1.213  -2.505  0.00  0.00    -0.178 NA
ATOM     15  H   UNL     1      -3.382  -1.435  -3.238  0.00  0.00    +0.149 HD
BRANCH  14  16
ATOM     16  S   UNL     1      -5.574  -0.890  -2.804  0.00  0.00    +0.059 S 
ATOM     17  O   UNL     1      -5.752  -0.990  -4.210  0.00  0.00    -0.153 OA
ATOM     18  O   UNL     1      -6.325  -1.669  -1.884  0.00  0.00    -0.153 OA
BRANCH  16  19
ATOM     19  C   UNL     1      -5.852   0.798  -2.380  0.00  0.00    +0.105 A 
ATOM     20  C   UNL     1      -6.231   1.134  -1.094  0.00  0.00    +0.029 A 
ATOM     21  C   UNL     1      -6.449   2.458  -0.761  0.00  0.00    +0.017 A 
ATOM     22  C   UNL     1      -6.287   3.446  -1.715  0.00  0.00    +0.018 A 
ATOM     23  C   UNL     1      -5.908   3.109  -3.002  0.00  0.00    +0.017 A 
ATOM     24  C   UNL     1      -5.685   1.786  -3.333  0.00  0.00    +0.029 A 
ATOM     25 BR   UNL     1      -6.585   5.257  -1.260  0.00  0.00    -0.050 Br
ENDBRANCH  16  19
ENDBRANCH  14  16
ENDBRANCH   1  14
BRANCH   1  26
ATOM     26  C   UNL     1      -3.485  -2.571  -0.532  0.00  0.00    +0.065 C 
BRANCH  26  27
ATOM     27  C   UNL     1      -4.910  -3.044  -0.408  0.00  0.00    -0.045 A 
ATOM     28  C   UNL     1      -5.627  -2.784   0.746  0.00  0.00    +0.004 A 
ATOM     29  C   UNL     1      -6.934  -3.218   0.860  0.00  0.00    +0.000 A 
ATOM     30  C   UNL     1      -7.526  -3.911  -0.180  0.00  0.00    +0.000 A 
ATOM     31  C   UNL     1      -6.810  -4.169  -1.334  0.00  0.00    +0.000 A 
ATOM     32  C   UNL     1      -5.503  -3.732  -1.449  0.00  0.00    +0.004 A 
ENDBRANCH  26  27
ENDBRANCH   1  26
TORSDOF 8
