REMARK  Name = ZINC08222206
REMARK  7 active torsions:
REMARK  status: ('A' for Active; 'I' for Inactive)
REMARK    1  A    between atoms: C_1  and  C_2
REMARK    2  A    between atoms: C_2  and  C_3
REMARK    3  A    between atoms: C_2  and  C_4
REMARK    4  A    between atoms: C_2  and  C_10
REMARK    5  A    between atoms: C_13  and  O_16
REMARK    6  A    between atoms: O_16  and  C_17
REMARK    7  A    between atoms: C_17  and  C_18
REMARK                            x       y       z     vdW  Elec       q    Type
REMARK                         _______ _______ _______ _____ _____    ______ ____
ROOT
ATOM      1  C   UNL     1       3.547   2.119  -0.084  0.00  0.00    -0.037 A 
ATOM      2  C   UNL     1       3.183   3.452  -0.037  0.00  0.00    +0.008 A 
ATOM      3  C   UNL     1       4.151   4.436  -0.093  0.00  0.00    +0.046 A 
ATOM      4  C   UNL     1       5.489   4.086  -0.208  0.00  0.00    +0.121 A 
ATOM      5  C   UNL     1       5.851   2.748  -0.261  0.00  0.00    +0.046 A 
ATOM      6  C   UNL     1       4.880   1.768  -0.199  0.00  0.00    +0.008 A 
ENDROOT
BRANCH   1   8
ATOM      7  C   UNL     1       3.133  -0.319  -0.260  0.00  0.00    +0.021 C 
ATOM      8  C   UNL     1       2.490   1.048  -0.016  0.00  0.00    +0.015 C 
ATOM      9  C   UNL     1       1.428   1.310  -1.086  0.00  0.00    +0.021 C 
BRANCH   8  10
ATOM     10  C   UNL     1       1.845   1.063   1.346  0.00  0.00    -0.037 A 
ATOM     11  C   UNL     1       0.758   0.250   1.606  0.00  0.00    +0.004 A 
ATOM     12  C   UNL     1       0.164   0.269   2.853  0.00  0.00    +0.000 A 
ATOM     13  C   UNL     1       0.662   1.093   3.845  0.00  0.00    +0.000 A 
ATOM     14  C   UNL     1       1.749   1.907   3.585  0.00  0.00    +0.000 A 
ATOM     15  C   UNL     1       2.341   1.892   2.336  0.00  0.00    +0.004 A 
ENDBRANCH   8  10
ENDBRANCH   1   8
BRANCH   4  16
ATOM     16  O   UNL     1       6.442   5.053  -0.269  0.00  0.00    -0.484 OA
BRANCH  16  17
ATOM     17  C   UNL     1       5.996   6.409  -0.209  0.00  0.00    +0.305 C 
BRANCH  17  18
ATOM     18  C   UNL     1       7.184   7.333  -0.290  0.00  0.00    +0.173 A 
ATOM     19  N   UNL     1       7.794   7.721   0.816  0.00  0.00    -0.196 NA
ATOM     20  C   UNL     1       8.846   8.533   0.749  0.00  0.00    +0.217 A 
ATOM     21  N   UNL     1       9.277   8.961  -0.433  0.00  0.00    -0.181 NA
ATOM     22  C   UNL     1       8.659   8.573  -1.543  0.00  0.00    +0.217 A 
ATOM     23  N   UNL     1       7.610   7.756  -1.467  0.00  0.00    -0.196 NA
ATOM     24  N   UNL     1       9.103   9.015  -2.772  0.00  0.00    -0.327 N 
ATOM     25  N   UNL     1       9.485   8.934   1.904  0.00  0.00    -0.327 N 
ATOM     26  H   UNL     1       8.651   8.731  -3.582  0.00  0.00    +0.145 HD
ATOM     27  H   UNL     1       9.867   9.610  -2.826  0.00  0.00    +0.145 HD
ATOM     28  H   UNL     1      10.250   9.529   1.854  0.00  0.00    +0.145 HD
ATOM     29  H   UNL     1       9.170   8.621   2.766  0.00  0.00    +0.145 HD
ENDBRANCH  17  18
ENDBRANCH  16  17
ENDBRANCH   4  16
TORSDOF 5
