REMARK  Name = ZINC33936826
REMARK  10 active torsions:
REMARK  status: ('A' for Active; 'I' for Inactive)
REMARK    1  A    between atoms: C_1  and  C_2
REMARK    2  A    between atoms: C_12  and  C_14
REMARK    3  A    between atoms: C_14  and  C_16
REMARK    4  A    between atoms: C_14  and  N_28
REMARK    5  A    between atoms: N_20  and  C_21
REMARK    6  A    between atoms: C_21  and  C_22
REMARK    7  A    between atoms: N_28  and  C_29
REMARK    8  A    between atoms: N_28  and  C_36
REMARK    9  A    between atoms: C_29  and  C_30
REMARK   10  A    between atoms: C_36  and  C_37
REMARK                            x       y       z     vdW  Elec       q    Type
REMARK                         _______ _______ _______ _____ _____    ______ ____
ROOT
ATOM      1  C   UNL     1      -0.420  -1.952   5.963  0.00  0.00    +0.163 C 
ENDROOT
BRANCH   1  13
ATOM      2  C   UNL     1      -1.179   4.541   5.279  0.00  0.00    +0.046 C 
ATOM      3  C   UNL     1      -1.142   3.430   4.261  0.00  0.00    -0.026 A 
ATOM      4  C   UNL     1      -1.278   3.717   2.919  0.00  0.00    +0.005 A 
ATOM      5  C   UNL     1      -1.246   2.703   1.972  0.00  0.00    +0.001 A 
ATOM      6  C   UNL     1      -1.079   1.401   2.351  0.00  0.00    +0.010 A 
ATOM      7  C   UNL     1      -0.939   1.087   3.707  0.00  0.00    -0.001 A 
ATOM      8  C   UNL     1      -0.965   2.113   4.670  0.00  0.00    +0.052 A 
ATOM      9  N   UNL     1      -0.822   1.798   6.005  0.00  0.00    -0.322 N 
ATOM     10  H   UNL     1      -0.844   2.506   6.668  0.00  0.00    +0.169 HD
ATOM     11  C   UNL     1      -0.652   0.525   6.401  0.00  0.00    +0.254 A 
ATOM     12  O   UNL     1      -0.529   0.283   7.589  0.00  0.00    -0.268 OA
ATOM     13  C   UNL     1      -0.613  -0.540   5.475  0.00  0.00    +0.042 A 
ATOM     14  C   UNL     1      -0.759  -0.297   4.149  0.00  0.00    +0.021 A 
ENDBRANCH   1  13
BRANCH   1  15
ATOM     15  C   UNL     1       0.942  -2.085   6.593  0.00  0.00    +0.173 A 
ATOM     16  N   UNL     1       1.393  -1.423   7.630  0.00  0.00    -0.111 NA
ATOM     17  N   UNL     1       2.597  -1.818   7.862  0.00  0.00    -0.023 NA
ATOM     18  N   UNL     1       2.927  -2.715   6.999  0.00  0.00    -0.044 NA
ATOM     19  N   UNL     1       1.931  -2.911   6.202  0.00  0.00    -0.225 N 
BRANCH  19  20
ATOM     20  C   UNL     1       1.886  -3.853   5.081  0.00  0.00    +0.179 C 
BRANCH  20  21
ATOM     21  C   UNL     1       2.378  -3.157   3.810  0.00  0.00    +0.140 C 
ATOM     22  C   UNL     1       2.424  -4.162   2.631  0.00  0.00    +0.035 C 
ATOM     23  C   UNL     1       2.293  -3.199   1.419  0.00  0.00    +0.031 C 
ATOM     24  C   UNL     1       1.364  -2.098   1.974  0.00  0.00    +0.160 C 
ATOM     25  O   UNL     1       1.445  -2.143   3.405  0.00  0.00    -0.375 OA
ENDBRANCH  20  21
ENDBRANCH  19  20
ENDBRANCH   1  15
BRANCH   1  26
ATOM     26  N   UNL     1      -1.453  -2.272   6.958  0.00  0.00    -0.280 NA
BRANCH  26  27
ATOM     27  C   UNL     1      -1.153  -3.538   7.640  0.00  0.00    +0.121 C 
BRANCH  27  28
ATOM     28  C   UNL     1      -0.227  -3.276   8.800  0.00  0.00    -0.033 A 
ATOM     29  C   UNL     1       1.023  -3.866   8.833  0.00  0.00    +0.005 A 
ATOM     30  C   UNL     1       1.873  -3.626   9.897  0.00  0.00    +0.000 A 
ATOM     31  C   UNL     1       1.472  -2.796  10.927  0.00  0.00    +0.000 A 
ATOM     32  C   UNL     1       0.223  -2.206  10.894  0.00  0.00    +0.000 A 
ATOM     33  C   UNL     1      -0.625  -2.442   9.828  0.00  0.00    +0.005 A 
ENDBRANCH  27  28
ENDBRANCH  26  27
BRANCH  26  34
ATOM     34  C   UNL     1      -2.785  -2.309   6.340  0.00  0.00    +0.128 C 
BRANCH  34  35
ATOM     35  C   UNL     1      -3.273  -0.902   6.113  0.00  0.00    +0.004 A 
ATOM     36  C   UNL     1      -3.682  -0.316   4.961  0.00  0.00    +0.012 A 
ATOM     37  C   UNL     1      -4.093   1.004   4.989  0.00  0.00    +0.008 A 
ATOM     38  C   UNL     1      -4.075   1.673   6.168  0.00  0.00    +0.045 A 
ATOM     39  S   UNL     1      -3.471   0.424   7.292  0.00  0.00    -0.100 S 
ENDBRANCH  34  35
ENDBRANCH  26  34
ENDBRANCH   1  26
TORSDOF 9
