REMARK  Name = ZINC08833087
REMARK  7 active torsions:
REMARK  status: ('A' for Active; 'I' for Inactive)
REMARK    1  A    between atoms: C_3  and  C_9
REMARK    2  A    between atoms: C_12  and  C_14
REMARK    3  A    between atoms: C_15  and  C_16
REMARK    4  A    between atoms: N_18  and  C_19
REMARK    5  A    between atoms: C_19  and  N_21
REMARK    6  A    between atoms: N_21  and  C_22
REMARK    7  A    between atoms: C_23  and  C_30
REMARK                            x       y       z     vdW  Elec       q    Type
REMARK                         _______ _______ _______ _____ _____    ______ ____
ROOT
ATOM      1  C   UNL     1      -1.187   1.624   0.017  0.00  0.00    +0.242 C 
ATOM      2  O   UNL     1      -1.204   2.841   0.023  0.00  0.00    -0.270 OA
ATOM      3  N   UNL     1      -0.011   0.966   0.007  0.00  0.00    -0.264 N 
ATOM      4  H   UNL     1       0.002  -0.004   0.002  0.00  0.00    +0.157 HD
ENDROOT
BRANCH   1   6
ATOM      5  C   UNL     1      -3.587   1.564   0.028  0.00  0.00    +0.051 C 
ATOM      6  C   UNL     1      -2.401   0.901   0.018  0.00  0.00    +0.071 C 
BRANCH   5  10
ATOM      7  C   UNL     1      -6.224  -0.835   0.026  0.00  0.00    +0.137 A 
ATOM      8  C   UNL     1      -6.971   0.322   0.036  0.00  0.00    +0.050 A 
ATOM      9  C   UNL     1      -6.070   1.389   0.038  0.00  0.00    +0.050 A 
ATOM     10  C   UNL     1      -4.801   0.842   0.029  0.00  0.00    +0.129 A 
ATOM     11  O   UNL     1      -4.921  -0.503   0.017  0.00  0.00    -0.455 OA
BRANCH   7  14
ATOM     12  C   UNL     1      -8.237  -3.869   0.937  0.00  0.00    +0.021 A 
ATOM     13  C   UNL     1      -7.734  -2.585   0.951  0.00  0.00    +0.014 A 
ATOM     14  C   UNL     1      -6.763  -2.209   0.020  0.00  0.00    +0.036 A 
ATOM     15  C   UNL     1      -6.300  -3.141  -0.914  0.00  0.00    +0.053 A 
ATOM     16  C   UNL     1      -6.809  -4.424  -0.914  0.00  0.00    +0.040 A 
ATOM     17  C   UNL     1      -7.775  -4.788   0.009  0.00  0.00    +0.042 A 
ATOM     18 CL   UNL     1      -8.409  -6.404   0.004  0.00  0.00    -0.083 Cl
ATOM     19 CL   UNL     1      -5.088  -2.686  -2.071  0.00  0.00    -0.083 Cl
ENDBRANCH   7  14
ENDBRANCH   5  10
ENDBRANCH   1   6
BRANCH   3  20
ATOM     20  C   UNL     1       1.147   1.655   0.000  0.00  0.00    +0.141 C 
ATOM     21  S   UNL     1       1.124   3.367   0.009  0.00  0.00    -0.018 S 
BRANCH  20  22
ATOM     22  N   UNL     1       2.323   0.998  -0.015  0.00  0.00    -0.290 N 
ATOM     23  H   UNL     1       2.336   0.028  -0.020  0.00  0.00    +0.154 HD
BRANCH  22  24
ATOM     24  C   UNL     1       3.515   1.707  -0.022  0.00  0.00    +0.089 A 
ATOM     25  C   UNL     1       4.808   1.216  -0.032  0.00  0.00    +0.084 A 
ATOM     26  C   UNL     1       5.902   2.187  -0.042  0.00  0.00    -0.018 A 
ATOM     27  C   UNL     1       5.520   3.477  -0.032  0.00  0.00    -0.004 A 
ATOM     28  S   UNL     1       3.745   3.423  -0.015  0.00  0.00    -0.077 S 
ATOM     29  C   UNL     1       6.698   4.413  -0.041  0.00  0.00    +0.043 C 
ATOM     30  C   UNL     1       7.887   3.539  -0.496  0.00  0.00    +0.010 C 
ATOM     31  C   UNL     1       7.430   2.134  -0.056  0.00  0.00    +0.037 C 
BRANCH  25  32
ATOM     32  C   UNL     1       5.067  -0.193  -0.035  0.00  0.00    +0.102 C 
ATOM     33  N   UNL     1       5.272  -1.310  -0.038  0.00  0.00    -0.191 NA
ENDBRANCH  25  32
ENDBRANCH  22  24
ENDBRANCH  20  22
ENDBRANCH   3  20
TORSDOF 7
