REMARK  Name = ZINC62727166
REMARK  5 active torsions:
REMARK  status: ('A' for Active; 'I' for Inactive)
REMARK    1  A    between atoms: C_4  and  N_17
REMARK    2  A    between atoms: C_5  and  C_7
REMARK    3  A    between atoms: C_7  and  C_8
REMARK    4  A    between atoms: C_8  and  C_9
REMARK    5  A    between atoms: C_14  and  O_16
REMARK                            x       y       z     vdW  Elec       q    Type
REMARK                         _______ _______ _______ _____ _____    ______ ____
ROOT
ATOM      1  C   UNL     1      -0.062   1.264  -0.175  0.00  0.00    +0.000 A 
ATOM      2  C   UNL     1       1.041   2.077   0.013  0.00  0.00    +0.002 A 
ATOM      3  C   UNL     1       2.292   1.516   0.182  0.00  0.00    +0.033 A 
ATOM      4  C   UNL     1       2.442   0.142   0.165  0.00  0.00    +0.129 A 
ATOM      5  C   UNL     1       1.339  -0.671  -0.022  0.00  0.00    -0.017 A 
ATOM      6  C   UNL     1       0.088  -0.109  -0.193  0.00  0.00    +0.006 A 
ENDROOT
BRANCH   4   7
ATOM      7  N   UNL     1       3.782  -0.459   0.345  0.00  0.00    +0.057 N 
ATOM      8  O   UNL     1       4.760   0.249   0.402  0.00  0.00    -0.126 OA
ATOM      9  O   UNL     1       3.899  -1.659   0.436  0.00  0.00    -0.126 OA
ENDBRANCH   4   7
BRANCH   5  10
ATOM     10  C   UNL     1       1.502  -2.169  -0.042  0.00  0.00    +0.038 C 
BRANCH  10  11
ATOM     11  C   UNL     1       1.547  -2.696   1.393  0.00  0.00    +0.011 C 
BRANCH  11  12
ATOM     12  C   UNL     1       1.713  -4.217   1.373  0.00  0.00    +0.018 C 
ATOM     13  C   UNL     1       3.115  -4.603   0.840  0.00  0.00    +0.006 C 
ATOM     14  C   UNL     1       3.332  -6.014   1.439  0.00  0.00    +0.003 C 
ATOM     15  C   UNL     1       2.715  -5.925   2.850  0.00  0.00    +0.031 C 
ATOM     16  C   UNL     1       1.681  -4.783   2.808  0.00  0.00    +0.118 C 
BRANCH  16  17
ATOM     17  O   UNL     1       0.378  -5.287   3.107  0.00  0.00    -0.392 OA
ATOM     18  H   UNL     1       0.294  -5.657   3.997  0.00  0.00    +0.210 HD
ENDBRANCH  16  17
ENDBRANCH  11  12
ENDBRANCH  10  11
ENDBRANCH   5  10
TORSDOF 5
