REMARK  Name = ZINC38548290
REMARK  4 active torsions:
REMARK  status: ('A' for Active; 'I' for Inactive)
REMARK    1  A    between atoms: C_1  and  C_2
REMARK    2  A    between atoms: C_2  and  C_3
REMARK    3  A    between atoms: N_20  and  C_21
REMARK    4  A    between atoms: C_21  and  C_22
REMARK                            x       y       z     vdW  Elec       q    Type
REMARK                         _______ _______ _______ _____ _____    ______ ____
ROOT
ATOM      1  C   UNL     1       0.728  -0.508   1.217  0.00  0.00    -0.021 A 
ATOM      2  C   UNL     1       2.064  -0.806   1.135  0.00  0.00    +0.006 A 
ATOM      3  C   UNL     1       2.774  -1.263   2.235  0.00  0.00    +0.001 A 
ATOM      4  C   UNL     1       2.120  -1.421   3.444  0.00  0.00    +0.017 A 
ATOM      5  C   UNL     1       0.784  -1.125   3.536  0.00  0.00    +0.041 A 
ATOM      6  C   UNL     1       0.030  -0.652   2.438  0.00  0.00    +0.083 A 
ATOM      7  N   UNL     1      -1.273  -0.399   2.688  0.00  0.00    -0.224 NA
ATOM      8  C   UNL     1      -1.811  -0.574   3.874  0.00  0.00    +0.162 A 
ATOM      9  S   UNL     1      -0.428  -1.173   4.834  0.00  0.00    -0.052 S 
ATOM     10  N   UNL     1      -3.114  -0.359   4.274  0.00  0.00    -0.307 N 
ATOM     11  C   UNL     1      -4.119   0.127   3.318  0.00  0.00    +0.126 C 
ATOM     12  C   UNL     1      -5.302  -0.850   3.312  0.00  0.00    +0.128 C 
ATOM     13  N   UNL     1      -5.709  -1.103   4.701  0.00  0.00    -0.283 N 
ATOM     14  C   UNL     1      -4.704  -1.589   5.657  0.00  0.00    +0.128 C 
ATOM     15  C   UNL     1      -3.523  -0.618   5.662  0.00  0.00    +0.126 C 
ATOM     16  C   UNL     1      -6.982  -0.893   5.092  0.00  0.00    +0.303 C 
ATOM     17  O   UNL     1      -7.782  -0.401   4.319  0.00  0.00    -0.253 OA
ATOM     18  N   UNL     1      -7.368  -1.228   6.339  0.00  0.00    -0.295 N 
ATOM     19  H   UNL     1      -6.714  -1.552   6.978  0.00  0.00    +0.151 HD
ENDROOT
BRANCH   1  21
ATOM     20  C   UNL     1      -0.025   1.516  -0.002  0.00  0.00    +0.009 C 
ATOM     21  C   UNL     1      -0.002  -0.014  -0.005  0.00  0.00    +0.034 C 
ENDBRANCH   1  21
BRANCH  18  22
ATOM     22  C   UNL     1      -8.774  -1.102   6.729  0.00  0.00    +0.141 C 
BRANCH  22  23
ATOM     23  C   UNL     1      -8.939  -1.537   8.162  0.00  0.00    -0.030 A 
ATOM     24  C   UNL     1      -9.210  -2.860   8.456  0.00  0.00    +0.006 A 
ATOM     25  C   UNL     1      -9.362  -3.259   9.770  0.00  0.00    +0.020 A 
ATOM     26  C   UNL     1      -9.241  -2.335  10.792  0.00  0.00    +0.041 A 
ATOM     27  C   UNL     1      -8.970  -1.010  10.498  0.00  0.00    +0.020 A 
ATOM     28  C   UNL     1      -8.813  -0.613   9.183  0.00  0.00    +0.006 A 
ATOM     29 CL   UNL     1      -9.431  -2.836  12.444  0.00  0.00    -0.084 Cl
ENDBRANCH  22  23
ENDBRANCH  18  22
TORSDOF 3
