REMARK  Name = ZINC39710920
REMARK  9 active torsions:
REMARK  status: ('A' for Active; 'I' for Inactive)
REMARK    1  A    between atoms: C_1  and  C_2
REMARK    2  A    between atoms: C_8  and  C_14
REMARK    3  A    between atoms: C_14  and  C_16
REMARK    4  A    between atoms: C_14  and  N_27
REMARK    5  A    between atoms: N_21  and  C_22
REMARK    6  A    between atoms: N_27  and  C_28
REMARK    7  A    between atoms: N_27  and  C_34
REMARK    8  A    between atoms: C_28  and  C_29
REMARK    9  A    between atoms: C_34  and  C_35
REMARK                            x       y       z     vdW  Elec       q    Type
REMARK                         _______ _______ _______ _____ _____    ______ ____
ROOT
ATOM      1  C   UNL     1      -1.367  -3.109   4.938  0.00  0.00    -0.009 C 
ENDROOT
BRANCH   1   9
ATOM      2  C   UNL     1       1.422  -1.332  -0.233  0.00  0.00    +0.045 C 
ATOM      3  C   UNL     1       1.313  -2.682   0.428  0.00  0.00    -0.029 A 
ATOM      4  C   UNL     1       1.617  -3.804  -0.275  0.00  0.00    +0.005 A 
ATOM      5  C   UNL     1       1.538  -5.082   0.277  0.00  0.00    +0.001 A 
ATOM      6  C   UNL     1       1.149  -5.274   1.564  0.00  0.00    +0.009 A 
ATOM      7  C   UNL     1       0.807  -4.108   2.379  0.00  0.00    -0.007 A 
ATOM      8  C   UNL     1       0.411  -4.253   3.675  0.00  0.00    -0.006 C 
ATOM      9  C   UNL     1       0.077  -2.990   4.445  0.00  0.00    +0.088 C 
ATOM     10  C   UNL     1       0.209  -1.674   3.713  0.00  0.00    +0.223 C 
ATOM     11  O   UNL     1      -0.046  -0.630   4.282  0.00  0.00    -0.275 OA
ATOM     12  N   UNL     1       0.604  -1.663   2.451  0.00  0.00    -0.284 N 
ATOM     13  C   UNL     1       0.904  -2.770   1.772  0.00  0.00    +0.043 A 
ATOM     14  H   UNL     1       0.683  -0.808   1.999  0.00  0.00    +0.155 HD
ENDBRANCH   1   9
BRANCH   1  15
ATOM     15  C   UNL     1      -1.500  -4.343   5.833  0.00  0.00    +0.205 C 
ATOM     16  N   UNL     1      -0.272  -4.544   6.615  0.00  0.00    -0.152 NA
ATOM     17  N   UNL     1       0.214  -5.637   6.319  0.00  0.00    -0.070 NA
ATOM     18  N   UNL     1      -0.532  -6.321   5.360  0.00  0.00    -0.179 N 
ATOM     19  N   UNL     1      -1.624  -5.565   5.013  0.00  0.00    -0.185 NA
ATOM     20  H   UNL     1      -0.315  -7.194   4.997  0.00  0.00    +0.191 HD
BRANCH  19  21
ATOM     21  C   UNL     1      -2.876  -6.275   5.311  0.00  0.00    +0.080 C 
ATOM     22  C   UNL     1      -2.829  -6.849   6.742  0.00  0.00    +0.021 C 
ATOM     23  C   UNL     1      -3.557  -8.211   6.629  0.00  0.00    +0.002 C 
ATOM     24  C   UNL     1      -3.089  -8.735   5.248  0.00  0.00    +0.002 C 
ATOM     25  C   UNL     1      -3.041  -7.474   4.361  0.00  0.00    +0.021 C 
ENDBRANCH  19  21
ENDBRANCH   1  15
BRANCH   1  26
ATOM     26  N   UNL     1      -1.724  -1.907   5.703  0.00  0.00    +0.391 N 
ATOM     27  H   UNL     1      -1.592  -1.090   5.126  0.00  0.00    -0.080 HD
BRANCH  26  28
ATOM     28  C   UNL     1      -0.866  -1.811   6.892  0.00  0.00    -0.002 C 
BRANCH  28  29
ATOM     29  C   UNL     1       0.422  -1.119   6.527  0.00  0.00    +0.089 A 
ATOM     30  C   UNL     1       0.682   0.192   6.683  0.00  0.00    +0.042 A 
ATOM     31  C   UNL     1       1.999   0.406   6.214  0.00  0.00    +0.041 A 
ATOM     32  C   UNL     1       2.464  -0.786   5.799  0.00  0.00    +0.195 A 
ATOM     33  O   UNL     1       1.507  -1.707   5.997  0.00  0.00    -0.470 OA
ENDBRANCH  28  29
ENDBRANCH  26  28
BRANCH  26  34
ATOM     34  C   UNL     1      -3.130  -1.992   6.119  0.00  0.00    -0.046 C 
BRANCH  34  35
ATOM     35  C   UNL     1      -4.033  -1.888   4.889  0.00  0.00    +0.102 C 
ATOM     36  C   UNL     1      -5.511  -1.813   5.329  0.00  0.00    +0.032 C 
ATOM     37  C   UNL     1      -6.219  -2.688   4.258  0.00  0.00    +0.030 C 
ATOM     38  C   UNL     1      -5.133  -3.760   3.990  0.00  0.00    +0.160 C 
ATOM     39  O   UNL     1      -3.881  -3.056   4.074  0.00  0.00    -0.378 OA
ENDBRANCH  34  35
ENDBRANCH  26  34
ENDBRANCH   1  26
TORSDOF 8
