REMARK  Name = ZINC36945589
REMARK  8 active torsions:
REMARK  status: ('A' for Active; 'I' for Inactive)
REMARK    1  A    between atoms: C_1  and  C_2
REMARK    2  A    between atoms: C_2  and  C_4
REMARK    3  A    between atoms: C_2  and  N_11
REMARK    4  A    between atoms: N_11  and  C_12
REMARK    5  A    between atoms: C_12  and  C_14
REMARK    6  A    between atoms: C_12  and  C_15
REMARK    7  A    between atoms: C_18  and  O_22
REMARK    8  A    between atoms: C_20  and  O_21
REMARK                            x       y       z     vdW  Elec       q    Type
REMARK                         _______ _______ _______ _____ _____    ______ ____
ROOT
ATOM      1  N   UNL     1       0.753  -0.369  -1.224  0.00  0.00    +0.388 N 
ATOM      2  H   UNL     1       1.694  -0.007  -1.244  0.00  0.00    -0.084 HD
ATOM      3  H   UNL     1       0.779  -1.377  -1.246  0.00  0.00    -0.084 HD
ENDROOT
BRANCH   1   5
ATOM      4  C   UNL     1       0.929  -0.312   1.218  0.00  0.00    -0.009 C 
ATOM      5  C   UNL     1       0.082   0.077   0.004  0.00  0.00    -0.042 C 
BRANCH   5   6
ATOM      6  C   UNL     1      -1.271  -0.579   0.104  0.00  0.00    -0.048 A 
ATOM      7  C   UNL     1      -1.503  -1.786  -0.529  0.00  0.00    +0.003 A 
ATOM      8  C   UNL     1      -2.743  -2.388  -0.436  0.00  0.00    +0.000 A 
ATOM      9  C   UNL     1      -3.753  -1.784   0.289  0.00  0.00    +0.001 A 
ATOM     10  C   UNL     1      -3.523  -0.577   0.922  0.00  0.00    +0.015 A 
ATOM     11  C   UNL     1      -2.279   0.023   0.835  0.00  0.00    +0.019 A 
ATOM     12 BR   UNL     1      -1.961   1.670   1.707  0.00  0.00    -0.050 Br
ENDBRANCH   5   6
ENDBRANCH   1   5
BRANCH   1  13
ATOM     13  C   UNL     1       0.014   0.127  -2.393  0.00  0.00    -0.040 C 
ATOM     14  C   UNL     1       0.100   1.654  -2.441  0.00  0.00    -0.009 C 
BRANCH  13  15
ATOM     15  C   UNL     1       0.615  -0.450  -3.649  0.00  0.00    -0.020 A 
ATOM     16  C   UNL     1       1.901  -0.954  -3.630  0.00  0.00    +0.009 A 
ATOM     17  C   UNL     1       2.455  -1.484  -4.780  0.00  0.00    +0.046 A 
ATOM     18  C   UNL     1       1.720  -1.510  -5.957  0.00  0.00    +0.120 A 
ATOM     19  C   UNL     1       0.430  -1.004  -5.979  0.00  0.00    +0.091 A 
ATOM     20  C   UNL     1      -0.126  -0.479  -4.822  0.00  0.00    +0.122 A 
BRANCH  20  21
ATOM     21  O   UNL     1      -1.393   0.012  -4.838  0.00  0.00    -0.506 OA
ATOM     22  H   UNL     1      -1.448   0.952  -5.060  0.00  0.00    +0.292 HD
ENDBRANCH  20  21
BRANCH  18  23
ATOM     23  O   UNL     1       2.265  -2.030  -7.088  0.00  0.00    -0.507 OA
ATOM     24  H   UNL     1       2.108  -2.978  -7.200  0.00  0.00    +0.292 HD
ENDBRANCH  18  23
ENDBRANCH  13  15
ENDBRANCH   1  13
TORSDOF 6
