REMARK  Name = ZINC67139345
REMARK  10 active torsions:
REMARK  status: ('A' for Active; 'I' for Inactive)
REMARK    1  A    between atoms: C_1  and  C_2
REMARK    2  A    between atoms: N_5  and  C_8
REMARK    3  A    between atoms: C_8  and  C_9
REMARK    4  A    between atoms: C_9  and  C_10
REMARK    5  A    between atoms: C_10  and  N_11
REMARK    6  A    between atoms: C_12  and  C_14
REMARK    7  A    between atoms: C_14  and  C_15
REMARK    8  A    between atoms: C_15  and  C_16
REMARK    9  A    between atoms: C_16  and  C_17
REMARK   10  A    between atoms: C_17  and  C_18
REMARK                            x       y       z     vdW  Elec       q    Type
REMARK                         _______ _______ _______ _____ _____    ______ ____
ROOT
ATOM      1  N   UNL     1       3.577  -6.276   2.265  0.00  0.00    -0.315 N 
ATOM      2  C   UNL     1       3.852  -7.581   2.458  0.00  0.00    +0.213 C 
ATOM      3  O   UNL     1       3.403  -8.414   1.700  0.00  0.00    -0.276 OA
ATOM      4  H   UNL     1       3.936  -5.609   2.871  0.00  0.00    +0.149 HD
ENDROOT
BRANCH   1   5
ATOM      5  C   UNL     1       2.736  -5.863   1.138  0.00  0.00    +0.102 C 
BRANCH   5   6
ATOM      6  C   UNL     1       2.582  -4.341   1.147  0.00  0.00    +0.000 C 
BRANCH   6   7
ATOM      7  C   UNL     1       1.704  -3.911  -0.029  0.00  0.00    -0.077 C 
BRANCH   7  12
ATOM      8  C   UNL     1      -0.019   1.526   0.010  0.00  0.00    +0.007 C 
ATOM      9  C   UNL     1       0.002  -0.004   0.002  0.00  0.00    -0.018 C 
ATOM     10  C   UNL     1       0.727  -0.499  -1.252  0.00  0.00    -0.016 C 
ATOM     11  C   UNL     1       0.814  -2.027  -1.215  0.00  0.00    -0.079 C 
ATOM     12  N   UNL     1       1.556  -2.449  -0.021  0.00  0.00    +0.380 N 
ATOM     13  C   UNL     1       0.829  -2.040   1.187  0.00  0.00    -0.079 C 
ATOM     14  C   UNL     1       0.743  -0.513   1.242  0.00  0.00    -0.016 C 
ATOM     15  H   UNL     1       2.469  -2.020  -0.024  0.00  0.00    -0.082 HD
ENDBRANCH   7  12
ENDBRANCH   6   7
ENDBRANCH   5   6
ENDBRANCH   1   5
BRANCH   2  16
ATOM     16  C   UNL     1       4.716  -8.005   3.617  0.00  0.00    +0.096 C 
BRANCH  16  17
ATOM     17  C   UNL     1       4.871  -9.527   3.608  0.00  0.00    +0.009 C 
BRANCH  17  18
ATOM     18  C   UNL     1       5.749  -9.958   4.785  0.00  0.00    +0.002 C 
BRANCH  18  19
ATOM     19  C   UNL     1       5.903 -11.480   4.775  0.00  0.00    +0.016 C 
BRANCH  19  20
ATOM     20  C   UNL     1       6.781 -11.911   5.952  0.00  0.00    +0.069 C 
ATOM     21  C   UNL     1       6.996 -13.440   5.953  0.00  0.00    +0.108 C 
ATOM     22  C   UNL     1       6.948 -14.067   7.349  0.00  0.00    +0.105 C 
ATOM     23  C   UNL     1       6.684 -13.048   8.478  0.00  0.00    +0.093 C 
ATOM     24  S   UNL     1       5.905 -11.665   7.558  0.00  0.00    -0.154 S 
ATOM     25  N   UNL     1       5.814 -15.002   7.281  0.00  0.00    -0.294 N 
ATOM     26  C   UNL     1       5.274 -14.946   6.056  0.00  0.00    +0.300 C 
ATOM     27  O   UNL     1       4.318 -15.618   5.721  0.00  0.00    -0.253 OA
ATOM     28  N   UNL     1       5.879 -14.083   5.242  0.00  0.00    -0.294 N 
ATOM     29  H   UNL     1       5.507 -15.569   8.007  0.00  0.00    +0.151 HD
ATOM     30  H   UNL     1       5.622 -13.910   4.323  0.00  0.00    +0.151 HD
ENDBRANCH  19  20
ENDBRANCH  18  19
ENDBRANCH  17  18
ENDBRANCH  16  17
ENDBRANCH   2  16
TORSDOF 9
