REMARK  Name = ZINC27992652
REMARK  6 active torsions:
REMARK  status: ('A' for Active; 'I' for Inactive)
REMARK    1  A    between atoms: C_1  and  C_2
REMARK    2  A    between atoms: C_10  and  C_11
REMARK    3  A    between atoms: N_13  and  C_14
REMARK    4  A    between atoms: C_14  and  C_15
REMARK    5  A    between atoms: C_15  and  C_17
REMARK    6  A    between atoms: C_15  and  N_22
REMARK                            x       y       z     vdW  Elec       q    Type
REMARK                         _______ _______ _______ _____ _____    ______ ____
ROOT
ATOM      1  C   UNL     1      -0.280  -0.206  -3.347  0.00  0.00    +0.280 C 
ATOM      2  O   UNL     1      -1.302   0.314  -3.754  0.00  0.00    -0.267 OA
ATOM      3  N   UNL     1       0.177   0.084  -2.112  0.00  0.00    -0.310 N 
ATOM      4  H   UNL     1       1.101  -0.386  -1.744  0.00  0.00    +0.149 HD
ENDROOT
BRANCH   1  14
ATOM      5  C   UNL     1      -1.125  -1.051  -6.218  0.00  0.00    +0.048 C 
ATOM      6  C   UNL     1       0.087  -1.520  -5.454  0.00  0.00    +0.008 A 
ATOM      7  C   UNL     1       1.107  -2.462  -5.914  0.00  0.00    +0.025 A 
ATOM      8  C   UNL     1       1.302  -3.186  -7.093  0.00  0.00    +0.027 A 
ATOM      9  C   UNL     1       2.386  -4.011  -7.209  0.00  0.00    +0.019 A 
ATOM     10  C   UNL     1       3.292  -4.133  -6.163  0.00  0.00    +0.019 A 
ATOM     11  C   UNL     1       3.117  -3.427  -4.993  0.00  0.00    +0.048 A 
ATOM     12  C   UNL     1       2.022  -2.583  -4.852  0.00  0.00    +0.136 A 
ATOM     13  O   UNL     1       1.595  -1.785  -3.854  0.00  0.00    -0.450 OA
ATOM     14  C   UNL     1       0.455  -1.150  -4.200  0.00  0.00    +0.193 A 
ATOM     15 BR   UNL     1       2.653  -4.992  -8.803  0.00  0.00    -0.050 Br
ENDBRANCH   1  14
BRANCH   3  16
ATOM     16  C   UNL     1      -0.555   1.025  -1.262  0.00  0.00    +0.094 C 
BRANCH  16  17
ATOM     17  C   UNL     1       0.257   1.308   0.003  0.00  0.00    -0.013 C 
BRANCH  17  18
ATOM     18  N   UNL     1       1.534   1.933  -0.365  0.00  0.00    +0.386 N 
ATOM     19  C   UNL     1       2.256   2.419   0.839  0.00  0.00    -0.078 C 
ATOM     20  C   UNL     1       3.721   2.539   0.350  0.00  0.00    -0.020 C 
ATOM     21  C   UNL     1       3.873   1.321  -0.590  0.00  0.00    -0.020 C 
ATOM     22  C   UNL     1       2.437   0.955  -1.009  0.00  0.00    -0.078 C 
ATOM     23  H   UNL     1       1.279   2.757  -1.048  0.00  0.00    -0.081 HD
ENDBRANCH  17  18
BRANCH  17  24
ATOM     24  C   UNL     1      -0.518   2.239   0.900  0.00  0.00    -0.022 A 
ATOM     25  C   UNL     1      -1.173   1.963   2.054  0.00  0.00    +0.009 A 
ATOM     26  C   UNL     1      -1.823   2.987   2.717  0.00  0.00    +0.008 A 
ATOM     27  C   UNL     1      -1.786   4.237   2.194  0.00  0.00    +0.045 A 
ATOM     28  S   UNL     1      -0.804   3.992   0.723  0.00  0.00    -0.103 S 
ENDBRANCH  17  24
ENDBRANCH  16  17
ENDBRANCH   3  16
TORSDOF 5
