REMARK  Name = ZINC13500526
REMARK  15 active torsions:
REMARK  status: ('A' for Active; 'I' for Inactive)
REMARK    1  A    between atoms: C_1  and  C_2
REMARK    2  A    between atoms: C_4  and  C_36
REMARK    3  A    between atoms: C_9  and  C_14
REMARK    4  A    between atoms: C_14  and  N_69
REMARK    5  A    between atoms: C_15  and  C_16
REMARK    6  A    between atoms: C_15  and  N_69
REMARK    7  A    between atoms: C_16  and  O_17
REMARK    8  A    between atoms: C_18  and  C_20
REMARK    9  A    between atoms: C_18  and  C_33
REMARK   10  A    between atoms: C_18  and  N_69
REMARK   11  A    between atoms: N_24  and  C_25
REMARK   12  A    between atoms: C_25  and  C_26
REMARK   13  A    between atoms: C_26  and  C_27
REMARK   14  A    between atoms: C_33  and  C_34
REMARK   15  A    between atoms: C_33  and  C_35
REMARK                            x       y       z     vdW  Elec       q    Type
REMARK                         _______ _______ _______ _____ _____    ______ ____
ROOT
ATOM      1  N   UNL     1      -0.932  -1.647   2.541  0.00  0.00    +0.391 N 
ATOM      2  H   UNL     1      -0.551  -0.727   2.792  0.00  0.00    -0.080 HD
ENDROOT
BRANCH   1   3
ATOM      3  C   UNL     1      -0.400  -2.043   1.220  0.00  0.00    -0.036 C 
BRANCH   3  12
ATOM      4  C   UNL     1       4.285   3.298  -1.048  0.00  0.00    +0.044 C 
ATOM      5  C   UNL     1       2.917   2.665  -1.043  0.00  0.00    -0.050 A 
ATOM      6  C   UNL     1       1.891   3.238  -1.782  0.00  0.00    +0.008 A 
ATOM      7  C   UNL     1       0.633   2.675  -1.791  0.00  0.00    -0.026 A 
ATOM      8  C   UNL     1       0.386   1.522  -1.053  0.00  0.00    +0.052 A 
ATOM      9  C   UNL     1       1.429   0.945  -0.305  0.00  0.00    -0.001 A 
ATOM     10  C   UNL     1       2.699   1.533  -0.310  0.00  0.00    +0.013 A 
ATOM     11  C   UNL     1       1.160  -0.269   0.468  0.00  0.00    +0.017 A 
ATOM     12  C   UNL     1      -0.089  -0.794   0.435  0.00  0.00    +0.001 A 
ATOM     13  C   UNL     1      -1.100  -0.176  -0.331  0.00  0.00    +0.251 A 
ATOM     14  O   UNL     1      -2.215  -0.667  -0.351  0.00  0.00    -0.268 OA
ATOM     15  N   UNL     1      -0.863   0.939  -1.044  0.00  0.00    -0.322 N 
ATOM     16  H   UNL     1      -1.580   1.338  -1.561  0.00  0.00    +0.169 HD
ATOM     17  C   UNL     1      -0.472   3.307  -2.599  0.00  0.00    +0.046 C 
ENDBRANCH   3  12
ENDBRANCH   1   3
BRANCH   1  18
ATOM     18  C   UNL     1      -0.525  -2.632   3.565  0.00  0.00    -0.049 C 
BRANCH  18  19
ATOM     19  C   UNL     1       0.950  -2.408   3.902  0.00  0.00    +0.137 C 
BRANCH  19  20
ATOM     20  O   UNL     1       1.121  -1.097   4.445  0.00  0.00    -0.397 OA
ATOM     21  H   UNL     1       2.034  -0.885   4.682  0.00  0.00    +0.209 HD
ENDBRANCH  19  20
ENDBRANCH  18  19
ENDBRANCH   1  18
BRANCH   1  22
ATOM     22  C   UNL     1      -2.407  -1.556   2.485  0.00  0.00    +0.006 C 
BRANCH  22  23
ATOM     23  C   UNL     1      -3.018  -2.932   2.417  0.00  0.00    +0.138 A 
ATOM     24  N   UNL     1      -2.770  -3.939   3.218  0.00  0.00    -0.115 NA
ATOM     25  N   UNL     1      -3.488  -4.938   2.836  0.00  0.00    -0.023 NA
ATOM     26  N   UNL     1      -4.182  -4.597   1.807  0.00  0.00    -0.044 NA
ATOM     27  N   UNL     1      -3.920  -3.367   1.518  0.00  0.00    -0.231 N 
BRANCH  27  28
ATOM     28  C   UNL     1      -4.496  -2.591   0.417  0.00  0.00    +0.152 C 
BRANCH  28  29
ATOM     29  C   UNL     1      -3.785  -2.951  -0.889  0.00  0.00    +0.058 C 
BRANCH  29  30
ATOM     30  C   UNL     1      -4.478  -2.273  -2.042  0.00  0.00    -0.046 A 
ATOM     31  C   UNL     1      -5.597  -2.850  -2.612  0.00  0.00    +0.004 A 
ATOM     32  C   UNL     1      -6.236  -2.225  -3.667  0.00  0.00    +0.000 A 
ATOM     33  C   UNL     1      -5.750  -1.029  -4.158  0.00  0.00    +0.000 A 
ATOM     34  C   UNL     1      -4.627  -0.454  -3.592  0.00  0.00    +0.000 A 
ATOM     35  C   UNL     1      -3.992  -1.076  -2.534  0.00  0.00    +0.004 A 
ENDBRANCH  29  30
ENDBRANCH  28  29
ENDBRANCH  27  28
ENDBRANCH  22  23
BRANCH  22  36
ATOM     36  C   UNL     1      -2.904  -0.839   3.741  0.00  0.00    -0.024 C 
ATOM     37  C   UNL     1      -2.341   0.583   3.773  0.00  0.00    +0.006 C 
ATOM     38  C   UNL     1      -4.433  -0.782   3.725  0.00  0.00    +0.006 C 
ENDBRANCH  22  36
ENDBRANCH   1  22
TORSDOF 11
