REMARK  Name = ZINC27991478
REMARK  12 active torsions:
REMARK  status: ('A' for Active; 'I' for Inactive)
REMARK    1  A    between atoms: C_1  and  N_2
REMARK    2  A    between atoms: N_2  and  C_3
REMARK    3  A    between atoms: N_2  and  C_4
REMARK    4  A    between atoms: C_7  and  C_10
REMARK    5  A    between atoms: C_10  and  C_12
REMARK    6  A    between atoms: C_10  and  N_28
REMARK    7  A    between atoms: C_12  and  N_13
REMARK    8  A    between atoms: N_13  and  C_14
REMARK    9  A    between atoms: C_15  and  C_26
REMARK   10  A    between atoms: C_17  and  C_19
REMARK   11  A    between atoms: N_28  and  C_29
REMARK   12  A    between atoms: N_28  and  C_30
REMARK                            x       y       z     vdW  Elec       q    Type
REMARK                         _______ _______ _______ _____ _____    ______ ____
ROOT
ATOM      1  N   UNL     1       1.643  -1.933   0.323  0.00  0.00    -0.314 N 
ATOM      2  H   UNL     1       2.711  -2.117   0.512  0.00  0.00    +0.149 HD
ENDROOT
BRANCH   1   3
ATOM      3  C   UNL     1       1.130  -0.661   0.451  0.00  0.00    +0.225 A 
ATOM      4  C   UNL     1       1.830   0.482   0.807  0.00  0.00    +0.201 A 
ATOM      5  N   UNL     1       0.937   1.507   0.810  0.00  0.00    -0.196 NA
ATOM      6  C   UNL     1      -0.238   1.038   0.479  0.00  0.00    +0.231 A 
ATOM      7  O   UNL     1      -0.148  -0.286   0.254  0.00  0.00    -0.421 OA
BRANCH   6   8
ATOM      8  C   UNL     1      -1.474   1.840   0.363  0.00  0.00    +0.037 A 
ATOM      9  C   UNL     1      -2.673   1.230  -0.011  0.00  0.00    +0.014 A 
ATOM     10  C   UNL     1      -3.824   1.982  -0.111  0.00  0.00    +0.021 A 
ATOM     11  C   UNL     1      -3.790   3.343   0.147  0.00  0.00    +0.041 A 
ATOM     12  C   UNL     1      -2.603   3.955   0.513  0.00  0.00    +0.021 A 
ATOM     13  C   UNL     1      -1.446   3.212   0.622  0.00  0.00    +0.014 A 
ATOM     14 CL   UNL     1      -5.242   4.285   0.011  0.00  0.00    -0.084 Cl
ENDBRANCH   6   8
BRANCH   4  15
ATOM     15  C   UNL     1       3.226   0.566   1.113  0.00  0.00    +0.124 C 
ATOM     16  N   UNL     1       4.333   0.633   1.357  0.00  0.00    -0.189 NA
ENDBRANCH   4  15
ENDBRANCH   1   3
BRANCH   1  17
ATOM     17  C   UNL     1       0.766  -3.041  -0.064  0.00  0.00    +0.094 C 
BRANCH  17  18
ATOM     18  C   UNL     1       1.608  -4.292  -0.322  0.00  0.00    -0.021 C 
BRANCH  18  22
ATOM     19  C   UNL     1      -0.967  -7.588  -1.203  0.00  0.00    +0.029 A 
ATOM     20  C   UNL     1      -0.565  -7.348   0.105  0.00  0.00    +0.023 A 
ATOM     21  C   UNL     1       0.267  -6.283   0.386  0.00  0.00    +0.004 A 
ATOM     22  C   UNL     1       0.700  -5.454  -0.633  0.00  0.00    -0.059 A 
ATOM     23  C   UNL     1       0.297  -5.686  -1.935  0.00  0.00    +0.004 A 
ATOM     24  C   UNL     1      -0.530  -6.753  -2.224  0.00  0.00    +0.023 A 
BRANCH  19  26
ATOM     25  C   UNL     1      -2.269  -9.543  -0.412  0.00  0.00    +0.129 C 
ATOM     26  N   UNL     1      -1.809  -8.664  -1.490  0.00  0.00    -0.336 N 
ATOM     27  C   UNL     1      -2.232  -8.915  -2.870  0.00  0.00    +0.129 C 
ENDBRANCH  19  26
ENDBRANCH  18  22
BRANCH  18  28
ATOM     28  N   UNL     1       2.504  -4.052  -1.462  0.00  0.00    +0.382 N 
ATOM     29  C   UNL     1       1.921  -3.076  -2.393  0.00  0.00    -0.096 C 
ATOM     30  C   UNL     1       3.831  -3.618  -1.006  0.00  0.00    -0.096 C 
ATOM     31  H   UNL     1       2.626  -5.003  -2.002  0.00  0.00    -0.082 HD
ENDBRANCH  18  28
ENDBRANCH  17  18
ENDBRANCH   1  17
TORSDOF 8
