REMARK  Name = ZINC38678752
REMARK  9 active torsions:
REMARK  status: ('A' for Active; 'I' for Inactive)
REMARK    1  A    between atoms: C_1  and  C_2
REMARK    2  A    between atoms: C_2  and  C_4
REMARK    3  A    between atoms: C_2  and  O_28
REMARK    4  A    between atoms: C_4  and  O_6
REMARK    5  A    between atoms: O_6  and  C_7
REMARK    6  A    between atoms: C_14  and  N_27
REMARK    7  A    between atoms: C_15  and  C_25
REMARK    8  A    between atoms: C_16  and  C_18
REMARK    9  A    between atoms: O_28  and  C_29
REMARK                            x       y       z     vdW  Elec       q    Type
REMARK                         _______ _______ _______ _____ _____    ______ ____
ROOT
ATOM      1  C   UNL     1      -3.569  -1.321  -0.306  0.00  0.00    +0.135 A 
ATOM      2  C   UNL     1      -3.678  -1.658   1.036  0.00  0.00    +0.047 A 
ATOM      3  C   UNL     1      -4.801  -2.320   1.492  0.00  0.00    +0.012 A 
ATOM      4  C   UNL     1      -5.819  -2.651   0.617  0.00  0.00    +0.008 A 
ATOM      5  C   UNL     1      -5.716  -2.317  -0.725  0.00  0.00    +0.138 A 
ATOM      6  C   UNL     1      -4.590  -1.645  -1.184  0.00  0.00    +0.093 A 
ATOM      7  O   UNL     1      -6.704  -2.633  -1.598  0.00  0.00    -0.441 OA
ATOM      8  C   UNL     1      -7.936  -2.915  -1.143  0.00  0.00    +0.199 C 
ATOM      9  C   UNL     1      -8.160  -3.273   0.143  0.00  0.00    +0.098 C 
ATOM     10  C   UNL     1      -7.034  -3.374   1.133  0.00  0.00    +0.099 C 
ENDROOT
BRANCH  10  11
ATOM     11  C   UNL     1      -6.694  -4.826   1.357  0.00  0.00    -0.021 A 
ATOM     12  C   UNL     1      -6.259  -5.604   0.300  0.00  0.00    +0.005 A 
ATOM     13  C   UNL     1      -5.946  -6.934   0.505  0.00  0.00    +0.000 A 
ATOM     14  C   UNL     1      -6.069  -7.488   1.766  0.00  0.00    +0.001 A 
ATOM     15  C   UNL     1      -6.505  -6.711   2.822  0.00  0.00    +0.015 A 
ATOM     16  C   UNL     1      -6.812  -5.378   2.619  0.00  0.00    +0.022 A 
ATOM     17 BR   UNL     1      -7.402  -4.312   4.066  0.00  0.00    -0.050 Br
ENDBRANCH  10  11
BRANCH   8  18
ATOM     18  N   UNL     1      -8.999  -2.838  -2.008  0.00  0.00    -0.328 N 
ATOM     19  H   UNL     1      -8.854  -2.583  -2.933  0.00  0.00    +0.145 HD
ATOM     20  H   UNL     1      -9.894  -3.039  -1.695  0.00  0.00    +0.145 HD
ENDBRANCH   8  18
BRANCH   9  21
ATOM     21  C   UNL     1      -9.497  -3.561   0.568  0.00  0.00    +0.101 C 
ATOM     22  N   UNL     1     -10.557  -3.790   0.905  0.00  0.00    -0.191 NA
ENDBRANCH   9  21
BRANCH   1  23
ATOM     23  O   UNL     1      -2.465  -0.669  -0.756  0.00  0.00    -0.423 OA
BRANCH  23  24
ATOM     24  C   UNL     1      -1.338  -1.379  -0.924  0.00  0.00    +0.353 C 
ATOM     25  O   UNL     1      -1.340  -2.571  -0.726  0.00  0.00    -0.246 OA
BRANCH  24  27
ATOM     26  C   UNL     1       0.380   0.284  -0.267  0.00  0.00    +0.064 C 
ATOM     27  C   UNL     1      -0.070  -0.689  -1.358  0.00  0.00    +0.279 C 
BRANCH  27  28
ATOM     28  O   UNL     1       0.951  -1.664  -1.578  0.00  0.00    -0.475 OA
BRANCH  28  29
ATOM     29  C   UNL     1       1.969  -1.316  -2.409  0.00  0.00    +0.157 A 
ATOM     30  C   UNL     1       2.009  -0.045  -2.963  0.00  0.00    +0.048 A 
ATOM     31  C   UNL     1       3.044   0.307  -3.808  0.00  0.00    +0.004 A 
ATOM     32  C   UNL     1       4.040  -0.606  -4.102  0.00  0.00    +0.003 A 
ATOM     33  C   UNL     1       4.004  -1.874  -3.552  0.00  0.00    +0.042 A 
ATOM     34  C   UNL     1       2.973  -2.230  -2.700  0.00  0.00    +0.165 A 
ATOM     35  F   UNL     1       2.941  -3.467  -2.158  0.00  0.00    -0.202 F 
ENDBRANCH  28  29
ENDBRANCH  27  28
ENDBRANCH  24  27
ENDBRANCH  23  24
ENDBRANCH   1  23
TORSDOF 8
