REMARK  Name = ZINC38888469
REMARK  9 active torsions:
REMARK  status: ('A' for Active; 'I' for Inactive)
REMARK    1  A    between atoms: C_1  and  C_2
REMARK    2  A    between atoms: C_6  and  C_8
REMARK    3  A    between atoms: C_10  and  C_13
REMARK    4  A    between atoms: C_13  and  N_14
REMARK    5  A    between atoms: C_18  and  C_21
REMARK    6  A    between atoms: C_30  and  S_32
REMARK    7  A    between atoms: S_32  and  N_35
REMARK    8  A    between atoms: N_35  and  C_36
REMARK    9  A    between atoms: N_35  and  C_37
REMARK                            x       y       z     vdW  Elec       q    Type
REMARK                         _______ _______ _______ _____ _____    ______ ____
ROOT
ATOM      1  N   UNL     1       1.505  -6.359   4.553  0.00  0.00    +0.386 N 
ATOM      2  C   UNL     1       2.154  -6.430   3.238  0.00  0.00    -0.078 C 
ATOM      3  C   UNL     1       3.627  -6.808   3.413  0.00  0.00    -0.018 C 
ATOM      4  C   UNL     1       3.720  -8.171   4.104  0.00  0.00    +0.009 C 
ATOM      5  C   UNL     1       2.975  -8.107   5.440  0.00  0.00    +0.059 C 
ATOM      6  C   UNL     1       1.526  -7.681   5.191  0.00  0.00    -0.065 C 
ATOM      7  H   UNL     1       1.998  -5.698   5.134  0.00  0.00    -0.081 HD
ENDROOT
BRANCH   5   8
ATOM      8  C   UNL     1       2.995  -9.465   6.094  0.00  0.00    +0.221 C 
ATOM      9  O   UNL     1       2.064 -10.226   5.939  0.00  0.00    -0.275 OA
ATOM     10  N   UNL     1       4.048  -9.832   6.851  0.00  0.00    -0.271 N 
ATOM     11  C   UNL     1       5.173  -8.962   7.205  0.00  0.00    +0.118 C 
ATOM     12  C   UNL     1       6.099  -9.833   8.069  0.00  0.00    +0.056 C 
ATOM     13  C   UNL     1       5.405 -11.174   8.140  0.00  0.00    -0.023 A 
ATOM     14  C   UNL     1       4.223 -11.098   7.419  0.00  0.00    +0.040 A 
ATOM     15  C   UNL     1       3.401 -12.223   7.345  0.00  0.00    +0.026 A 
ATOM     16  C   UNL     1       3.760 -13.391   7.985  0.00  0.00    +0.030 A 
ATOM     17  C   UNL     1       4.938 -13.455   8.705  0.00  0.00    +0.106 A 
ATOM     18  C   UNL     1       5.763 -12.347   8.776  0.00  0.00    +0.034 A 
BRANCH  17  19
ATOM     19  S   UNL     1       5.394 -14.949   9.522  0.00  0.00    +0.060 S 
ATOM     20  O   UNL     1       6.271 -14.583  10.578  0.00  0.00    -0.153 OA
ATOM     21  O   UNL     1       4.191 -15.671   9.747  0.00  0.00    -0.153 OA
BRANCH  19  22
ATOM     22  N   UNL     1       6.288 -15.840   8.450  0.00  0.00    -0.183 NA
ATOM     23  C   UNL     1       7.743 -15.679   8.400  0.00  0.00    +0.131 C 
ATOM     24  C   UNL     1       5.624 -16.788   7.553  0.00  0.00    +0.131 C 
ENDBRANCH  19  22
ENDBRANCH  17  19
ENDBRANCH   5   8
BRANCH   1  25
ATOM     25  C   UNL     1       0.113  -5.920   4.386  0.00  0.00    +0.022 C 
BRANCH  25  28
ATOM     26  C   UNL     1       0.059  -2.845   2.460  0.00  0.00    +0.202 A 
ATOM     27  N   UNL     1       0.078  -4.184   2.585  0.00  0.00    -0.193 NA
ATOM     28  C   UNL     1       0.091  -4.514   3.845  0.00  0.00    +0.211 A 
ATOM     29  O   UNL     1       0.080  -3.393   4.578  0.00  0.00    -0.340 OA
ATOM     30  N   UNL     1       0.065  -2.312   3.657  0.00  0.00    -0.056 NA
BRANCH  26  36
ATOM     31  C   UNL     1      -0.007   1.498  -0.004  0.00  0.00    +0.044 C 
ATOM     32  C   UNL     1       0.008  -0.009  -0.009  0.00  0.00    -0.050 A 
ATOM     33  C   UNL     1       0.004  -0.696  -1.210  0.00  0.00    +0.003 A 
ATOM     34  C   UNL     1       0.017  -2.079  -1.221  0.00  0.00    +0.001 A 
ATOM     35  C   UNL     1       0.035  -2.781  -0.033  0.00  0.00    +0.012 A 
ATOM     36  C   UNL     1       0.040  -2.095   1.179  0.00  0.00    +0.023 A 
ATOM     37  C   UNL     1       0.032  -0.701   1.185  0.00  0.00    +0.015 A 
ENDBRANCH  26  36
ENDBRANCH  25  28
ENDBRANCH   1  25
TORSDOF 6
