REMARK  Name = ZINC39710875
REMARK  12 active torsions:
REMARK  status: ('A' for Active; 'I' for Inactive)
REMARK    1  A    between atoms: C_1  and  C_2
REMARK    2  A    between atoms: C_8  and  C_14
REMARK    3  A    between atoms: C_14  and  C_16
REMARK    4  A    between atoms: C_14  and  N_26
REMARK    5  A    between atoms: N_21  and  C_22
REMARK    6  A    between atoms: C_22  and  C_23
REMARK    7  A    between atoms: C_22  and  C_24
REMARK    8  A    between atoms: C_22  and  C_25
REMARK    9  A    between atoms: N_26  and  C_27
REMARK   10  A    between atoms: N_26  and  C_34
REMARK   11  A    between atoms: C_27  and  C_28
REMARK   12  A    between atoms: C_34  and  C_35
REMARK                            x       y       z     vdW  Elec       q    Type
REMARK                         _______ _______ _______ _____ _____    ______ ____
ROOT
ATOM      1  C   UNL     1      -1.573  -3.224   4.621  0.00  0.00    -0.009 C 
ENDROOT
BRANCH   1   9
ATOM      2  C   UNL     1       2.990  -2.030   8.549  0.00  0.00    +0.045 C 
ATOM      3  C   UNL     1       2.526  -1.309   7.309  0.00  0.00    -0.029 A 
ATOM      4  C   UNL     1       2.941  -0.037   7.075  0.00  0.00    +0.005 A 
ATOM      5  C   UNL     1       2.550   0.686   5.947  0.00  0.00    +0.001 A 
ATOM      6  C   UNL     1       1.724   0.149   5.013  0.00  0.00    +0.009 A 
ATOM      7  C   UNL     1       1.240  -1.219   5.204  0.00  0.00    -0.007 A 
ATOM      8  C   UNL     1       0.408  -1.800   4.292  0.00  0.00    -0.006 C 
ATOM      9  C   UNL     1      -0.044  -3.220   4.571  0.00  0.00    +0.088 C 
ATOM     10  C   UNL     1       0.463  -3.876   5.835  0.00  0.00    +0.223 C 
ATOM     11  O   UNL     1       0.132  -5.014   6.107  0.00  0.00    -0.275 OA
ATOM     12  N   UNL     1       1.268  -3.208   6.644  0.00  0.00    -0.284 N 
ATOM     13  C   UNL     1       1.673  -1.961   6.401  0.00  0.00    +0.043 A 
ATOM     14  H   UNL     1       1.582  -3.646   7.450  0.00  0.00    +0.155 HD
ENDBRANCH   1   9
BRANCH   1  15
ATOM     15  C   UNL     1      -2.071  -4.649   4.873  0.00  0.00    +0.205 C 
ATOM     16  N   UNL     1      -1.487  -5.185   6.110  0.00  0.00    -0.152 NA
ATOM     17  N   UNL     1      -0.817  -6.182   5.834  0.00  0.00    -0.070 NA
ATOM     18  N   UNL     1      -0.823  -6.481   4.472  0.00  0.00    -0.179 N 
ATOM     19  N   UNL     1      -1.594  -5.558   3.810  0.00  0.00    -0.183 NA
ATOM     20  H   UNL     1      -0.357  -7.224   4.058  0.00  0.00    +0.191 HD
BRANCH  19  21
ATOM     21  C   UNL     1      -0.801  -4.829   2.811  0.00  0.00    +0.035 C 
ATOM     22  C   UNL     1       0.675  -4.855   3.213  0.00  0.00    +0.029 C 
ATOM     23  C   UNL     1      -0.969  -5.494   1.443  0.00  0.00    +0.029 C 
ATOM     24  C   UNL     1      -1.284  -3.379   2.736  0.00  0.00    +0.029 C 
ENDBRANCH  19  21
ENDBRANCH   1  15
BRANCH   1  25
ATOM     25  N   UNL     1      -2.030  -2.346   5.707  0.00  0.00    +0.390 N 
ATOM     26  H   UNL     1      -1.492  -2.535   6.540  0.00  0.00    -0.080 HD
BRANCH  25  27
ATOM     27  C   UNL     1      -1.845  -0.943   5.313  0.00  0.00    -0.042 C 
BRANCH  27  28
ATOM     28  C   UNL     1      -2.650  -0.661   4.070  0.00  0.00    -0.064 A 
ATOM     29  C   UNL     1      -2.230  -1.153   2.848  0.00  0.00    +0.002 A 
ATOM     30  C   UNL     1      -2.968  -0.894   1.708  0.00  0.00    +0.000 A 
ATOM     31  C   UNL     1      -4.126  -0.143   1.790  0.00  0.00    +0.000 A 
ATOM     32  C   UNL     1      -4.546   0.348   3.012  0.00  0.00    +0.000 A 
ATOM     33  C   UNL     1      -3.811   0.085   4.153  0.00  0.00    +0.002 A 
ENDBRANCH  27  28
ENDBRANCH  25  27
BRANCH  25  34
ATOM     34  C   UNL     1      -3.452  -2.597   5.974  0.00  0.00    -0.042 C 
BRANCH  34  35
ATOM     35  C   UNL     1      -3.772  -2.211   7.395  0.00  0.00    -0.064 A 
ATOM     36  C   UNL     1      -2.981  -2.673   8.431  0.00  0.00    +0.003 A 
ATOM     37  C   UNL     1      -3.274  -2.319   9.735  0.00  0.00    +0.020 A 
ATOM     38  C   UNL     1      -4.359  -1.503  10.003  0.00  0.00    +0.041 A 
ATOM     39  C   UNL     1      -5.150  -1.042   8.966  0.00  0.00    +0.020 A 
ATOM     40  C   UNL     1      -4.852  -1.391   7.662  0.00  0.00    +0.003 A 
ATOM     41 CL   UNL     1      -4.728  -1.059  11.640  0.00  0.00    -0.084 Cl
ENDBRANCH  34  35
ENDBRANCH  25  34
ENDBRANCH   1  25
TORSDOF 8
