REMARK  Name = ZINC33526255
REMARK  4 active torsions:
REMARK  status: ('A' for Active; 'I' for Inactive)
REMARK    1  A    between atoms: C_8  and  N_26
REMARK    2  A    between atoms: C_9  and  C_12
REMARK    3  A    between atoms: N_16  and  C_20
REMARK    4  A    between atoms: N_26  and  C_27
REMARK                            x       y       z     vdW  Elec       q    Type
REMARK                         _______ _______ _______ _____ _____    ______ ____
ROOT
ATOM      1  C   UNL     1       4.939   0.875  -0.649  0.00  0.00    +0.005 A 
ATOM      2  C   UNL     1       4.728   2.259  -0.716  0.00  0.00    +0.018 A 
ATOM      3  C   UNL     1       3.478   2.761  -0.596  0.00  0.00    +0.096 A 
ATOM      4  N   UNL     1       2.409   1.935  -0.410  0.00  0.00    -0.268 N 
ATOM      5  C   UNL     1       2.584   0.581  -0.341  0.00  0.00    +0.142 A 
ATOM      6  C   UNL     1       3.876   0.041  -0.464  0.00  0.00    +0.047 A 
ATOM      7  N   UNL     1       1.551  -0.243  -0.160  0.00  0.00    -0.214 NA
ATOM      8  C   UNL     1       0.312   0.212  -0.038  0.00  0.00    +0.134 A 
ATOM      9  C   UNL     1       0.071   1.605  -0.101  0.00  0.00    +0.081 A 
ATOM     10  C   UNL     1       1.174   2.469  -0.294  0.00  0.00    +0.267 A 
ATOM     11  O   UNL     1       1.013   3.676  -0.354  0.00  0.00    -0.267 OA
ENDROOT
BRANCH   9  12
ATOM     12  C   UNL     1      -1.241   2.119   0.019  0.00  0.00    +0.037 C 
ATOM     13  C   UNL     1      -1.577   2.887   1.097  0.00  0.00    +0.077 C 
ATOM     14  C   UNL     1      -0.819   3.191   2.264  0.00  0.00    +0.259 C 
ATOM     15  O   UNL     1       0.305   2.745   2.415  0.00  0.00    -0.269 OA
ATOM     16  N   UNL     1      -1.369   3.972   3.177  0.00  0.00    -0.252 N 
ATOM     17  C   UNL     1      -2.618   4.461   3.013  0.00  0.00    +0.121 C 
ATOM     18  S   UNL     1      -3.521   5.474   4.057  0.00  0.00    -0.027 S 
ATOM     19  S   UNL     1      -3.089   3.780   1.429  0.00  0.00    -0.061 S 
BRANCH  16  20
ATOM     20  C   UNL     1      -0.615   4.308   4.388  0.00  0.00    +0.083 C 
ATOM     21  C   UNL     1      -1.378   3.812   5.617  0.00  0.00    +0.023 C 
ATOM     22  C   UNL     1      -0.591   4.163   6.882  0.00  0.00    +0.002 C 
ATOM     23  C   UNL     1      -0.416   5.681   6.968  0.00  0.00    +0.000 C 
ATOM     24  C   UNL     1       0.347   6.177   5.739  0.00  0.00    +0.002 C 
ATOM     25  C   UNL     1      -0.440   5.826   4.474  0.00  0.00    +0.023 C 
ENDBRANCH  16  20
ENDBRANCH   9  12
BRANCH   8  26
ATOM     26  N   UNL     1      -0.733  -0.666   0.149  0.00  0.00    -0.326 N 
ATOM     27  H   UNL     1      -1.760  -0.284   0.250  0.00  0.00    +0.148 HD
BRANCH  26  28
ATOM     28  C   UNL     1      -0.478  -2.107   0.214  0.00  0.00    +0.072 C 
ATOM     29  C   UNL     1      -0.441  -2.682  -1.204  0.00  0.00    +0.022 C 
ATOM     30  C   UNL     1      -0.174  -4.187  -1.136  0.00  0.00    +0.002 C 
ATOM     31  C   UNL     1      -1.288  -4.868  -0.338  0.00  0.00    +0.000 C 
ATOM     32  C   UNL     1      -1.325  -4.292   1.079  0.00  0.00    +0.002 C 
ATOM     33  C   UNL     1      -1.592  -2.787   1.012  0.00  0.00    +0.022 C 
ENDBRANCH  26  28
ENDBRANCH   8  26
TORSDOF 4
