REMARK  Name = ZINC09807742
REMARK  6 active torsions:
REMARK  status: ('A' for Active; 'I' for Inactive)
REMARK    1  A    between atoms: C_3  and  C_8
REMARK    2  A    between atoms: C_8  and  C_10
REMARK    3  A    between atoms: C_8  and  N_24
REMARK    4  A    between atoms: C_11  and  O_23
REMARK    5  A    between atoms: C_16  and  C_18
REMARK    6  A    between atoms: C_27  and  C_30
REMARK                            x       y       z     vdW  Elec       q    Type
REMARK                         _______ _______ _______ _____ _____    ______ ____
ROOT
ATOM      1  C   UNL     1       3.672   2.184  -0.021  0.00  0.00    +0.005 C 
ENDROOT
BRANCH   1   2
ATOM      2  C   UNL     1       4.216   2.237  -1.425  0.00  0.00    +0.045 A 
ATOM      3  C   UNL     1       4.393   3.297  -2.222  0.00  0.00    +0.225 A 
ATOM      4  N   UNL     1       4.910   3.146  -3.486  0.00  0.00    -0.173 N 
ATOM      5  C   UNL     1       5.228   1.876  -3.881  0.00  0.00    +0.199 A 
ATOM      6  S   UNL     1       4.801   0.902  -2.458  0.00  0.00    -0.050 S 
ATOM      7  N   UNL     1       5.703   1.898  -5.095  0.00  0.00    -0.197 NA
ATOM      8  C   UNL     1       5.716   3.162  -5.542  0.00  0.00    +0.218 A 
ATOM      9  N   UNL     1       5.245   3.954  -4.603  0.00  0.00    -0.138 NA
BRANCH   8  10
ATOM     10  C   UNL     1       6.185   3.595  -6.875  0.00  0.00    +0.173 A 
ATOM     11  C   UNL     1       6.668   2.784  -7.854  0.00  0.00    +0.053 A 
ATOM     12  C   UNL     1       6.993   3.615  -8.945  0.00  0.00    +0.042 A 
ATOM     13  C   UNL     1       6.696   4.878  -8.582  0.00  0.00    +0.196 A 
ATOM     14  O   UNL     1       6.203   4.862  -7.333  0.00  0.00    -0.460 OA
ENDBRANCH   8  10
BRANCH   3  15
ATOM     15  O   UNL     1       4.058   4.538  -1.776  0.00  0.00    -0.492 OA
ATOM     16  H   UNL     1       4.220   5.243  -2.418  0.00  0.00    +0.294 HD
ENDBRANCH   3  15
ENDBRANCH   1   2
BRANCH   1  19
ATOM     17  C   UNL     1      -0.017   1.378   0.010  0.00  0.00    +0.002 A 
ATOM     18  C   UNL     1       1.171   2.086   0.002  0.00  0.00    +0.002 A 
ATOM     19  C   UNL     1       2.378   1.412  -0.013  0.00  0.00    -0.055 A 
ATOM     20  C   UNL     1       2.398   0.029  -0.021  0.00  0.00    +0.022 A 
ATOM     21  C   UNL     1       1.210  -0.679  -0.013  0.00  0.00    +0.041 A 
ATOM     22  C   UNL     1       0.002  -0.004   0.002  0.00  0.00    +0.020 A 
ATOM     23 CL   UNL     1       1.234  -2.415  -0.024  0.00  0.00    -0.084 Cl
ENDBRANCH   1  19
BRANCH   1  24
ATOM     24  N   UNL     1       4.644   1.519   0.856  0.00  0.00    +0.387 N 
ATOM     25  C   UNL     1       4.109   1.460   2.222  0.00  0.00    -0.077 C 
ATOM     26  C   UNL     1       5.082   0.697   3.123  0.00  0.00    -0.006 C 
ATOM     27  C   UNL     1       6.433   1.419   3.133  0.00  0.00    +0.071 C 
ATOM     28  C   UNL     1       6.947   1.540   1.696  0.00  0.00    -0.006 C 
ATOM     29  C   UNL     1       5.904   2.272   0.847  0.00  0.00    -0.077 C 
ATOM     30  H   UNL     1       4.812   0.582   0.522  0.00  0.00    -0.080 HD
BRANCH  27  31
ATOM     31  C   UNL     1       7.419   0.631   3.956  0.00  0.00    +0.213 C 
ATOM     32  O   UNL     1       7.077  -0.407   4.483  0.00  0.00    -0.276 OA
ATOM     33  N   UNL     1       8.681   1.079   4.106  0.00  0.00    -0.329 N 
ATOM     34  H   UNL     1       8.955   1.908   3.684  0.00  0.00    +0.145 HD
ATOM     35  H   UNL     1       9.316   0.571   4.635  0.00  0.00    +0.145 HD
ENDBRANCH  27  31
ENDBRANCH   1  24
TORSDOF 6
