REMARK  Name = ZINC02707473
REMARK  6 active torsions:
REMARK  status: ('A' for Active; 'I' for Inactive)
REMARK    1  A    between atoms: C_1  and  O_2
REMARK    2  A    between atoms: O_2  and  C_3
REMARK    3  A    between atoms: C_6  and  O_34
REMARK    4  A    between atoms: C_7  and  C_9
REMARK    5  A    between atoms: C_20  and  C_22
REMARK    6  A    between atoms: O_34  and  C_35
REMARK                            x       y       z     vdW  Elec       q    Type
REMARK                         _______ _______ _______ _____ _____    ______ ____
ROOT
ATOM      1  C   UNL     1      -2.557   3.875   0.046  0.00  0.00    +0.176 C 
ATOM      2  C   UNL     1      -2.642   4.719   1.294  0.00  0.00    +0.026 C 
ATOM      3  C   UNL     1      -2.540   6.049   1.264  0.00  0.00    +0.050 C 
ATOM      4  C   UNL     1      -2.661   6.795   2.540  0.00  0.00    +0.039 A 
ATOM      5  C   UNL     1      -2.245   8.116   2.651  0.00  0.00    +0.033 A 
ATOM      6  C   UNL     1      -2.379   8.773   3.860  0.00  0.00    +0.042 A 
ATOM      7  C   UNL     1      -2.923   8.120   4.954  0.00  0.00    +0.023 A 
ATOM      8  C   UNL     1      -3.338   6.804   4.851  0.00  0.00    +0.048 A 
ATOM      9  C   UNL     1      -3.209   6.136   3.647  0.00  0.00    +0.131 A 
ATOM     10  O   UNL     1      -3.603   4.844   3.507  0.00  0.00    -0.479 OA
ATOM     11  C   UNL     1      -2.839   4.025   2.622  0.00  0.00    +0.241 C 
ATOM     12 CL   UNL     1      -1.862  10.424   4.009  0.00  0.00    -0.084 Cl
ATOM     13  N   UNL     1      -2.340   6.756   0.073  0.00  0.00    -0.283 N 
ATOM     14  C   UNL     1      -2.542   6.070  -1.115  0.00  0.00    +0.219 A 
ATOM     15  N   UNL     1      -2.654   4.718  -1.140  0.00  0.00    -0.221 N 
ATOM     16  N   UNL     1      -2.865   4.364  -2.472  0.00  0.00    -0.156 NA
ATOM     17  C   UNL     1      -2.862   5.477  -3.164  0.00  0.00    +0.247 A 
ATOM     18  N   UNL     1      -2.664   6.509  -2.337  0.00  0.00    -0.201 NA
ATOM     19  H   UNL     1      -2.071   7.688   0.078  0.00  0.00    +0.155 HD
ENDROOT
BRANCH   1  24
ATOM     20  C   UNL     1       1.155   3.170   0.008  0.00  0.00    +0.121 A 
ATOM     21  C   UNL     1       1.174   1.783   0.000  0.00  0.00    +0.049 A 
ATOM     22  C   UNL     1      -0.013   1.076   0.008  0.00  0.00    +0.049 A 
ATOM     23  C   UNL     1      -1.223   1.753   0.017  0.00  0.00    +0.126 A 
ATOM     24  C   UNL     1      -1.242   3.140   0.030  0.00  0.00    +0.026 A 
ATOM     25  C   UNL     1      -0.055   3.847   0.023  0.00  0.00    +0.055 A 
BRANCH  20  27
ATOM     26  C   UNL     1       3.532   3.104  -0.015  0.00  0.00    +0.277 C 
ATOM     27  O   UNL     1       2.323   3.865   0.001  0.00  0.00    -0.495 OA
ENDBRANCH  20  27
BRANCH  23  28
ATOM     28  O   UNL     1      -2.392   1.057   0.019  0.00  0.00    -0.495 OA
ATOM     29  C   UNL     1      -2.297  -0.369   0.012  0.00  0.00    +0.277 C 
ENDBRANCH  23  28
ENDBRANCH   1  24
BRANCH  11  30
ATOM     30  C   UNL     1      -1.494   3.746   3.241  0.00  0.00    +0.034 A 
ATOM     31  C   UNL     1      -0.747   2.616   3.187  0.00  0.00    +0.015 A 
ATOM     32  C   UNL     1       0.473   2.587   3.835  0.00  0.00    +0.008 A 
ATOM     33  C   UNL     1       0.883   3.685   4.516  0.00  0.00    +0.045 A 
ATOM     34  S   UNL     1      -0.473   4.814   4.243  0.00  0.00    -0.098 S 
ENDBRANCH  11  30
TORSDOF 4
