REMARK  Name = ZINC05104042
REMARK  9 active torsions:
REMARK  status: ('A' for Active; 'I' for Inactive)
REMARK    1  A    between atoms: C_1  and  C_2
REMARK    2  A    between atoms: C_2  and  C_4
REMARK    3  A    between atoms: C_2  and  N_14
REMARK    4  A    between atoms: C_15  and  C_17
REMARK    5  A    between atoms: C_17  and  O_18
REMARK    6  A    between atoms: O_18  and  C_19
REMARK    7  A    between atoms: C_19  and  C_21
REMARK    8  A    between atoms: C_24  and  O_28
REMARK    9  A    between atoms: C_26  and  O_27
REMARK                            x       y       z     vdW  Elec       q    Type
REMARK                         _______ _______ _______ _____ _____    ______ ____
ROOT
ATOM      1  N   UNL     1       1.143   1.898   0.001  0.00  0.00    -0.309 N 
ATOM      2  C   UNL     1      -0.014   1.209   0.009  0.00  0.00    +0.251 C 
ATOM      3  O   UNL     1       0.002  -0.004   0.002  0.00  0.00    -0.272 OA
ATOM      4  H   UNL     1       1.130   2.868   0.007  0.00  0.00    +0.149 HD
ENDROOT
BRANCH   1   6
ATOM      5  C   UNL     1       2.792   0.832  -1.457  0.00  0.00    +0.028 C 
ATOM      6  C   UNL     1       2.422   1.183  -0.015  0.00  0.00    +0.076 C 
BRANCH   6   7
ATOM      7  C   UNL     1       3.511   2.072   0.589  0.00  0.00    -0.010 C 
ATOM      8  C   UNL     1       3.141   2.423   2.032  0.00  0.00    +0.012 C 
ATOM      9  C   UNL     1       4.230   3.312   2.636  0.00  0.00    -0.010 C 
ATOM     10  C   UNL     1       5.566   2.565   2.619  0.00  0.00    +0.007 C 
ATOM     11  C   UNL     1       5.936   2.214   1.177  0.00  0.00    -0.010 C 
ATOM     12  C   UNL     1       4.846   1.325   0.573  0.00  0.00    +0.012 C 
ATOM     13  C   UNL     1       6.059   3.498   0.355  0.00  0.00    +0.007 C 
ATOM     14  C   UNL     1       4.724   4.245   0.372  0.00  0.00    -0.010 C 
ATOM     15  C   UNL     1       4.354   4.596   1.814  0.00  0.00    +0.007 C 
ATOM     16  C   UNL     1       3.635   3.357  -0.232  0.00  0.00    +0.012 C 
ENDBRANCH   6   7
ENDBRANCH   1   6
BRANCH   2  17
ATOM     17  C   UNL     1      -1.330   1.944   0.019  0.00  0.00    +0.328 C 
BRANCH  17  18
ATOM     18  O   UNL     1      -2.420   0.986   0.019  0.00  0.00    -0.452 OA
BRANCH  18  19
ATOM     19  C   UNL     1      -3.673   1.484   0.028  0.00  0.00    +0.343 C 
ATOM     20  O   UNL     1      -3.848   2.687   0.035  0.00  0.00    -0.245 OA
BRANCH  19  21
ATOM     21  C   UNL     1      -4.827   0.572   0.028  0.00  0.00    +0.100 A 
ATOM     22  C   UNL     1      -4.629  -0.813   0.020  0.00  0.00    +0.022 A 
ATOM     23  C   UNL     1      -5.701  -1.658   0.021  0.00  0.00    +0.046 A 
ATOM     24  C   UNL     1      -6.997  -1.151   0.030  0.00  0.00    +0.120 A 
ATOM     25  C   UNL     1      -7.212   0.220   0.038  0.00  0.00    +0.091 A 
ATOM     26  C   UNL     1      -6.133   1.087   0.043  0.00  0.00    +0.134 A 
BRANCH  26  27
ATOM     27  O   UNL     1      -6.337   2.429   0.057  0.00  0.00    -0.506 OA
ATOM     28  H   UNL     1      -6.402   2.825  -0.823  0.00  0.00    +0.292 HD
ENDBRANCH  26  27
BRANCH  24  29
ATOM     29  O   UNL     1      -8.055  -2.001   0.032  0.00  0.00    -0.507 OA
ATOM     30  H   UNL     1      -8.357  -2.251   0.915  0.00  0.00    +0.292 HD
ENDBRANCH  24  29
ENDBRANCH  19  21
ENDBRANCH  18  19
ENDBRANCH  17  18
ENDBRANCH   2  17
TORSDOF 8
