REMARK  Name = ZINC65385525
REMARK  5 active torsions:
REMARK  status: ('A' for Active; 'I' for Inactive)
REMARK    1  A    between atoms: C_4  and  C_6
REMARK    2  A    between atoms: C_4  and  N_17
REMARK    3  A    between atoms: N_8  and  C_9
REMARK    4  A    between atoms: C_9  and  C_10
REMARK    5  A    between atoms: C_10  and  C_11
REMARK                            x       y       z     vdW  Elec       q    Type
REMARK                         _______ _______ _______ _____ _____    ______ ____
ROOT
ATOM      1  C   UNL     1       1.991  -0.664  -1.414  0.00  0.00    +0.203 C 
ATOM      2  O   UNL     1       1.395  -0.199  -2.362  0.00  0.00    -0.277 OA
ATOM      3  N   UNL     1       3.105  -1.396  -1.612  0.00  0.00    -0.316 N 
ATOM      4  H   UNL     1       3.582  -1.769  -0.854  0.00  0.00    +0.149 HD
ENDROOT
BRANCH   1   8
ATOM      5  C   UNL     1      -0.058   1.504  -0.023  0.00  0.00    -0.001 C 
ATOM      6  C   UNL     1       1.405   1.994   0.009  0.00  0.00    -0.001 C 
ATOM      7  C   UNL     1       2.191   0.804   0.613  0.00  0.00    -0.003 C 
ATOM      8  C   UNL     1       1.486  -0.425  -0.014  0.00  0.00    +0.013 C 
ATOM      9  C   UNL     1      -0.006  -0.034  -0.038  0.00  0.00    -0.003 C 
BRANCH   8  10
ATOM     10  N   UNL     1       1.692  -1.617   0.819  0.00  0.00    +0.389 N 
ATOM     11  C   UNL     1       1.209  -1.365   2.201  0.00  0.00    -0.077 C 
ATOM     12  C   UNL     1       0.964  -2.791   2.756  0.00  0.00    -0.020 C 
ATOM     13  C   UNL     1       0.403  -3.547   1.530  0.00  0.00    -0.020 C 
ATOM     14  C   UNL     1       0.882  -2.743   0.307  0.00  0.00    -0.077 C 
ATOM     15  H   UNL     1       2.669  -1.869   0.831  0.00  0.00    -0.080 HD
ENDBRANCH   8  10
ENDBRANCH   1   8
BRANCH   3  16
ATOM     16  C   UNL     1       3.596  -1.629  -2.973  0.00  0.00    +0.111 C 
BRANCH  16  17
ATOM     17  C   UNL     1       4.865  -2.482  -2.918  0.00  0.00    +0.083 C 
BRANCH  17  18
ATOM     18  C   UNL     1       5.369  -2.722  -4.318  0.00  0.00    +0.105 A 
ATOM     19  N   UNL     1       6.218  -2.023  -5.043  0.00  0.00    -0.145 NA
ATOM     20  N   UNL     1       6.541  -2.363  -6.214  0.00  0.00    -0.126 NA
ATOM     21  C   UNL     1       6.044  -3.450  -6.789  0.00  0.00    +0.179 A 
ATOM     22  S   UNL     1       4.993  -4.044  -5.466  0.00  0.00    -0.036 S 
ATOM     23  N   UNL     1       6.277  -3.979  -8.050  0.00  0.00    -0.336 N 
ATOM     24  H   UNL     1       6.887  -3.533  -8.657  0.00  0.00    +0.144 HD
ATOM     25  H   UNL     1       5.828  -4.794  -8.324  0.00  0.00    +0.144 HD
ENDBRANCH  17  18
ENDBRANCH  16  17
ENDBRANCH   3  16
TORSDOF 5
