REMARK  Name = ZINC39527091
REMARK  7 active torsions:
REMARK  status: ('A' for Active; 'I' for Inactive)
REMARK    1  A    between atoms: C_1  and  S_2
REMARK    2  A    between atoms: S_2  and  C_3
REMARK    3  A    between atoms: N_9  and  S_10
REMARK    4  A    between atoms: S_10  and  O_13
REMARK    5  A    between atoms: O_13  and  C_14
REMARK    6  A    between atoms: C_23  and  C_26
REMARK    7  A    between atoms: C_31  and  O_32
REMARK                            x       y       z     vdW  Elec       q    Type
REMARK                         _______ _______ _______ _____ _____    ______ ____
ROOT
ATOM      1  C   UNL     1      -0.955  -0.422   0.124  0.00  0.00    +0.140 C 
ATOM      2  C   UNL     1      -1.129  -0.097   1.611  0.00  0.00    +0.032 C 
ATOM      3  C   UNL     1      -2.566  -0.410   2.033  0.00  0.00    +0.004 C 
ATOM      4  C   UNL     1      -2.846  -1.901   1.829  0.00  0.00    +0.024 C 
ATOM      5  C   UNL     1      -2.689  -2.247   0.346  0.00  0.00    +0.048 C 
ATOM      6  N   UNL     1      -1.362  -1.815  -0.110  0.00  0.00    -0.128 NA
ATOM      7  C   UNL     1      -2.829  -3.757   0.153  0.00  0.00    +0.024 C 
ATOM      8  C   UNL     1      -4.214  -4.205   0.626  0.00  0.00    +0.002 C 
ATOM      9  C   UNL     1      -5.289  -3.482  -0.187  0.00  0.00    +0.008 C 
ATOM     10  C   UNL     1      -5.148  -1.972   0.008  0.00  0.00    +0.024 C 
ATOM     11  C   UNL     1      -3.764  -1.523  -0.465  0.00  0.00    +0.032 C 
ENDROOT
BRANCH  10  12
ATOM     12  C   UNL     1      -6.208  -1.260  -0.793  0.00  0.00    -0.003 A 
ATOM     13  C   UNL     1      -6.262  -1.420  -2.164  0.00  0.00    +0.007 A 
ATOM     14  C   UNL     1      -7.234  -0.767  -2.899  0.00  0.00    +0.001 A 
ATOM     15  C   UNL     1      -8.155   0.046  -2.265  0.00  0.00    +0.004 A 
ATOM     16  C   UNL     1      -8.105   0.209  -0.894  0.00  0.00    +0.046 A 
ATOM     17  C   UNL     1      -7.134  -0.449  -0.153  0.00  0.00    +0.120 A 
BRANCH  17  18
ATOM     18  O   UNL     1      -7.087  -0.295   1.196  0.00  0.00    -0.506 OA
ATOM     19  H   UNL     1      -6.534   0.442   1.489  0.00  0.00    +0.292 HD
ENDBRANCH  17  18
ENDBRANCH  10  12
BRANCH   6  20
ATOM     20  S   UNL     1      -0.342  -2.877  -0.867  0.00  0.00    +0.196 S 
ATOM     21  O   UNL     1       0.981  -2.424  -0.610  0.00  0.00    -0.119 OA
ATOM     22  O   UNL     1      -0.781  -4.182  -0.517  0.00  0.00    -0.119 OA
BRANCH  20  23
ATOM     23  O   UNL     1      -0.569  -2.728  -2.365  0.00  0.00    -0.333 OA
BRANCH  23  24
ATOM     24  C   UNL     1      -0.059  -1.583  -2.890  0.00  0.00    +0.158 A 
ATOM     25  C   UNL     1      -0.873  -0.471  -3.053  0.00  0.00    +0.048 A 
ATOM     26  C   UNL     1      -0.352   0.692  -3.587  0.00  0.00    +0.004 A 
ATOM     27  C   UNL     1       0.978   0.748  -3.959  0.00  0.00    +0.000 A 
ATOM     28  C   UNL     1       1.791  -0.359  -3.799  0.00  0.00    +0.004 A 
ATOM     29  C   UNL     1       1.276  -1.522  -3.260  0.00  0.00    +0.048 A 
ENDBRANCH  23  24
ENDBRANCH  20  23
ENDBRANCH   6  20
BRANCH   1  31
ATOM     30  C   UNL     1       1.000   1.589  -0.431  0.00  0.00    +0.086 C 
ATOM     31  S   UNL     1       0.785  -0.210  -0.345  0.00  0.00    -0.143 S 
ENDBRANCH   1  31
TORSDOF 6
