REMARK  Name = ZINC02126553
REMARK  9 active torsions:
REMARK  status: ('A' for Active; 'I' for Inactive)
REMARK    1  A    between atoms: C_1  and  C_2
REMARK    2  A    between atoms: C_2  and  O_4
REMARK    3  A    between atoms: O_4  and  C_5
REMARK    4  A    between atoms: C_5  and  C_6
REMARK    5  A    between atoms: C_6  and  C_8
REMARK    6  A    between atoms: C_24  and  O_34
REMARK    7  A    between atoms: C_25  and  O_32
REMARK    8  A    between atoms: O_32  and  C_33
REMARK    9  A    between atoms: O_34  and  C_35
REMARK                            x       y       z     vdW  Elec       q    Type
REMARK                         _______ _______ _______ _____ _____    ______ ____
ROOT
ATOM      1  C   UNL     1      -3.119   6.832  -0.557  0.00  0.00    +0.207 C 
ATOM      2  C   UNL     1      -2.130   5.821  -1.191  0.00  0.00    +0.091 C 
ATOM      3  C   UNL     1      -1.901   4.859  -0.057  0.00  0.00    +0.040 A 
ATOM      4  C   UNL     1      -2.377   5.472   1.109  0.00  0.00    +0.128 A 
ATOM      5  C   UNL     1      -2.313   4.805   2.341  0.00  0.00    +0.047 A 
ATOM      6  C   UNL     1      -1.774   3.545   2.360  0.00  0.00    +0.018 A 
ATOM      7  C   UNL     1      -1.300   2.933   1.199  0.00  0.00    +0.060 A 
ATOM      8  C   UNL     1      -1.350   3.595  -0.048  0.00  0.00    +0.138 A 
ATOM      9  O   UNL     1      -0.881   3.017  -1.169  0.00  0.00    -0.483 OA
ATOM     10  C   UNL     1      -0.754   1.594  -1.236  0.00  0.00    +0.226 C 
ATOM     11  C   UNL     1       0.123   1.256  -2.455  0.00  0.00    +0.274 C 
ATOM     12  O   UNL     1       1.322   2.026  -2.362  0.00  0.00    -0.488 OA
ATOM     13  C   UNL     1       1.989   2.040  -1.178  0.00  0.00    +0.128 A 
ATOM     14  C   UNL     1       3.297   2.513  -1.160  0.00  0.00    +0.095 A 
ATOM     15  C   UNL     1       4.008   2.554   0.026  0.00  0.00    +0.165 A 
ATOM     16  C   UNL     1       3.410   2.120   1.206  0.00  0.00    +0.162 A 
ATOM     17  C   UNL     1       2.110   1.648   1.186  0.00  0.00    +0.057 A 
ATOM     18  C   UNL     1       1.399   1.607  -0.003  0.00  0.00    +0.012 A 
ATOM     19  C   UNL     1      -0.013   1.086   0.008  0.00  0.00    +0.138 C 
ATOM     20  C   UNL     1      -0.741   1.573   1.239  0.00  0.00    +0.178 C 
ATOM     21  O   UNL     1      -0.861   0.870   2.221  0.00  0.00    -0.291 OA
ATOM     22  O   UNL     1      -2.855   6.705   0.854  0.00  0.00    -0.484 OA
ENDROOT
BRANCH   1  23
ATOM     23  C   UNL     1      -2.826   8.232  -1.030  0.00  0.00    +0.001 C 
ATOM     24  C   UNL     1      -3.741   8.910  -1.678  0.00  0.00    +0.015 C 
BRANCH  23  25
ATOM     25  C   UNL     1      -1.480   8.853  -0.758  0.00  0.00    +0.266 C 
BRANCH  25  26
ATOM     26  O   UNL     1      -1.446  10.196  -1.310  0.00  0.00    -0.460 OA
BRANCH  26  28
ATOM     27  C   UNL     1      -0.199  12.291  -1.698  0.00  0.00    +0.136 C 
ATOM     28  C   UNL     1      -0.309  10.891  -1.151  0.00  0.00    +0.304 C 
ATOM     29  O   UNL     1       0.627  10.394  -0.571  0.00  0.00    -0.251 OA
ENDBRANCH  26  28
ENDBRANCH  25  26
ENDBRANCH  23  25
ENDBRANCH   1  23
BRANCH  16  30
ATOM     30  O   UNL     1       4.104   2.159   2.376  0.00  0.00    -0.491 OA
ATOM     31  C   UNL     1       3.427   1.697   3.547  0.00  0.00    +0.277 C 
ENDBRANCH  16  30
BRANCH  15  32
ATOM     32  O   UNL     1       5.286   3.017   0.040  0.00  0.00    -0.491 OA
ATOM     33  C   UNL     1       5.834   3.446  -1.209  0.00  0.00    +0.277 C 
ENDBRANCH  15  32
TORSDOF 6
