REMARK  Name = ZINC38509054
REMARK  8 active torsions:
REMARK  status: ('A' for Active; 'I' for Inactive)
REMARK    1  A    between atoms: C_1  and  C_2
REMARK    2  A    between atoms: N_4  and  C_25
REMARK    3  A    between atoms: C_6  and  C_7
REMARK    4  A    between atoms: N_9  and  C_10
REMARK    5  A    between atoms: C_10  and  C_11
REMARK    6  A    between atoms: C_11  and  N_12
REMARK    7  A    between atoms: N_12  and  C_13
REMARK    8  A    between atoms: N_12  and  C_14
REMARK                            x       y       z     vdW  Elec       q    Type
REMARK                         _______ _______ _______ _____ _____    ______ ____
ROOT
ATOM      1  C   UNL     1       0.259  -0.469   2.583  0.00  0.00    +0.273 C 
ATOM      2  O   UNL     1       0.326   0.704   2.894  0.00  0.00    -0.268 OA
ATOM      3  N   UNL     1      -0.047  -1.396   3.511  0.00  0.00    -0.247 N 
ATOM      4  C   UNL     1      -0.376  -1.005   4.798  0.00  0.00    +0.168 A 
ATOM      5  N   UNL     1      -0.694  -1.752   5.830  0.00  0.00    -0.224 NA
ATOM      6  C   UNL     1      -0.995  -1.229   7.039  0.00  0.00    +0.080 A 
ATOM      7  C   UNL     1      -1.351  -1.916   8.222  0.00  0.00    +0.030 A 
ATOM      8  C   UNL     1      -1.629  -1.229   9.375  0.00  0.00    +0.017 A 
ATOM      9  C   UNL     1      -1.571   0.157   9.424  0.00  0.00    +0.019 A 
ATOM     10  C   UNL     1      -1.226   0.862   8.284  0.00  0.00    +0.032 A 
ATOM     11  C   UNL     1      -0.946   0.181   7.126  0.00  0.00    +0.042 A 
ATOM     12  S   UNL     1      -0.468   0.645   5.479  0.00  0.00    -0.052 S 
ATOM     13 BR   UNL     1      -1.961   1.073  11.032  0.00  0.00    -0.050 Br
ENDROOT
BRANCH   1  19
ATOM     14  C   UNL     1       0.760   1.488   0.093  0.00  0.00    +0.048 C 
ATOM     15  C   UNL     1       0.736  -0.019   0.085  0.00  0.00    -0.001 A 
ATOM     16  C   UNL     1       0.927  -0.835  -0.978  0.00  0.00    +0.112 A 
ATOM     17  N   UNL     1       0.819  -2.105  -0.531  0.00  0.00    -0.274 N 
ATOM     18  N   UNL     1       0.575  -2.113   0.730  0.00  0.00    -0.167 NA
ATOM     19  C   UNL     1       0.514  -0.878   1.187  0.00  0.00    +0.150 A 
ATOM     20  C   UNL     1       0.959  -3.301  -1.365  0.00  0.00    +0.172 C 
ENDBRANCH   1  19
BRANCH   3  21
ATOM     21  C   UNL     1      -0.032  -2.818   3.160  0.00  0.00    +0.097 C 
BRANCH  21  22
ATOM     22  C   UNL     1       1.397  -3.355   3.266  0.00  0.00    -0.060 C 
BRANCH  22  23
ATOM     23  N   UNL     1       1.412  -4.781   2.913  0.00  0.00    +0.377 N 
ATOM     24  C   UNL     1       2.798  -5.267   2.899  0.00  0.00    -0.097 C 
ATOM     25  C   UNL     1       0.637  -5.539   3.905  0.00  0.00    -0.097 C 
ATOM     26  H   UNL     1       1.003  -4.905   2.000  0.00  0.00    -0.083 HD
ENDBRANCH  22  23
ENDBRANCH  21  22
ENDBRANCH   3  21
TORSDOF 4
