REMARK  Name = ZINC37685108
REMARK  5 active torsions:
REMARK  status: ('A' for Active; 'I' for Inactive)
REMARK    1  A    between atoms: C_5  and  N_8
REMARK    2  A    between atoms: C_6  and  N_7
REMARK    3  A    between atoms: C_9  and  C_11
REMARK    4  A    between atoms: C_11  and  S_12
REMARK    5  A    between atoms: S_12  and  C_13
REMARK                            x       y       z     vdW  Elec       q    Type
REMARK                         _______ _______ _______ _____ _____    ______ ____
ROOT
ATOM      1  N   UNL     1       1.246  -2.083  -0.022  0.00  0.00    -0.282 N 
ATOM      2  C   UNL     1       2.410  -2.738   0.164  0.00  0.00    +0.227 C 
ATOM      3  O   UNL     1       3.418  -2.118   0.430  0.00  0.00    -0.275 OA
ATOM      4  H   UNL     1       0.427  -2.583  -0.163  0.00  0.00    +0.155 HD
ENDROOT
BRANCH   1   9
ATOM      5  C   UNL     1       0.982   1.393   1.183  0.00  0.00    +0.044 A 
ATOM      6  C   UNL     1       1.170   2.091   0.003  0.00  0.00    +0.044 A 
ATOM      7  C   UNL     1       1.382   1.409  -1.182  0.00  0.00    +0.042 A 
ATOM      8  C   UNL     1       1.408   0.025  -1.193  0.00  0.00    +0.065 A 
ATOM      9  C   UNL     1       1.221  -0.681  -0.013  0.00  0.00    +0.073 A 
ATOM     10  C   UNL     1       1.007   0.007   1.181  0.00  0.00    +0.049 A 
ATOM     11 CL   UNL     1       1.673  -0.826  -2.682  0.00  0.00    -0.082 Cl
ATOM     12 CL   UNL     1       1.138   3.826   0.009  0.00  0.00    -0.083 Cl
BRANCH  10  13
ATOM     13  N   UNL     1       0.819  -0.700   2.373  0.00  0.00    -0.356 N 
ATOM     14  H   UNL     1       0.670  -0.221   3.203  0.00  0.00    +0.142 HD
ATOM     15  H   UNL     1       0.836  -1.670   2.370  0.00  0.00    +0.142 HD
ENDBRANCH  10  13
ENDBRANCH   1   9
BRANCH   2  16
ATOM     16  C   UNL     1       2.458  -4.239   0.043  0.00  0.00    +0.165 C 
BRANCH  16  17
ATOM     17  S   UNL     1       4.151  -4.816   0.347  0.00  0.00    -0.148 S 
BRANCH  17  18
ATOM     18  C   UNL     1       4.039  -6.618   0.167  0.00  0.00    +0.047 C 
ATOM     19  C   UNL     1       3.145  -7.187   1.270  0.00  0.00    +0.014 C 
ATOM     20  C   UNL     1       3.051  -8.706   1.117  0.00  0.00    +0.001 C 
ATOM     21  C   UNL     1       4.449  -9.317   1.228  0.00  0.00    +0.000 C 
ATOM     22  C   UNL     1       5.343  -8.748   0.125  0.00  0.00    +0.001 C 
ATOM     23  C   UNL     1       5.438  -7.229   0.277  0.00  0.00    +0.014 C 
ENDBRANCH  17  18
ENDBRANCH  16  17
ENDBRANCH   2  16
TORSDOF 5
