REMARK  Name = ZINC51579241
REMARK  7 active torsions:
REMARK  status: ('A' for Active; 'I' for Inactive)
REMARK    1  A    between atoms: C_1  and  C_2
REMARK    2  A    between atoms: C_5  and  C_18
REMARK    3  A    between atoms: C_6  and  N_8
REMARK    4  A    between atoms: N_8  and  C_9
REMARK    5  A    between atoms: N_8  and  C_10
REMARK    6  A    between atoms: C_10  and  C_11
REMARK    7  A    between atoms: N_19  and  O_20
REMARK                            x       y       z     vdW  Elec       q    Type
REMARK                         _______ _______ _______ _____ _____    ______ ____
ROOT
ATOM      1  C   UNL     1       1.097   1.442  -0.337  0.00  0.00    +0.044 C 
ATOM      2  C   UNL     1       0.895  -0.051  -0.285  0.00  0.00    -0.049 A 
ATOM      3  C   UNL     1       0.958  -0.795  -1.452  0.00  0.00    +0.004 A 
ATOM      4  C   UNL     1       0.775  -2.161  -1.417  0.00  0.00    +0.013 A 
ATOM      5  C   UNL     1       0.525  -2.799  -0.202  0.00  0.00    +0.039 A 
ATOM      6  C   UNL     1       0.462  -2.044   0.978  0.00  0.00    +0.041 A 
ATOM      7  C   UNL     1       0.654  -0.670   0.925  0.00  0.00    +0.027 A 
ENDROOT
BRANCH   5   8
ATOM      8  C   UNL     1       0.328  -4.264  -0.158  0.00  0.00    +0.164 C 
ATOM      9  N   UNL     1       0.095  -4.855   0.978  0.00  0.00    -0.071 NA
ATOM     10  N   UNL     1       0.390  -5.006  -1.325  0.00  0.00    -0.340 N 
ATOM     11  H   UNL     1       0.564  -4.565  -2.172  0.00  0.00    +0.144 HD
ATOM     12  H   UNL     1       0.260  -5.967  -1.296  0.00  0.00    +0.144 HD
BRANCH   9  13
ATOM     13  O   UNL     1      -0.095  -6.258   1.020  0.00  0.00    -0.408 OA
ATOM     14  H   UNL     1      -0.262  -6.606   1.907  0.00  0.00    +0.328 HD
ENDBRANCH   9  13
ENDBRANCH   5   8
BRANCH   6  15
ATOM     15  N   UNL     1       0.214  -2.670   2.196  0.00  0.00    -0.328 N 
ATOM     16  C   UNL     1      -1.157  -2.768   2.703  0.00  0.00    +0.129 C 
BRANCH  15  17
ATOM     17  C   UNL     1       1.323  -3.230   2.972  0.00  0.00    +0.141 C 
BRANCH  17  18
ATOM     18  C   UNL     1       1.803  -2.209   3.971  0.00  0.00    -0.016 A 
ATOM     19  C   UNL     1       1.110  -1.024   4.136  0.00  0.00    +0.006 A 
ATOM     20  C   UNL     1       1.549  -0.088   5.053  0.00  0.00    +0.000 A 
ATOM     21  C   UNL     1       2.682  -0.336   5.806  0.00  0.00    +0.001 A 
ATOM     22  C   UNL     1       3.375  -1.520   5.642  0.00  0.00    +0.015 A 
ATOM     23  C   UNL     1       2.933  -2.460   4.728  0.00  0.00    +0.023 A 
ATOM     24 BR   UNL     1       3.877  -4.083   4.508  0.00  0.00    -0.050 Br
ENDBRANCH  17  18
ENDBRANCH  15  17
ENDBRANCH   6  15
TORSDOF 5
