REMARK  Name = ZINC38965711
REMARK  4 active torsions:
REMARK  status: ('A' for Active; 'I' for Inactive)
REMARK    1  A    between atoms: C_9  and  O_27
REMARK    2  A    between atoms: C_10  and  C_11
REMARK    3  A    between atoms: N_12  and  N_13
REMARK    4  A    between atoms: C_14  and  C_20
REMARK                            x       y       z     vdW  Elec       q    Type
REMARK                         _______ _______ _______ _____ _____    ______ ____
ROOT
ATOM      1  C   UNL     1       5.004   0.089   0.170  0.00  0.00    +0.142 C 
ATOM      2  N   UNL     1       6.110  -0.556  -0.061  0.00  0.00    -0.183 NA
ENDROOT
BRANCH   1  12
ATOM      3  C   UNL     1       0.061   1.373   0.885  0.00  0.00    +0.001 A 
ATOM      4  C   UNL     1       1.259   2.082   0.914  0.00  0.00    +0.001 A 
ATOM      5  C   UNL     1       2.449   1.458   0.680  0.00  0.00    +0.009 A 
ATOM      6  C   UNL     1       2.468   0.086   0.406  0.00  0.00    -0.006 A 
ATOM      7  C   UNL     1       1.251  -0.639   0.375  0.00  0.00    -0.017 A 
ATOM      8  C   UNL     1       0.044   0.037   0.621  0.00  0.00    +0.008 A 
ATOM      9  C   UNL     1       1.272  -2.018   0.101  0.00  0.00    +0.012 A 
ATOM     10  C   UNL     1       2.446  -2.663  -0.135  0.00  0.00    +0.046 A 
ATOM     11  C   UNL     1       3.668  -1.993  -0.116  0.00  0.00    +0.126 A 
ATOM     12  C   UNL     1       3.720  -0.624   0.149  0.00  0.00    +0.044 A 
BRANCH  11  13
ATOM     13  O   UNL     1       4.816  -2.677  -0.357  0.00  0.00    -0.506 OA
ATOM     14  H   UNL     1       5.068  -2.705  -1.290  0.00  0.00    +0.292 HD
ENDBRANCH  11  13
ENDBRANCH   1  12
BRANCH   2  15
ATOM     15  N   UNL     1       7.318   0.143  -0.175  0.00  0.00    -0.172 N 
ATOM     16  C   UNL     1       8.675  -0.416  -0.316  0.00  0.00    +0.266 C 
ATOM     17  N   UNL     1       9.540   0.771  -0.392  0.00  0.00    -0.189 NA
ATOM     18  N   UNL     1       8.824   1.773  -0.310  0.00  0.00    -0.219 N 
ATOM     19  C   UNL     1       7.501   1.482  -0.187  0.00  0.00    +0.174 C 
ATOM     20  S   UNL     1       6.250   2.643  -0.059  0.00  0.00    -0.015 S 
ATOM     21  H   UNL     1       9.170   2.679  -0.336  0.00  0.00    +0.176 HD
BRANCH  16  22
ATOM     22  C   UNL     1       8.782  -1.233  -1.578  0.00  0.00    +0.033 A 
ATOM     23  C   UNL     1       7.649  -1.796  -2.135  0.00  0.00    +0.010 A 
ATOM     24  C   UNL     1       7.747  -2.545  -3.293  0.00  0.00    +0.001 A 
ATOM     25  C   UNL     1       8.977  -2.732  -3.895  0.00  0.00    +0.003 A 
ATOM     26  C   UNL     1      10.111  -2.169  -3.341  0.00  0.00    +0.039 A 
ATOM     27  C   UNL     1      10.014  -1.414  -2.184  0.00  0.00    +0.130 A 
ATOM     28  F   UNL     1      11.121  -0.860  -1.643  0.00  0.00    -0.205 F 
ENDBRANCH  16  22
ENDBRANCH   2  15
TORSDOF 4
