REMARK  Name = ZINC39947160
REMARK  8 active torsions:
REMARK  status: ('A' for Active; 'I' for Inactive)
REMARK    1  A    between atoms: C_1  and  C_2
REMARK    2  A    between atoms: C_2  and  C_4
REMARK    3  A    between atoms: C_2  and  N_10
REMARK    4  A    between atoms: C_11  and  C_13
REMARK    5  A    between atoms: C_13  and  S_14
REMARK    6  A    between atoms: S_14  and  C_15
REMARK    7  A    between atoms: C_19  and  C_24
REMARK    8  A    between atoms: N_20  and  C_21
REMARK                            x       y       z     vdW  Elec       q    Type
REMARK                         _______ _______ _______ _____ _____    ______ ____
ROOT
ATOM      1  C   UNL     1       5.150  -1.712  -3.680  0.00  0.00    +0.237 C 
ATOM      2  N   UNL     1       4.599  -0.806  -4.702  0.00  0.00    -0.237 N 
ATOM      3  N   UNL     1       4.020  -1.620  -5.683  0.00  0.00    -0.169 NA
ATOM      4  C   UNL     1       4.150  -2.886  -5.388  0.00  0.00    +0.147 C 
ATOM      5  N   UNL     1       4.832  -3.060  -4.177  0.00  0.00    -0.282 N 
ATOM      6  H   UNL     1       4.630   0.163  -4.696  0.00  0.00    +0.171 HD
ENDROOT
BRANCH   4   7
ATOM      7  C   UNL     1       3.669  -3.937  -6.183  0.00  0.00    +0.022 C 
ATOM      8  C   UNL     1       3.073  -3.840  -7.441  0.00  0.00    +0.006 A 
ATOM      9  C   UNL     1       2.778  -2.739  -8.272  0.00  0.00    +0.010 A 
ATOM     10  C   UNL     1       2.181  -2.944  -9.475  0.00  0.00    +0.001 A 
ATOM     11  C   UNL     1       1.848  -4.226  -9.916  0.00  0.00    +0.002 A 
ATOM     12  C   UNL     1       2.103  -5.328  -9.169  0.00  0.00    +0.026 A 
ATOM     13  C   UNL     1       2.724  -5.193  -7.901  0.00  0.00    +0.043 A 
ATOM     14  N   UNL     1       3.073  -6.091  -7.001  0.00  0.00    -0.380 N 
ATOM     15  C   UNL     1       3.693  -5.415  -5.858  0.00  0.00    +0.152 C 
ATOM     16  H   UNL     1       2.943  -7.049  -7.083  0.00  0.00    +0.160 HD
ENDBRANCH   4   7
BRANCH   5  17
ATOM     17  C   UNL     1       5.163  -4.333  -3.530  0.00  0.00    +0.078 C 
ATOM     18  C   UNL     1       5.839  -4.273  -2.159  0.00  0.00    +0.024 C 
ATOM     19  C   UNL     1       6.644  -4.691  -3.392  0.00  0.00    +0.024 C 
ENDBRANCH   5  17
BRANCH   1  20
ATOM     20  S   UNL     1       4.352  -1.421  -2.078  0.00  0.00    -0.109 S 
BRANCH  20  21
ATOM     21  C   UNL     1       2.586  -1.660  -2.417  0.00  0.00    +0.168 C 
BRANCH  21  23
ATOM     22  N   UNL     1       0.456  -1.571  -1.163  0.00  0.00    -0.308 N 
ATOM     23  C   UNL     1       1.798  -1.445  -1.151  0.00  0.00    +0.223 C 
ATOM     24  O   UNL     1       2.371  -1.158  -0.121  0.00  0.00    -0.275 OA
ATOM     25  H   UNL     1      -0.002  -1.800  -1.986  0.00  0.00    +0.149 HD
BRANCH  22  27
ATOM     26  C   UNL     1      -0.599   0.131   0.242  0.00  0.00    +0.033 C 
ATOM     27  C   UNL     1      -0.310  -1.361   0.068  0.00  0.00    +0.100 C 
BRANCH  27  28
ATOM     28  C   UNL     1      -1.611  -2.118  -0.015  0.00  0.00    -0.027 A 
ATOM     29  C   UNL     1      -2.313  -2.156  -1.205  0.00  0.00    +0.005 A 
ATOM     30  C   UNL     1      -3.506  -2.850  -1.281  0.00  0.00    +0.000 A 
ATOM     31  C   UNL     1      -3.997  -3.506  -0.168  0.00  0.00    +0.000 A 
ATOM     32  C   UNL     1      -3.294  -3.469   1.022  0.00  0.00    +0.000 A 
ATOM     33  C   UNL     1      -2.099  -2.778   1.097  0.00  0.00    +0.005 A 
ENDBRANCH  27  28
ENDBRANCH  22  27
ENDBRANCH  21  23
ENDBRANCH  20  21
ENDBRANCH   1  20
TORSDOF 7
