REMARK  Name = ZINC48232302
REMARK  3 active torsions:
REMARK  status: ('A' for Active; 'I' for Inactive)
REMARK    1  A    between atoms: C_6  and  N_7
REMARK    2  A    between atoms: N_7  and  S_8
REMARK    3  A    between atoms: S_8  and  C_11
REMARK                            x       y       z     vdW  Elec       q    Type
REMARK                         _______ _______ _______ _____ _____    ______ ____
ROOT
ATOM      1  C   UNL     1      -0.017   1.384   0.010  0.00  0.00    +0.028 A 
ATOM      2  C   UNL     1       1.170   2.093   0.002  0.00  0.00    +0.051 A 
ATOM      3  C   UNL     1       2.381   1.421  -0.013  0.00  0.00    +0.167 A 
ATOM      4  C   UNL     1       2.403   0.028  -0.021  0.00  0.00    +0.169 A 
ATOM      5  C   UNL     1       1.214  -0.682  -0.014  0.00  0.00    +0.074 A 
ATOM      6  C   UNL     1       0.002  -0.004   0.002  0.00  0.00    +0.052 A 
ATOM      7  O   UNL     1       3.704  -0.389  -0.034  0.00  0.00    -0.447 OA
ATOM      8  C   UNL     1       4.468   0.759  -0.432  0.00  0.00    +0.254 C 
ATOM      9  O   UNL     1       3.669   1.878  -0.022  0.00  0.00    -0.448 OA
ATOM     10  C   UNL     1       4.662   0.770  -1.944  0.00  0.00    +0.093 C 
ATOM     11  C   UNL     1       5.486  -0.451  -2.362  0.00  0.00    +0.008 C 
ATOM     12  C   UNL     1       6.843  -0.415  -1.657  0.00  0.00    +0.000 C 
ATOM     13  C   UNL     1       6.634  -0.446  -0.141  0.00  0.00    +0.008 C 
ATOM     14  C   UNL     1       5.814   0.775   0.285  0.00  0.00    +0.093 C 
ENDROOT
BRANCH   6  15
ATOM     15  N   UNL     1      -1.200  -0.720   0.010  0.00  0.00    -0.216 N 
ATOM     16  H   UNL     1      -1.307  -1.482   0.601  0.00  0.00    +0.174 HD
BRANCH  15  17
ATOM     17  S   UNL     1      -2.440  -0.267  -0.989  0.00  0.00    +0.075 S 
ATOM     18  O   UNL     1      -3.497  -1.192  -0.770  0.00  0.00    -0.150 OA
ATOM     19  O   UNL     1      -2.607   1.134  -0.821  0.00  0.00    -0.150 OA
BRANCH  17  20
ATOM     20  C   UNL     1      -1.891  -0.513  -2.646  0.00  0.00    +0.145 A 
ATOM     21  C   UNL     1      -1.247   0.396  -3.414  0.00  0.00    +0.133 A 
ATOM     22  N   UNL     1      -1.001  -0.178  -4.610  0.00  0.00    -0.283 N 
ATOM     23  H   UNL     1      -0.551   0.240  -5.361  0.00  0.00    +0.188 HD
ATOM     24  N   UNL     1      -1.510  -1.482  -4.576  0.00  0.00    -0.180 NA
ATOM     25  C   UNL     1      -2.038  -1.684  -3.396  0.00  0.00    +0.163 A 
ENDBRANCH  17  20
ENDBRANCH  15  17
ENDBRANCH   6  15
TORSDOF 3
