REMARK  Name = ZINC12296241
REMARK  9 active torsions:
REMARK  status: ('A' for Active; 'I' for Inactive)
REMARK    1  A    between atoms: C_1  and  C_2
REMARK    2  A    between atoms: C_13  and  O_15
REMARK    3  A    between atoms: N_21  and  O_22
REMARK    4  A    between atoms: O_22  and  C_23
REMARK    5  A    between atoms: C_23  and  C_24
REMARK    6  A    between atoms: N_26  and  C_27
REMARK    7  A    between atoms: C_27  and  C_28
REMARK    8  A    between atoms: C_28  and  C_29
REMARK    9  A    between atoms: C_41  and  C_42
REMARK                            x       y       z     vdW  Elec       q    Type
REMARK                         _______ _______ _______ _____ _____    ______ ____
ROOT
ATOM      1  C   UNL     1       1.266   3.039  -2.714  0.00  0.00    +0.014 C 
ATOM      2  C   UNL     1       1.327   1.524  -2.545  0.00  0.00    -0.003 C 
ATOM      3  C   UNL     1      -0.070   0.953  -2.506  0.00  0.00    +0.010 C 
ATOM      4  C   UNL     1      -0.775   1.492  -1.245  0.00  0.00    +0.005 C 
ATOM      5  C   UNL     1      -0.013   1.110   0.008  0.00  0.00    +0.002 C 
ATOM      6  C   UNL     1       1.454   1.519  -0.004  0.00  0.00    -0.003 C 
ATOM      7  C   UNL     1       2.097   1.070  -1.288  0.00  0.00    +0.001 C 
ATOM      8  C   UNL     1       3.512   1.574  -1.599  0.00  0.00    +0.007 C 
ATOM      9  C   UNL     1       3.675   1.203  -3.101  0.00  0.00    +0.032 C 
ATOM     10  C   UNL     1       2.244   0.976  -3.654  0.00  0.00    +0.121 C 
ATOM     11  C   UNL     1       1.751   2.959   0.346  0.00  0.00    +0.008 C 
ATOM     12  C   UNL     1       0.531   3.693   0.898  0.00  0.00    +0.031 C 
ATOM     13  C   UNL     1      -0.153   2.753   1.861  0.00  0.00    -0.062 C 
ATOM     14  C   UNL     1      -0.247   3.036   3.149  0.00  0.00    +0.026 C 
ATOM     15  C   UNL     1      -0.875   2.094   4.083  0.00  0.00    +0.080 C 
ATOM     16  N   UNL     1      -1.101   2.457   5.308  0.00  0.00    -0.089 NA
ATOM     17  C   UNL     1      -1.243   0.704   3.635  0.00  0.00    +0.059 C 
ATOM     18  C   UNL     1      -0.523   0.358   2.332  0.00  0.00    +0.017 C 
ATOM     19  C   UNL     1      -0.725   1.474   1.301  0.00  0.00    -0.007 C 
ATOM     20  C   UNL     1      -2.224   1.670   1.067  0.00  0.00    +0.016 C 
ENDROOT
BRANCH  10  21
ATOM     21  O   UNL     1       2.046   1.718  -4.856  0.00  0.00    -0.391 OA
ATOM     22  H   UNL     1       2.595   1.423  -5.595  0.00  0.00    +0.210 HD
ENDBRANCH  10  21
BRANCH  16  23
ATOM     23  O   UNL     1      -0.742   3.758   5.739  0.00  0.00    -0.384 OA
BRANCH  23  24
ATOM     24  C   UNL     1      -1.048   4.021   7.109  0.00  0.00    +0.358 C 
BRANCH  24  25
ATOM     25  C   UNL     1      -0.626   5.426   7.457  0.00  0.00    +0.253 C 
ATOM     26  O   UNL     1      -0.114   6.131   6.614  0.00  0.00    -0.272 OA
ATOM     27  N   UNL     1      -0.818   5.897   8.705  0.00  0.00    -0.312 N 
ATOM     28  H   UNL     1      -1.228   5.333   9.379  0.00  0.00    +0.149 HD
BRANCH  27  29
ATOM     29  C   UNL     1      -0.408   7.263   9.043  0.00  0.00    +0.110 C 
BRANCH  29  30
ATOM     30  C   UNL     1      -0.736   7.545  10.511  0.00  0.00    +0.072 C 
BRANCH  30  31
ATOM     31  C   UNL     1      -0.314   8.949  10.859  0.00  0.00    +0.018 A 
ATOM     32  C   UNL     1       0.920   9.309  11.244  0.00  0.00    +0.031 A 
ATOM     33  C   UNL     1       0.891  10.755  11.477  0.00  0.00    -0.000 A 
ATOM     34  C   UNL     1       1.843  11.693  11.882  0.00  0.00    +0.010 A 
ATOM     35  C   UNL     1       1.490  13.006  12.013  0.00  0.00    +0.001 A 
ATOM     36  C   UNL     1       0.190  13.416  11.748  0.00  0.00    +0.002 A 
ATOM     37  C   UNL     1      -0.765  12.508  11.348  0.00  0.00    +0.026 A 
ATOM     38  C   UNL     1      -0.427  11.166  11.207  0.00  0.00    +0.047 A 
ATOM     39  N   UNL     1      -1.133  10.044  10.834  0.00  0.00    -0.358 N 
ATOM     40  H   UNL     1      -2.072  10.033  10.589  0.00  0.00    +0.166 HD
ENDBRANCH  30  31
ENDBRANCH  29  30
ENDBRANCH  27  29
ENDBRANCH  24  25
ENDBRANCH  23  24
ENDBRANCH  16  23
TORSDOF 7
