REMARK  Name = ZINC00866968
REMARK  5 active torsions:
REMARK  status: ('A' for Active; 'I' for Inactive)
REMARK    1  A    between atoms: C_1  and  O_2
REMARK    2  A    between atoms: O_2  and  C_3
REMARK    3  A    between atoms: C_6  and  C_9
REMARK    4  A    between atoms: C_12  and  C_29
REMARK    5  A    between atoms: C_17  and  C_19
REMARK                            x       y       z     vdW  Elec       q    Type
REMARK                         _______ _______ _______ _____ _____    ______ ____
ROOT
ATOM      1  C   UNL     1       2.580  -2.518  -4.371  0.00  0.00    +0.104 C 
ATOM      2  C   UNL     1       3.997  -3.096  -4.280  0.00  0.00    +0.063 C 
ATOM      3  C   UNL     1       4.083  -4.086  -3.112  0.00  0.00    +0.215 C 
ATOM      4  N   UNL     1       2.971  -5.034  -3.211  0.00  0.00    -0.237 N 
ATOM      5  C   UNL     1       1.839  -4.802  -3.941  0.00  0.00    +0.137 A 
ATOM      6  C   UNL     1       1.031  -5.874  -3.815  0.00  0.00    +0.112 A 
ATOM      7  C   UNL     1       1.684  -6.805  -2.975  0.00  0.00    +0.167 A 
ATOM      8  N   UNL     1       2.848  -6.290  -2.617  0.00  0.00    -0.163 NA
ATOM      9 CL   UNL     1      -0.528  -6.075  -4.551  0.00  0.00    -0.078 Cl
ATOM     10  N   UNL     1       1.639  -3.617  -4.665  0.00  0.00    -0.321 N 
ATOM     11  H   UNL     1       0.929  -3.524  -5.319  0.00  0.00    +0.148 HD
ENDROOT
BRANCH   7  12
ATOM     12  C   UNL     1       1.157  -8.122  -2.567  0.00  0.00    +0.268 C 
ATOM     13  O   UNL     1       0.123  -8.540  -3.052  0.00  0.00    -0.268 OA
ATOM     14  N   UNL     1       1.821  -8.862  -1.657  0.00  0.00    -0.296 N 
ATOM     15  C   UNL     1       2.979  -8.306  -0.943  0.00  0.00    +0.108 C 
ATOM     16  C   UNL     1       2.751  -8.464   0.564  0.00  0.00    +0.019 C 
ATOM     17  C   UNL     1       2.462  -9.933   0.881  0.00  0.00    +0.003 C 
ATOM     18  C   UNL     1       1.192 -10.374   0.151  0.00  0.00    +0.019 C 
ATOM     19  C   UNL     1       1.398 -10.236  -1.355  0.00  0.00    +0.108 C 
ENDBRANCH   7  12
BRANCH   1  23
ATOM     20  C   UNL     1       1.535  -0.689  -0.653  0.00  0.00    +0.120 A 
ATOM     21  C   UNL     1       1.954   0.094  -1.719  0.00  0.00    +0.046 A 
ATOM     22  C   UNL     1       2.292  -0.500  -2.920  0.00  0.00    +0.009 A 
ATOM     23  C   UNL     1       2.212  -1.873  -3.060  0.00  0.00    -0.027 A 
ATOM     24  C   UNL     1       1.793  -2.655  -1.999  0.00  0.00    +0.009 A 
ATOM     25  C   UNL     1       1.460  -2.067  -0.794  0.00  0.00    +0.046 A 
BRANCH  20  27
ATOM     26  C   UNL     1       1.303   1.317   0.603  0.00  0.00    +0.277 C 
ATOM     27  O   UNL     1       1.202  -0.107   0.529  0.00  0.00    -0.495 OA
ENDBRANCH  20  27
ENDBRANCH   1  23
BRANCH   3  28
ATOM     28  C   UNL     1       5.412  -4.842  -3.179  0.00  0.00    +0.412 C 
ATOM     29  F   UNL     1       6.471  -3.932  -3.097  0.00  0.00    -0.168 F 
ATOM     30  F   UNL     1       5.489  -5.744  -2.112  0.00  0.00    -0.168 F 
ATOM     31  F   UNL     1       5.491  -5.541  -4.388  0.00  0.00    -0.168 F 
ENDBRANCH   3  28
TORSDOF 4
