REMARK  Name = ZINC39686273
REMARK  12 active torsions:
REMARK  status: ('A' for Active; 'I' for Inactive)
REMARK    1  A    between atoms: C_1  and  C_2
REMARK    2  A    between atoms: C_2  and  C_3
REMARK    3  A    between atoms: C_3  and  C_4
REMARK    4  A    between atoms: C_4  and  C_5
REMARK    5  A    between atoms: C_5  and  C_6
REMARK    6  A    between atoms: C_6  and  C_7
REMARK    7  A    between atoms: C_11  and  C_20
REMARK    8  A    between atoms: N_22  and  C_23
REMARK    9  A    between atoms: C_29  and  C_31
REMARK   10  A    between atoms: C_31  and  C_32
REMARK   11  A    between atoms: C_32  and  C_33
REMARK   12  A    between atoms: C_32  and  C_34
REMARK                            x       y       z     vdW  Elec       q    Type
REMARK                         _______ _______ _______ _____ _____    ______ ____
ROOT
ATOM      1  C   UNL     1       2.135  -4.573  -3.461  0.00  0.00    +0.216 C 
ATOM      2  O   UNL     1       2.574  -3.703  -4.182  0.00  0.00    -0.276 OA
ATOM      3  N   UNL     1       2.292  -5.869  -3.796  0.00  0.00    -0.300 N 
ATOM      4  C   UNL     1       1.824  -7.063  -3.052  0.00  0.00    +0.121 C 
ATOM      5  C   UNL     1       1.336  -8.038  -4.147  0.00  0.00    +0.100 C 
ATOM      6  C   UNL     1       2.094  -7.614  -5.416  0.00  0.00    -0.004 C 
ATOM      7  C   UNL     1       2.966  -6.423  -4.995  0.00  0.00    +0.115 C 
ATOM      8  C   UNL     1       2.969  -8.760  -5.917  0.00  0.00    -0.010 C 
ATOM      9  C   UNL     1       3.667  -8.334  -7.211  0.00  0.00    -0.082 C 
ATOM     10  N   UNL     1       2.660  -7.984  -8.220  0.00  0.00    +0.379 N 
ATOM     11  C   UNL     1       1.884  -6.822  -7.771  0.00  0.00    -0.082 C 
ATOM     12  C   UNL     1       1.110  -7.184  -6.500  0.00  0.00    -0.010 C 
ATOM     13  H   UNL     1       3.121  -7.763  -9.091  0.00  0.00    -0.086 HD
ATOM     14  H   UNL     1       2.040  -8.768  -8.361  0.00  0.00    -0.086 HD
ENDROOT
BRANCH   5  15
ATOM     15  C   UNL     1      -0.150  -7.898  -4.349  0.00  0.00    +0.218 C 
ATOM     16  O   UNL     1      -0.691  -6.830  -4.155  0.00  0.00    -0.275 OA
ATOM     17  N   UNL     1      -0.879  -8.960  -4.746  0.00  0.00    -0.312 N 
ATOM     18  H   UNL     1      -0.447  -9.814  -4.901  0.00  0.00    +0.149 HD
BRANCH  17  19
ATOM     19  C   UNL     1      -2.325  -8.824  -4.942  0.00  0.00    +0.076 C 
ATOM     20  C   UNL     1      -3.042  -9.015  -3.604  0.00  0.00    +0.041 C 
ATOM     21  C   UNL     1      -4.550  -8.838  -3.807  0.00  0.00    +0.109 C 
ATOM     22  N   UNL     1      -4.995  -9.753  -4.866  0.00  0.00    -0.301 N 
ATOM     23  C   UNL     1      -4.311  -9.716  -6.166  0.00  0.00    +0.109 C 
ATOM     24  C   UNL     1      -2.806  -9.883  -5.936  0.00  0.00    +0.041 C 
ATOM     25  C   UNL     1      -6.011 -10.612  -4.649  0.00  0.00    +0.216 C 
ATOM     26  O   UNL     1      -6.567 -10.633  -3.572  0.00  0.00    -0.276 OA
BRANCH  25  27
ATOM     27  C   UNL     1      -6.456 -11.545  -5.745  0.00  0.00    +0.099 C 
BRANCH  27  28
ATOM     28  C   UNL     1      -7.617 -12.406  -5.242  0.00  0.00    -0.008 C 
ATOM     29  C   UNL     1      -8.826 -11.514  -4.954  0.00  0.00    +0.008 C 
ATOM     30  C   UNL     1      -7.987 -13.438  -6.310  0.00  0.00    +0.008 C 
ENDBRANCH  27  28
ENDBRANCH  25  27
ENDBRANCH  17  19
ENDBRANCH   5  15
BRANCH   1  31
ATOM     31  C   UNL     1       1.415  -4.206  -2.189  0.00  0.00    +0.096 C 
BRANCH  31  32
ATOM     32  C   UNL     1       1.375  -2.683  -2.048  0.00  0.00    +0.009 C 
BRANCH  32  33
ATOM     33  C   UNL     1       0.643  -2.309  -0.757  0.00  0.00    +0.000 C 
BRANCH  33  34
ATOM     34  C   UNL     1       0.604  -0.787  -0.615  0.00  0.00    -0.000 C 
BRANCH  34  36
ATOM     35  C   UNL     1      -0.168   1.110   0.818  0.00  0.00    +0.004 C 
ATOM     36  C   UNL     1      -0.128  -0.413   0.676  0.00  0.00    -0.003 C 
ENDBRANCH  34  36
ENDBRANCH  33  34
ENDBRANCH  32  33
ENDBRANCH  31  32
ENDBRANCH   1  31
TORSDOF 9
