REMARK  Name = ZINC09935089
REMARK  5 active torsions:
REMARK  status: ('A' for Active; 'I' for Inactive)
REMARK    1  A    between atoms: C_1  and  C_2
REMARK    2  A    between atoms: C_7  and  N_8
REMARK    3  A    between atoms: C_7  and  N_48
REMARK    4  A    between atoms: C_15  and  C_18
REMARK    5  A    between atoms: C_15  and  O_26
REMARK                            x       y       z     vdW  Elec       q    Type
REMARK                         _______ _______ _______ _____ _____    ______ ____
ROOT
ATOM      1  N   UNL     1       3.375   3.478   1.868  0.00  0.00    -0.285 N 
ATOM      2  C   UNL     1       3.449   3.728   3.238  0.00  0.00    +0.041 A 
ATOM      3  C   UNL     1       3.622   2.860   4.315  0.00  0.00    +0.024 A 
ATOM      4  C   UNL     1       3.663   3.354   5.603  0.00  0.00    +0.002 A 
ATOM      5  C   UNL     1       3.536   4.711   5.836  0.00  0.00    +0.000 A 
ATOM      6  C   UNL     1       3.365   5.579   4.771  0.00  0.00    +0.009 A 
ATOM      7  C   UNL     1       3.322   5.089   3.486  0.00  0.00    +0.016 A 
ATOM      8  C   UNL     1       3.152   5.752   2.138  0.00  0.00    +0.189 C 
ATOM      9  C   UNL     1       3.207   4.603   1.153  0.00  0.00    +0.256 C 
ATOM     10  O   UNL     1       3.115   4.684  -0.053  0.00  0.00    -0.272 OA
ENDROOT
BRANCH   8  11
ATOM     11  C   UNL     1       4.296   6.733   1.875  0.00  0.00    +0.187 C 
ATOM     12  C   UNL     1       4.090   7.491   0.569  0.00  0.00    +0.255 C 
ATOM     13  O   UNL     1       4.049   6.942  -0.515  0.00  0.00    -0.272 OA
ATOM     14  N   UNL     1       3.963   8.784   0.718  0.00  0.00    -0.159 NA
ATOM     15  C   UNL     1       4.005   9.407   1.885  0.00  0.00    +0.145 C 
ATOM     16  S   UNL     1       4.254   8.144   3.051  0.00  0.00    -0.077 S 
ATOM     17  N   UNL     1       3.882  10.745   2.120  0.00  0.00    -0.340 N 
ATOM     18  H   UNL     1       3.930  11.084   3.027  0.00  0.00    +0.144 HD
ATOM     19  H   UNL     1       3.745  11.356   1.380  0.00  0.00    +0.144 HD
ENDBRANCH   8  11
BRANCH   8  20
ATOM     20  O   UNL     1       1.892   6.423   2.066  0.00  0.00    -0.373 OA
ATOM     21  H   UNL     1       1.130   5.842   2.196  0.00  0.00    +0.211 HD
ENDBRANCH   8  20
BRANCH   1  22
ATOM     22  C   UNL     1       3.474   2.142   1.275  0.00  0.00    +0.038 C 
BRANCH  22  29
ATOM     23  C   UNL     1      -1.431  -0.535   0.074  0.00  0.00    +0.007 C 
ATOM     24  C   UNL     1       0.002  -0.004   0.002  0.00  0.00    -0.018 C 
ATOM     25  C   UNL     1      -0.019   1.527   0.010  0.00  0.00    -0.015 C 
ATOM     26  C   UNL     1       1.419   2.052  -0.001  0.00  0.00    -0.076 C 
ATOM     27  C   UNL     1       2.208   0.081   1.168  0.00  0.00    -0.076 C 
ATOM     28  C   UNL     1       0.794  -0.503   1.214  0.00  0.00    -0.015 C 
ATOM     29  N   UNL     1       2.120   1.556   1.203  0.00  0.00    +0.390 N 
ATOM     30  H   UNL     1       1.590   1.838   2.037  0.00  0.00    -0.080 HD
ENDBRANCH  22  29
ENDBRANCH   1  22
TORSDOF 4
