REMARK  Name = ZINC09575874
REMARK  6 active torsions:
REMARK  status: ('A' for Active; 'I' for Inactive)
REMARK    1  A    between atoms: C_1  and  C_2
REMARK    2  A    between atoms: C_5  and  C_33
REMARK    3  A    between atoms: C_9  and  C_10
REMARK    4  A    between atoms: C_9  and  N_58
REMARK    5  A    between atoms: C_11  and  O_32
REMARK    6  A    between atoms: C_18  and  C_19
REMARK                            x       y       z     vdW  Elec       q    Type
REMARK                         _______ _______ _______ _____ _____    ______ ____
ROOT
ATOM      1  C   UNL     1       0.058   0.140  -1.039  0.00  0.00    +0.020 A 
ATOM      2  C   UNL     1       1.275  -0.500  -1.212  0.00  0.00    +0.122 A 
ATOM      3  C   UNL     1       2.470   0.201  -1.071  0.00  0.00    +0.046 A 
ATOM      4  C   UNL     1       2.452   1.532  -0.760  0.00  0.00    +0.019 A 
ATOM      5  C   UNL     1       1.234   2.189  -0.584  0.00  0.00    +0.068 A 
ATOM      6  C   UNL     1       0.022   1.492  -0.724  0.00  0.00    +0.144 A 
ATOM      7  O   UNL     1      -1.013   2.333  -0.514  0.00  0.00    -0.451 OA
ATOM      8  C   UNL     1      -0.592   3.587  -0.225  0.00  0.00    +0.176 C 
ATOM      9  C   UNL     1      -1.384   4.659   0.039  0.00  0.00    +0.061 C 
ATOM     10  C   UNL     1       0.877   3.580  -0.254  0.00  0.00    +0.231 C 
ATOM     11  O   UNL     1       1.632   4.516  -0.050  0.00  0.00    -0.283 OA
ENDROOT
BRANCH   9  12
ATOM     12  C   UNL     1      -2.843   4.534  -0.059  0.00  0.00    +0.022 A 
ATOM     13  C   UNL     1      -3.443   3.269  -0.060  0.00  0.00    +0.031 A 
ATOM     14  C   UNL     1      -4.814   3.162  -0.153  0.00  0.00    +0.042 A 
ATOM     15  C   UNL     1      -5.601   4.300  -0.247  0.00  0.00    +0.029 A 
ATOM     16  C   UNL     1      -5.021   5.555  -0.247  0.00  0.00    +0.022 A 
ATOM     17  C   UNL     1      -3.646   5.684  -0.146  0.00  0.00    +0.136 A 
ATOM     18  O   UNL     1      -3.065   6.911  -0.142  0.00  0.00    -0.465 OA
ATOM     19  C   UNL     1      -3.862   8.008  -0.598  0.00  0.00    +0.395 C 
ATOM     20  O   UNL     1      -5.145   7.933   0.035  0.00  0.00    -0.339 OA
ATOM     21  C   UNL     1      -5.896   6.779  -0.355  0.00  0.00    +0.202 C 
ATOM     22 CL   UNL     1      -5.560   1.594  -0.153  0.00  0.00    -0.084 Cl
ENDBRANCH   9  12
BRANCH   2  23
ATOM     23  O   UNL     1       1.303  -1.821  -1.520  0.00  0.00    -0.506 OA
ATOM     24  H   UNL     1       1.295  -2.004  -2.469  0.00  0.00    +0.292 HD
ENDBRANCH   2  23
BRANCH   1  25
ATOM     25  C   UNL     1      -1.227  -0.632  -1.194  0.00  0.00    -0.036 C 
BRANCH  25  33
ATOM     26  C   UNL     1      -2.748   2.283  -4.853  0.00  0.00    +0.005 C 
ATOM     27  C   UNL     1      -2.349   0.858  -4.465  0.00  0.00    -0.031 C 
ATOM     28  C   UNL     1      -3.505  -0.098  -4.773  0.00  0.00    +0.003 C 
ATOM     29  C   UNL     1      -3.120  -1.512  -4.328  0.00  0.00    -0.031 C 
ATOM     30  C   UNL     1      -2.782  -1.497  -2.836  0.00  0.00    -0.075 C 
ATOM     31  C   UNL     1      -2.033   0.804  -2.969  0.00  0.00    -0.075 C 
ATOM     32  C   UNL     1      -1.901  -1.984  -5.123  0.00  0.00    +0.005 C 
ATOM     33  N   UNL     1      -1.647  -0.577  -2.610  0.00  0.00    +0.383 N 
ATOM     34  H   UNL     1      -0.860  -0.868  -3.202  0.00  0.00    -0.081 HD
ENDBRANCH  25  33
ENDBRANCH   1  25
TORSDOF 4
