REMARK  Name = ZINC17057644
REMARK  5 active torsions:
REMARK  status: ('A' for Active; 'I' for Inactive)
REMARK    1  A    between atoms: C_1  and  N_53
REMARK    2  A    between atoms: C_3  and  C_25
REMARK    3  A    between atoms: C_5  and  C_17
REMARK    4  A    between atoms: C_17  and  C_19
REMARK    5  A    between atoms: C_28  and  N_31
REMARK                            x       y       z     vdW  Elec       q    Type
REMARK                         _______ _______ _______ _____ _____    ______ ____
ROOT
ATOM      1  C   UNL     1       0.029   0.018  -0.042  0.00  0.00    -0.094 C 
ATOM      2  C   UNL     1       1.389   2.038   0.004  0.00  0.00    -0.068 C 
ATOM      3  C   UNL     1       1.196   3.467   0.573  0.00  0.00    +0.012 C 
ATOM      4  C   UNL     1       0.083   3.271   1.631  0.00  0.00    +0.068 C 
ATOM      5  C   UNL     1      -0.634   1.982   1.212  0.00  0.00    +0.050 C 
ATOM      6  C   UNL     1      -0.580   0.952   2.308  0.00  0.00    -0.027 A 
ATOM      7  C   UNL     1       0.454   0.317   2.958  0.00  0.00    +0.004 A 
ATOM      8  C   UNL     1       0.183  -0.608   3.951  0.00  0.00    +0.000 A 
ATOM      9  C   UNL     1      -1.127  -0.893   4.288  0.00  0.00    +0.002 A 
ATOM     10  C   UNL     1      -2.167  -0.258   3.639  0.00  0.00    +0.023 A 
ATOM     11  C   UNL     1      -1.903   0.675   2.639  0.00  0.00    +0.036 A 
ATOM     12  N   UNL     1      -2.768   1.438   1.852  0.00  0.00    -0.286 N 
ATOM     13  C   UNL     1      -2.104   2.231   0.990  0.00  0.00    +0.212 C 
ATOM     14  O   UNL     1      -2.594   2.998   0.189  0.00  0.00    -0.277 OA
ATOM     15  H   UNL     1      -3.735   1.400   1.918  0.00  0.00    +0.155 HD
ATOM     16  N   UNL     1       0.019   1.512  -0.005  0.00  0.00    +0.391 N 
ATOM     17  H   UNL     1      -0.482   1.866  -0.828  0.00  0.00    -0.080 HD
ENDROOT
BRANCH   3  18
ATOM     18  C   UNL     1       2.465   3.961   1.219  0.00  0.00    -0.045 A 
ATOM     19  C   UNL     1       3.026   3.256   2.267  0.00  0.00    +0.006 A 
ATOM     20  C   UNL     1       4.192   3.706   2.856  0.00  0.00    +0.033 A 
ATOM     21  C   UNL     1       4.792   4.867   2.404  0.00  0.00    +0.126 A 
ATOM     22  C   UNL     1       4.228   5.574   1.359  0.00  0.00    +0.033 A 
ATOM     23  C   UNL     1       3.064   5.121   0.766  0.00  0.00    +0.006 A 
BRANCH  21  24
ATOM     24  N   UNL     1       6.039   5.351   3.038  0.00  0.00    +0.056 N 
ATOM     25  O   UNL     1       6.567   6.374   2.639  0.00  0.00    -0.126 OA
ATOM     26  O   UNL     1       6.536   4.728   3.958  0.00  0.00    -0.126 OA
ENDBRANCH  21  24
ENDBRANCH   3  18
BRANCH   4  27
ATOM     27  C   UNL     1      -0.872   4.436   1.609  0.00  0.00    +0.166 C 
ATOM     28  O   UNL     1      -1.016   5.083   0.594  0.00  0.00    -0.292 OA
BRANCH  27  29
ATOM     29  C   UNL     1      -1.631   4.788   2.821  0.00  0.00    +0.018 A 
ATOM     30  C   UNL     1      -1.472   4.041   3.992  0.00  0.00    +0.011 A 
ATOM     31  C   UNL     1      -2.181   4.381   5.124  0.00  0.00    +0.001 A 
ATOM     32  C   UNL     1      -3.057   5.452   5.100  0.00  0.00    +0.000 A 
ATOM     33  C   UNL     1      -3.225   6.193   3.943  0.00  0.00    +0.001 A 
ATOM     34  C   UNL     1      -2.518   5.869   2.804  0.00  0.00    +0.011 A 
ENDBRANCH  27  29
ENDBRANCH   4  27
TORSDOF 4
