REMARK  Name = ZINC66122289
REMARK  8 active torsions:
REMARK  status: ('A' for Active; 'I' for Inactive)
REMARK    1  A    between atoms: C_1  and  C_2
REMARK    2  A    between atoms: C_5  and  C_10
REMARK    3  A    between atoms: N_12  and  N_13
REMARK    4  A    between atoms: N_13  and  C_14
REMARK    5  A    between atoms: C_14  and  N_16
REMARK    6  A    between atoms: N_16  and  C_17
REMARK    7  A    between atoms: C_17  and  C_19
REMARK    8  A    between atoms: C_17  and  C_20
REMARK                            x       y       z     vdW  Elec       q    Type
REMARK                         _______ _______ _______ _____ _____    ______ ____
ROOT
ATOM      1  N   UNL     1       0.255  -6.327   1.181  0.00  0.00    -0.246 N 
ATOM      2  H   UNL     1       0.262  -6.826   0.349  0.00  0.00    +0.172 HD
ENDROOT
BRANCH   1   5
ATOM      3  C   UNL     1      -0.044  -4.289  -0.014  0.00  0.00    +0.265 C 
ATOM      4  O   UNL     1      -0.129  -4.922  -1.049  0.00  0.00    -0.268 OA
ATOM      5  N   UNL     1       0.098  -4.935   1.161  0.00  0.00    -0.231 N 
ATOM      6  H   UNL     1       0.091  -4.435   1.992  0.00  0.00    +0.173 HD
BRANCH   3  11
ATOM      7  C   UNL     1      -0.248   1.436  -0.075  0.00  0.00    +0.063 C 
ATOM      8  C   UNL     1      -0.194  -0.070  -0.068  0.00  0.00    +0.016 A 
ATOM      9  C   UNL     1      -0.163  -0.742  -1.247  0.00  0.00    +0.022 A 
ATOM     10  C   UNL     1      -0.113  -2.136  -1.258  0.00  0.00    +0.020 A 
ATOM     11  C   UNL     1      -0.096  -2.820  -0.044  0.00  0.00    +0.102 A 
ATOM     12  C   UNL     1      -0.129  -2.074   1.162  0.00  0.00    +0.261 A 
ATOM     13  O   UNL     1      -0.115  -2.648   2.237  0.00  0.00    -0.267 OA
ATOM     14  N   UNL     1      -0.172  -0.728   1.116  0.00  0.00    -0.326 N 
ATOM     15  H   UNL     1      -0.191  -0.223   1.944  0.00  0.00    +0.169 HD
ENDBRANCH   3  11
ENDBRANCH   1   5
BRANCH   1  16
ATOM     16  C   UNL     1       0.397  -6.972   2.355  0.00  0.00    +0.147 C 
ATOM     17  S   UNL     1       0.589  -8.673   2.380  0.00  0.00    -0.017 S 
BRANCH  16  18
ATOM     18  N   UNL     1       0.387  -6.278   3.511  0.00  0.00    -0.319 N 
ATOM     19  H   UNL     1       0.278  -5.314   3.497  0.00  0.00    +0.148 HD
BRANCH  18  20
ATOM     20  C   UNL     1       0.541  -6.980   4.788  0.00  0.00    +0.101 C 
ATOM     21  C   UNL     1       2.026  -7.073   5.142  0.00  0.00    +0.033 C 
BRANCH  20  22
ATOM     22  C   UNL     1      -0.186  -6.222   5.868  0.00  0.00    -0.009 A 
ATOM     23  C   UNL     1      -0.382  -4.859   5.744  0.00  0.00    +0.008 A 
ATOM     24  C   UNL     1      -1.050  -4.163   6.734  0.00  0.00    +0.020 A 
ATOM     25  C   UNL     1      -1.522  -4.831   7.851  0.00  0.00    +0.042 A 
ATOM     26  C   UNL     1      -1.327  -6.194   7.975  0.00  0.00    +0.040 A 
ATOM     27  C   UNL     1      -0.663  -6.891   6.981  0.00  0.00    +0.047 A 
ATOM     28 CL   UNL     1      -0.423  -8.604   7.133  0.00  0.00    -0.083 Cl
ATOM     29 CL   UNL     1      -2.360  -3.957   9.095  0.00  0.00    -0.083 Cl
ENDBRANCH  20  22
ENDBRANCH  18  20
ENDBRANCH  16  18
ENDBRANCH   1  16
TORSDOF 6
