REMARK  Name = ZINC31634887
REMARK  6 active torsions:
REMARK  status: ('A' for Active; 'I' for Inactive)
REMARK    1  A    between atoms: C_1  and  C_2
REMARK    2  A    between atoms: C_2  and  C_25
REMARK    3  A    between atoms: N_5  and  C_9
REMARK    4  A    between atoms: C_9  and  C_10
REMARK    5  A    between atoms: N_12  and  C_13
REMARK    6  A    between atoms: C_14  and  C_22
REMARK                            x       y       z     vdW  Elec       q    Type
REMARK                         _______ _______ _______ _____ _____    ______ ____
ROOT
ATOM      1  C   UNL     1      -7.940   0.773   3.467  0.00  0.00    +0.214 C 
ENDROOT
BRANCH   1   6
ATOM      2  C   UNL     1      -9.349   0.204   7.914  0.00  0.00    +0.047 C 
ATOM      3  C   UNL     1      -8.133   0.766   7.176  0.00  0.00    +0.136 C 
ATOM      4  C   UNL     1      -7.942   0.060   5.848  0.00  0.00    +0.251 C 
ATOM      5  O   UNL     1      -7.728  -1.121   5.671  0.00  0.00    -0.272 OA
ATOM      6  N   UNL     1      -8.058   1.017   4.906  0.00  0.00    -0.215 N 
ATOM      7  C   UNL     1      -8.300   2.216   5.448  0.00  0.00    +0.310 C 
ATOM      8  O   UNL     1      -8.447   3.233   4.800  0.00  0.00    -0.252 OA
ATOM      9  N   UNL     1      -8.363   2.169   6.791  0.00  0.00    -0.281 N 
ATOM     10  H   UNL     1      -8.539   2.930   7.566  0.00  0.00    +0.152 HD
BRANCH   3  11
ATOM     11  C   UNL     1      -6.896   0.645   8.028  0.00  0.00    +0.003 A 
ATOM     12  C   UNL     1      -6.175   1.776   8.364  0.00  0.00    +0.009 A 
ATOM     13  C   UNL     1      -5.040   1.667   9.145  0.00  0.00    +0.020 A 
ATOM     14  C   UNL     1      -4.624   0.424   9.591  0.00  0.00    +0.042 A 
ATOM     15  C   UNL     1      -5.345  -0.708   9.255  0.00  0.00    +0.040 A 
ATOM     16  C   UNL     1      -6.484  -0.596   8.478  0.00  0.00    +0.048 A 
ATOM     17 CL   UNL     1      -7.393  -2.016   8.062  0.00  0.00    -0.083 Cl
ATOM     18 CL   UNL     1      -3.199   0.287  10.572  0.00  0.00    -0.083 Cl
ENDBRANCH   3  11
ENDBRANCH   1   6
BRANCH   1  19
ATOM     19  C   UNL     1      -6.502   0.938   3.046  0.00  0.00    +0.236 C 
ATOM     20  O   UNL     1      -5.660   1.231   3.867  0.00  0.00    -0.274 OA
ATOM     21  N   UNL     1      -6.153   0.761   1.756  0.00  0.00    -0.278 N 
ATOM     22  H   UNL     1      -6.917   0.496   1.011  0.00  0.00    +0.155 HD
BRANCH  21  23
ATOM     23  C   UNL     1      -4.830   0.913   1.369  0.00  0.00    +0.084 A 
ATOM     24  C   UNL     1      -4.281   0.774   0.102  0.00  0.00    +0.068 A 
ATOM     25  C   UNL     1      -2.851   0.990  -0.038  0.00  0.00    -0.023 A 
ATOM     26  C   UNL     1      -2.203   1.309   1.104  0.00  0.00    -0.004 A 
ATOM     27  S   UNL     1      -3.462   1.324   2.349  0.00  0.00    -0.077 S 
ATOM     28  C   UNL     1      -0.737   1.584   1.267  0.00  0.00    +0.043 C 
ATOM     29  C   UNL     1      -0.013   1.086   0.008  0.00  0.00    +0.005 C 
ATOM     30  C   UNL     1      -0.759   1.596  -1.228  0.00  0.00    +0.005 C 
ATOM     31  C   UNL     1      -2.102   0.875  -1.359  0.00  0.00    +0.037 C 
BRANCH  24  32
ATOM     32  C   UNL     1      -5.113   0.421  -1.053  0.00  0.00    +0.244 C 
ATOM     33  O   UNL     1      -5.285  -0.749  -1.344  0.00  0.00    -0.270 OA
ATOM     34  N   UNL     1      -5.687   1.391  -1.791  0.00  0.00    -0.325 N 
ATOM     35  H   UNL     1      -6.312   1.126  -2.658  0.00  0.00    +0.145 HD
ATOM     36  H   UNL     1      -5.532   2.447  -1.528  0.00  0.00    +0.145 HD
ENDBRANCH  24  32
ENDBRANCH  21  23
ENDBRANCH   1  19
TORSDOF 5
