REMARK  Name = ZINC00848059
REMARK  13 active torsions:
REMARK  status: ('A' for Active; 'I' for Inactive)
REMARK    1  A    between atoms: C_1  and  C_2
REMARK    2  A    between atoms: C_2  and  O_3
REMARK    3  A    between atoms: O_3  and  C_4
REMARK    4  A    between atoms: C_6  and  C_11
REMARK    5  A    between atoms: C_9  and  O_10
REMARK    6  A    between atoms: C_16  and  C_21
REMARK    7  A    between atoms: C_29  and  C_38
REMARK    8  A    between atoms: C_30  and  C_31
REMARK    9  A    between atoms: C_31  and  O_33
REMARK   10  A    between atoms: O_33  and  C_34
REMARK   11  A    between atoms: C_34  and  C_35
REMARK   12  A    between atoms: C_35  and  C_36
REMARK   13  A    between atoms: C_35  and  C_37
REMARK                            x       y       z     vdW  Elec       q    Type
REMARK                         _______ _______ _______ _____ _____    ______ ____
ROOT
ATOM      1  C   UNL     1      -0.700   2.195   3.648  0.00  0.00    +0.092 C 
ATOM      2  C   UNL     1      -2.010   2.873   3.332  0.00  0.00    +0.024 C 
ATOM      3  C   UNL     1      -2.620   2.673   2.145  0.00  0.00    +0.016 C 
ATOM      4  C   UNL     1      -3.937   3.338   1.826  0.00  0.00    +0.059 C 
ATOM      5  C   UNL     1      -4.021   4.684   2.549  0.00  0.00    +0.032 C 
ATOM      6  C   UNL     1      -3.870   4.438   4.054  0.00  0.00    +0.088 C 
ATOM      7  C   UNL     1      -2.573   3.718   4.305  0.00  0.00    +0.162 C 
ATOM      8  O   UNL     1      -2.002   3.868   5.367  0.00  0.00    -0.292 OA
ATOM      9  N   UNL     1      -2.052   1.865   1.199  0.00  0.00    -0.321 N 
ATOM     10  C   UNL     1      -0.722   1.554   1.252  0.00  0.00    +0.016 C 
ATOM     11  C   UNL     1      -0.034   1.701   2.398  0.00  0.00    +0.065 C 
ATOM     12  C   UNL     1      -0.021   1.049   0.018  0.00  0.00    +0.061 C 
ATOM     13  H   UNL     1      -2.667   1.458   0.383  0.00  0.00    +0.152 HD
ENDROOT
BRANCH   5  14
ATOM     14  C   UNL     1      -5.356   5.325   2.272  0.00  0.00    -0.043 A 
ATOM     15  C   UNL     1      -6.522   4.667   2.615  0.00  0.00    +0.005 A 
ATOM     16  C   UNL     1      -7.748   5.256   2.366  0.00  0.00    +0.020 A 
ATOM     17  C   UNL     1      -7.807   6.501   1.764  0.00  0.00    +0.041 A 
ATOM     18  C   UNL     1      -6.639   7.157   1.417  0.00  0.00    +0.020 A 
ATOM     19  C   UNL     1      -5.414   6.568   1.671  0.00  0.00    +0.005 A 
ATOM     20 CL   UNL     1      -9.345   7.239   1.446  0.00  0.00    -0.084 Cl
ENDBRANCH   5  14
BRANCH   1  23
ATOM     21  C   UNL     1      -0.624  -0.068   6.673  0.00  0.00    +0.162 A 
ATOM     22  C   UNL     1      -0.386   1.003   5.825  0.00  0.00    +0.054 A 
ATOM     23  C   UNL     1      -0.956   1.028   4.566  0.00  0.00    -0.032 A 
ATOM     24  C   UNL     1      -1.757  -0.018   4.146  0.00  0.00    +0.008 A 
ATOM     25  C   UNL     1      -1.994  -1.091   4.984  0.00  0.00    +0.049 A 
ATOM     26  C   UNL     1      -1.430  -1.120   6.249  0.00  0.00    +0.158 A 
BRANCH  26  27
ATOM     27  O   UNL     1      -1.662  -2.176   7.074  0.00  0.00    -0.503 OA
ATOM     28  H   UNL     1      -2.299  -3.007   6.738  0.00  0.00    +0.292 HD
ENDBRANCH  26  27
BRANCH  21  29
ATOM     29  O   UNL     1      -0.068  -0.092   7.913  0.00  0.00    -0.489 OA
BRANCH  29  31
ATOM     30  C   UNL     1       1.281   0.819   9.700  0.00  0.00    +0.048 C 
ATOM     31  C   UNL     1       0.747   1.023   8.280  0.00  0.00    +0.226 C 
ENDBRANCH  29  31
ENDBRANCH  21  29
ENDBRANCH   1  23
BRANCH  11  32
ATOM     32  C   UNL     1       1.344   1.385   2.425  0.00  0.00    +0.338 C 
ATOM     33  O   UNL     1       1.920   1.087   1.395  0.00  0.00    -0.245 OA
BRANCH  32  34
ATOM     34  O   UNL     1       2.021   1.413   3.592  0.00  0.00    -0.461 OA
BRANCH  34  35
ATOM     35  C   UNL     1       3.410   1.082   3.545  0.00  0.00    +0.235 C 
BRANCH  35  36
ATOM     36  C   UNL     1       4.002   1.168   4.953  0.00  0.00    +0.020 C 
ATOM     37  C   UNL     1       3.362   0.100   5.842  0.00  0.00    +0.010 C 
ATOM     38  C   UNL     1       5.513   0.935   4.886  0.00  0.00    +0.010 C 
ENDBRANCH  35  36
ENDBRANCH  34  35
ENDBRANCH  32  34
ENDBRANCH  11  32
TORSDOF 9
