REMARK  Name = ZINC35970160
REMARK  8 active torsions:
REMARK  status: ('A' for Active; 'I' for Inactive)
REMARK    1  A    between atoms: C_1  and  C_2
REMARK    2  A    between atoms: C_3  and  C_31
REMARK    3  A    between atoms: C_4  and  C_25
REMARK    4  A    between atoms: C_7  and  C_12
REMARK    5  A    between atoms: C_13  and  N_15
REMARK    6  A    between atoms: C_19  and  C_22
REMARK    7  A    between atoms: C_31  and  O_33
REMARK    8  A    between atoms: O_33  and  C_34
REMARK                            x       y       z     vdW  Elec       q    Type
REMARK                         _______ _______ _______ _____ _____    ______ ____
ROOT
ATOM      1  C   UNL     1       0.116   1.571  -0.213  0.00  0.00    +0.066 C 
ATOM      2  C   UNL     1       0.036   0.067  -0.268  0.00  0.00    +0.053 C 
ATOM      3  C   UNL     1      -1.189  -0.560  -0.143  0.00  0.00    +0.082 C 
ATOM      4  C   UNL     1      -1.218  -2.071  -0.205  0.00  0.00    +0.150 C 
ATOM      5  N   UNL     1       0.083  -2.765  -0.397  0.00  0.00    -0.267 N 
ATOM      6  C   UNL     1       0.294  -4.127  -0.482  0.00  0.00    +0.048 C 
ATOM      7  C   UNL     1       1.563  -4.555  -0.658  0.00  0.00    +0.072 C 
ATOM      8  S   UNL     1       2.467  -3.020  -0.704  0.00  0.00    -0.060 S 
ATOM      9  C   UNL     1       1.183  -1.960  -0.498  0.00  0.00    +0.166 C 
ATOM     10  N   UNL     1       1.138  -0.644  -0.441  0.00  0.00    -0.230 NA
ENDROOT
BRANCH   4  11
ATOM     11  C   UNL     1      -2.128  -2.472  -1.338  0.00  0.00    -0.022 A 
ATOM     12  C   UNL     1      -1.715  -2.309  -2.647  0.00  0.00    +0.006 A 
ATOM     13  C   UNL     1      -2.549  -2.677  -3.686  0.00  0.00    +0.000 A 
ATOM     14  C   UNL     1      -3.796  -3.207  -3.416  0.00  0.00    +0.000 A 
ATOM     15  C   UNL     1      -4.209  -3.371  -2.107  0.00  0.00    +0.000 A 
ATOM     16  C   UNL     1      -3.373  -3.007  -1.068  0.00  0.00    +0.006 A 
ENDBRANCH   4  11
BRANCH   6  17
ATOM     17  C   UNL     1      -0.823  -5.078  -0.385  0.00  0.00    +0.091 C 
ATOM     18  C   UNL     1      -0.578  -6.401  -0.325  0.00  0.00    +0.241 C 
ATOM     19  O   UNL     1       0.696  -6.850  -0.222  0.00  0.00    -0.271 OA
BRANCH  18  20
ATOM     20  N   UNL     1      -1.628  -7.302  -0.369  0.00  0.00    -0.297 N 
ATOM     21  C   UNL     1      -2.937  -6.955   0.203  0.00  0.00    +0.108 C 
ATOM     22  C   UNL     1      -3.347  -8.049   1.194  0.00  0.00    +0.020 C 
ATOM     23  C   UNL     1      -3.308  -9.408   0.492  0.00  0.00    +0.016 C 
ATOM     24  C   UNL     1      -1.883  -9.698   0.015  0.00  0.00    +0.092 C 
ATOM     25  C   UNL     1      -1.458  -8.620  -0.994  0.00  0.00    +0.120 C 
BRANCH  24  26
ATOM     26  C   UNL     1      -1.839 -11.051  -0.647  0.00  0.00    +0.215 C 
ATOM     27  O   UNL     1      -2.870 -11.652  -0.868  0.00  0.00    -0.276 OA
ATOM     28  N   UNL     1      -0.655 -11.594  -0.993  0.00  0.00    -0.329 N 
ATOM     29  H   UNL     1       0.172 -11.147  -0.754  0.00  0.00    +0.145 HD
ATOM     30  H   UNL     1      -0.630 -12.431  -1.482  0.00  0.00    +0.145 HD
ENDBRANCH  24  26
ENDBRANCH  18  20
ENDBRANCH   6  17
BRANCH   3  31
ATOM     31  C   UNL     1      -2.365   0.179   0.035  0.00  0.00    +0.339 C 
ATOM     32  O   UNL     1      -2.319   1.396   0.082  0.00  0.00    -0.245 OA
BRANCH  31  33
ATOM     33  O   UNL     1      -3.551  -0.457   0.154  0.00  0.00    -0.465 OA
ATOM     34  C   UNL     1      -4.710   0.359   0.334  0.00  0.00    +0.280 C 
ENDBRANCH  31  33
ENDBRANCH   3  31
TORSDOF 6
