REMARK  Name = ZINC39359383
REMARK  12 active torsions:
REMARK  status: ('A' for Active; 'I' for Inactive)
REMARK    1  A    between atoms: C_1  and  C_2
REMARK    2  A    between atoms: C_2  and  C_3
REMARK    3  A    between atoms: C_2  and  C_4
REMARK    4  A    between atoms: C_7  and  C_10
REMARK    5  A    between atoms: C_13  and  O_39
REMARK    6  A    between atoms: C_24  and  C_27
REMARK    7  A    between atoms: C_29  and  O_37
REMARK    8  A    between atoms: C_30  and  O_35
REMARK    9  A    between atoms: C_31  and  O_33
REMARK   10  A    between atoms: O_33  and  C_34
REMARK   11  A    between atoms: O_35  and  C_36
REMARK   12  A    between atoms: O_37  and  C_38
REMARK                            x       y       z     vdW  Elec       q    Type
REMARK                         _______ _______ _______ _____ _____    ______ ____
ROOT
ATOM      1  C   UNL     1      -5.419  -2.005   0.043  0.00  0.00    +0.089 C 
ATOM      2  C   UNL     1      -5.411  -3.503   0.012  0.00  0.00    +0.048 C 
ATOM      3  C   UNL     1      -5.576  -4.446   0.914  0.00  0.00    +0.235 C 
ATOM      4  N   UNL     1      -5.602  -5.669   0.317  0.00  0.00    -0.114 NA
ATOM      5  N   UNL     1      -5.423  -5.644  -0.908  0.00  0.00    -0.157 NA
ATOM      6  C   UNL     1      -5.184  -4.255  -1.304  0.00  0.00    +0.245 C 
ATOM      7  N   UNL     1      -6.222  -3.730  -2.195  0.00  0.00    -0.321 N 
ATOM      8  C   UNL     1      -6.480  -2.382  -2.206  0.00  0.00    +0.014 C 
ATOM      9  C   UNL     1      -6.156  -1.536  -1.203  0.00  0.00    +0.023 C 
ATOM     10  C   UNL     1      -6.484  -0.172  -1.258  0.00  0.00    +0.162 C 
ATOM     11  O   UNL     1      -6.168   0.552  -0.335  0.00  0.00    -0.292 OA
ATOM     12  C   UNL     1      -7.218   0.415  -2.432  0.00  0.00    +0.088 C 
ATOM     13  C   UNL     1      -8.081  -0.678  -3.071  0.00  0.00    +0.032 C 
ATOM     14  C   UNL     1      -7.170  -1.854  -3.448  0.00  0.00    +0.059 C 
ATOM     15  H   UNL     1      -6.721  -4.329  -2.771  0.00  0.00    +0.148 HD
ENDROOT
BRANCH   1  19
ATOM     16  C   UNL     1      -1.412  -0.526   0.013  0.00  0.00    -0.045 A 
ATOM     17  C   UNL     1      -2.259  -0.204   1.056  0.00  0.00    +0.004 A 
ATOM     18  C   UNL     1      -3.556  -0.683   1.066  0.00  0.00    +0.005 A 
ATOM     19  C   UNL     1      -4.006  -1.482   0.032  0.00  0.00    -0.035 A 
ATOM     20  C   UNL     1      -3.159  -1.803  -1.012  0.00  0.00    +0.005 A 
ATOM     21  C   UNL     1      -1.863  -1.321  -1.024  0.00  0.00    +0.004 A 
BRANCH  16  23
ATOM     22  C   UNL     1      -0.019   1.526   0.010  0.00  0.00    +0.012 C 
ATOM     23  C   UNL     1       0.002  -0.004   0.002  0.00  0.00    +0.013 C 
ATOM     24  C   UNL     1       0.742  -0.511   1.242  0.00  0.00    +0.012 C 
ENDBRANCH  16  23
ENDBRANCH   1  19
BRANCH  13  25
ATOM     25  C   UNL     1      -8.752  -0.138  -4.307  0.00  0.00    -0.036 A 
ATOM     26  C   UNL     1      -7.986   0.331  -5.358  0.00  0.00    +0.053 A 
ATOM     27  C   UNL     1      -8.599   0.829  -6.498  0.00  0.00    +0.165 A 
ATOM     28  C   UNL     1      -9.986   0.857  -6.582  0.00  0.00    +0.204 A 
ATOM     29  C   UNL     1     -10.753   0.385  -5.523  0.00  0.00    +0.165 A 
ATOM     30  C   UNL     1     -10.131  -0.117  -4.390  0.00  0.00    +0.053 A 
BRANCH  29  31
ATOM     31  O   UNL     1     -12.110   0.410  -5.601  0.00  0.00    -0.491 OA
ATOM     32  C   UNL     1     -12.834  -0.092  -4.476  0.00  0.00    +0.277 C 
ENDBRANCH  29  31
BRANCH  28  33
ATOM     33  O   UNL     1     -10.592   1.346  -7.698  0.00  0.00    -0.488 OA
ATOM     34  C   UNL     1     -10.873   0.414  -8.745  0.00  0.00    +0.277 C 
ENDBRANCH  28  33
BRANCH  27  35
ATOM     35  O   UNL     1      -7.845   1.291  -7.531  0.00  0.00    -0.491 OA
ATOM     36  C   UNL     1      -6.426   1.232  -7.375  0.00  0.00    +0.277 C 
ENDBRANCH  27  35
ENDBRANCH  13  25
BRANCH   3  37
ATOM     37  O   UNL     1      -5.702  -4.230   2.250  0.00  0.00    -0.491 OA
ATOM     38  H   UNL     1      -5.817  -5.037   2.770  0.00  0.00    +0.294 HD
ENDBRANCH   3  37
TORSDOF 7
