REMARK  Name = ZINC13119414
REMARK  17 active torsions:
REMARK  status: ('A' for Active; 'I' for Inactive)
REMARK    1  A    between atoms: C_1  and  C_2
REMARK    2  A    between atoms: C_2  and  C_3
REMARK    3  A    between atoms: C_3  and  C_5
REMARK    4  A    between atoms: C_3  and  N_6
REMARK    5  A    between atoms: N_6  and  C_7
REMARK    6  A    between atoms: C_7  and  N_9
REMARK    7  A    between atoms: N_9  and  C_10
REMARK    8  A    between atoms: N_9  and  C_25
REMARK    9  A    between atoms: C_10  and  C_11
REMARK   10  A    between atoms: C_15  and  C_24
REMARK   11  A    between atoms: C_25  and  C_26
REMARK   12  A    between atoms: C_26  and  C_27
REMARK   13  A    between atoms: C_26  and  C_28
REMARK   14  A    between atoms: C_26  and  N_29
REMARK   15  A    between atoms: N_29  and  C_30
REMARK   16  A    between atoms: C_30  and  C_31
REMARK   17  A    between atoms: C_30  and  C_32
REMARK                            x       y       z     vdW  Elec       q    Type
REMARK                         _______ _______ _______ _____ _____    ______ ____
ROOT
ATOM      1  N   UNL     1       5.359   1.064   2.702  0.00  0.00    -0.310 N 
ENDROOT
BRANCH   1   2
ATOM      2  C   UNL     1       4.080   0.711   2.943  0.00  0.00    +0.133 C 
ATOM      3  S   UNL     1       3.482   0.702   4.547  0.00  0.00    -0.019 S 
BRANCH   2   4
ATOM      4  N   UNL     1       3.273   0.365   1.921  0.00  0.00    -0.324 N 
ATOM      5  H   UNL     1       3.585   0.449   1.006  0.00  0.00    +0.148 HD
BRANCH   4   6
ATOM      6  C   UNL     1       1.924  -0.139   2.191  0.00  0.00    +0.069 C 
ATOM      7  C   UNL     1       2.000  -1.616   2.581  0.00  0.00    +0.028 C 
BRANCH   6   9
ATOM      8  C   UNL     1       0.824   1.500   0.659  0.00  0.00    +0.005 C 
ATOM      9  C   UNL     1       1.062   0.015   0.937  0.00  0.00    +0.018 C 
ENDBRANCH   6   9
ENDBRANCH   4   6
ENDBRANCH   2   4
ENDBRANCH   1   2
BRANCH   1  10
ATOM     10  C   UNL     1       6.271   1.318   3.820  0.00  0.00    +0.145 C 
BRANCH  10  11
ATOM     11  C   UNL     1       6.963   0.036   4.205  0.00  0.00    +0.016 A 
ATOM     12  C   UNL     1       8.185  -0.248   3.699  0.00  0.00    +0.019 A 
ATOM     13  C   UNL     1       8.840  -1.499   4.086  0.00  0.00    +0.001 A 
ATOM     14  C   UNL     1      10.104  -1.836   3.590  0.00  0.00    +0.013 A 
ATOM     15  C   UNL     1      10.690  -3.010   3.970  0.00  0.00    -0.050 A 
ATOM     16  C   UNL     1      10.043  -3.872   4.845  0.00  0.00    +0.005 A 
ATOM     17  C   UNL     1       8.798  -3.560   5.345  0.00  0.00    +0.029 A 
ATOM     18  C   UNL     1       8.181  -2.370   4.973  0.00  0.00    +0.077 A 
ATOM     19  N   UNL     1       6.937  -2.032   5.459  0.00  0.00    -0.192 N 
ATOM     20  C   UNL     1       6.334  -0.862   5.098  0.00  0.00    +0.184 A 
ATOM     21  N   UNL     1       5.169  -0.827   5.729  0.00  0.00    -0.108 NA
ATOM     22  N   UNL     1       5.019  -1.881   6.448  0.00  0.00    -0.022 NA
ATOM     23  N   UNL     1       6.039  -2.661   6.333  0.00  0.00    -0.039 NA
ATOM     24  C   UNL     1      12.052  -3.372   3.435  0.00  0.00    +0.044 C 
ENDBRANCH  10  11
ENDBRANCH   1  10
BRANCH   1  25
ATOM     25  C   UNL     1       5.835   1.194   1.323  0.00  0.00    +0.094 C 
BRANCH  25  26
ATOM     26  C   UNL     1       5.591   2.622   0.831  0.00  0.00    -0.058 C 
ATOM     27  C   UNL     1       6.059   2.749  -0.620  0.00  0.00    -0.009 C 
ATOM     28  C   UNL     1       4.097   2.942   0.915  0.00  0.00    -0.009 C 
BRANCH  26  29
ATOM     29  N   UNL     1       6.341   3.565   1.672  0.00  0.00    +0.385 N 
ATOM     30  H   UNL     1       6.322   3.250   2.630  0.00  0.00    -0.085 HD
ATOM     31  H   UNL     1       7.297   3.613   1.353  0.00  0.00    -0.085 HD
BRANCH  29  32
ATOM     32  C   UNL     1       5.728   4.897   1.582  0.00  0.00    -0.077 C 
ATOM     33  C   UNL     1       6.445   5.854   2.535  0.00  0.00    -0.014 C 
ATOM     34  C   UNL     1       5.848   5.418   0.149  0.00  0.00    -0.014 C 
ENDBRANCH  29  32
ENDBRANCH  26  29
ENDBRANCH  25  26
ENDBRANCH   1  25
TORSDOF 10
