REMARK  Name = ZINC01563400
REMARK  3 active torsions:
REMARK  status: ('A' for Active; 'I' for Inactive)
REMARK    1  A    between atoms: C_1  and  C_2
REMARK    2  A    between atoms: C_3  and  S_14
REMARK    3  A    between atoms: S_14  and  C_15
REMARK                            x       y       z     vdW  Elec       q    Type
REMARK                         _______ _______ _______ _____ _____    ______ ____
ROOT
ATOM      1  C   UNL     1      -0.015   1.502   0.011  0.00  0.00    +0.068 C 
ATOM      2  C   UNL     1       0.001  -0.004   0.002  0.00  0.00    +0.073 A 
ATOM      3  C   UNL     1      -0.009  -0.692  -1.222  0.00  0.00    +0.123 A 
ATOM      4  N   UNL     1       0.010  -2.014  -1.247  0.00  0.00    -0.232 NA
ATOM      5  C   UNL     1       0.028  -2.691  -0.100  0.00  0.00    +0.149 A 
ATOM      6  C   UNL     1       0.043  -4.153  -0.063  0.00  0.00    +0.149 A 
ATOM      7  N   UNL     1       0.061  -4.740   1.126  0.00  0.00    -0.198 NA
ATOM      8  C   UNL     1       0.064  -4.026   2.247  0.00  0.00    +0.216 A 
ATOM      9  N   UNL     1       0.051  -2.708   2.269  0.00  0.00    -0.193 NA
ATOM     10  C   UNL     1       0.032  -1.998   1.134  0.00  0.00    +0.185 A 
ATOM     11  N   UNL     1       0.018  -0.661   1.140  0.00  0.00    -0.228 NA
ATOM     12  N   UNL     1       0.083  -4.701   3.454  0.00  0.00    -0.327 N 
ATOM     13  N   UNL     1       0.040  -4.896  -1.225  0.00  0.00    -0.341 N 
ATOM     14  H   UNL     1       0.086  -4.205   4.287  0.00  0.00    +0.145 HD
ATOM     15  H   UNL     1       0.094  -5.671   3.467  0.00  0.00    +0.145 HD
ATOM     16  H   UNL     1       0.051  -5.865  -1.181  0.00  0.00    +0.144 HD
ATOM     17  H   UNL     1       0.027  -4.450  -2.086  0.00  0.00    +0.144 HD
ENDROOT
BRANCH   3  18
ATOM     18  S   UNL     1      -0.040   0.212  -2.734  0.00  0.00    -0.068 S 
BRANCH  18  19
ATOM     19  C   UNL     1       0.109  -1.030  -3.976  0.00  0.00    +0.014 A 
ATOM     20  C   UNL     1       1.364  -1.484  -4.359  0.00  0.00    +0.016 A 
ATOM     21  C   UNL     1       1.477  -2.461  -5.329  0.00  0.00    +0.021 A 
ATOM     22  C   UNL     1       0.342  -2.979  -5.926  0.00  0.00    +0.041 A 
ATOM     23  C   UNL     1      -0.910  -2.525  -5.550  0.00  0.00    +0.021 A 
ATOM     24  C   UNL     1      -1.030  -1.552  -4.577  0.00  0.00    +0.016 A 
ATOM     25 CL   UNL     1       0.488  -4.203  -7.149  0.00  0.00    -0.084 Cl
ENDBRANCH  18  19
ENDBRANCH   3  18
TORSDOF 2
