REMARK  Name = ZINC17186178
REMARK  5 active torsions:
REMARK  status: ('A' for Active; 'I' for Inactive)
REMARK    1  A    between atoms: C_1  and  C_2
REMARK    2  A    between atoms: C_3  and  C_17
REMARK    3  A    between atoms: N_4  and  C_14
REMARK    4  A    between atoms: N_6  and  C_7
REMARK    5  A    between atoms: C_14  and  C_15
REMARK                            x       y       z     vdW  Elec       q    Type
REMARK                         _______ _______ _______ _____ _____    ______ ____
ROOT
ATOM      1  C   UNL     1       5.113   0.020   0.201  0.00  0.00    +0.054 C 
ATOM      2  C   UNL     1       4.846   1.498   0.075  0.00  0.00    +0.014 A 
ATOM      3  C   UNL     1       3.664   2.141  -0.021  0.00  0.00    +0.061 A 
ATOM      4  N   UNL     1       3.643   3.506  -0.123  0.00  0.00    -0.317 N 
ATOM      5  C   UNL     1       4.838   4.185  -0.131  0.00  0.00    +0.153 A 
ATOM      6  N   UNL     1       5.058   5.483  -0.219  0.00  0.00    -0.336 N 
ATOM      7  S   UNL     1       6.013   2.848   0.010  0.00  0.00    -0.056 S 
ATOM      8  H   UNL     1       4.212   6.186  -0.219  0.00  0.00    +0.168 HD
ENDROOT
BRANCH   3   9
ATOM      9  C   UNL     1       2.398   1.376  -0.009  0.00  0.00    -0.001 A 
ATOM     10  C   UNL     1       2.131   0.479   1.026  0.00  0.00    +0.011 A 
ATOM     11  C   UNL     1       0.949  -0.232   1.031  0.00  0.00    +0.020 A 
ATOM     12  C   UNL     1       0.028  -0.057   0.012  0.00  0.00    +0.041 A 
ATOM     13  C   UNL     1       0.288   0.832  -1.018  0.00  0.00    +0.020 A 
ATOM     14  C   UNL     1       1.466   1.548  -1.034  0.00  0.00    +0.011 A 
ATOM     15 CL   UNL     1      -1.457  -0.955   0.025  0.00  0.00    -0.084 Cl
ENDBRANCH   3   9
BRANCH   6  16
ATOM     16  C   UNL     1       6.338   5.954  -0.312  0.00  0.00    +0.041 A 
ATOM     17  C   UNL     1       7.090   6.177   0.844  0.00  0.00    +0.025 A 
ATOM     18  C   UNL     1       8.383   6.647   0.743  0.00  0.00    +0.002 A 
ATOM     19  C   UNL     1       8.931   6.909  -0.500  0.00  0.00    +0.000 A 
ATOM     20  C   UNL     1       8.191   6.696  -1.650  0.00  0.00    +0.002 A 
ATOM     21  C   UNL     1       6.899   6.221  -1.564  0.00  0.00    +0.025 A 
ENDBRANCH   6  16
BRANCH   4  22
ATOM     22  C   UNL     1       2.372   4.228  -0.222  0.00  0.00    +0.151 C 
BRANCH  22  23
ATOM     23  C   UNL     1       1.941   4.678   1.150  0.00  0.00    -0.013 C 
ATOM     24  C   UNL     1       1.684   5.943   1.373  0.00  0.00    +0.005 C 
ENDBRANCH  22  23
ENDBRANCH   4  22
TORSDOF 4
