REMARK  Name = ZINC07874448
REMARK  8 active torsions:
REMARK  status: ('A' for Active; 'I' for Inactive)
REMARK    1  A    between atoms: C_1  and  C_2
REMARK    2  A    between atoms: C_3  and  C_16
REMARK    3  A    between atoms: C_4  and  C_15
REMARK    4  A    between atoms: N_5  and  C_7
REMARK    5  A    between atoms: C_16  and  N_57
REMARK    6  A    between atoms: C_17  and  N_57
REMARK    7  A    between atoms: C_18  and  C_19
REMARK    8  A    between atoms: C_18  and  N_57
REMARK                            x       y       z     vdW  Elec       q    Type
REMARK                         _______ _______ _______ _____ _____    ______ ____
ROOT
ATOM      1  C   UNL     1      -0.013   1.086   0.008  0.00  0.00    -0.039 C 
ENDROOT
BRANCH   1   4
ATOM      2  C   UNL     1       0.538   3.816  -1.504  0.00  0.00    +0.068 C 
ATOM      3  C   UNL     1      -0.499   2.790  -1.881  0.00  0.00    +0.062 A 
ATOM      4  C   UNL     1      -0.742   1.585  -1.213  0.00  0.00    -0.021 A 
ATOM      5  C   UNL     1      -1.742   0.944  -1.860  0.00  0.00    +0.038 A 
ATOM      6  N   UNL     1      -2.126   1.720  -2.896  0.00  0.00    -0.263 N 
ATOM      7  N   UNL     1      -1.328   2.872  -2.890  0.00  0.00    -0.176 NA
ATOM      8  C   UNL     1      -2.327  -0.394  -1.489  0.00  0.00    +0.065 C 
BRANCH   6   9
ATOM      9  C   UNL     1      -3.185   1.410  -3.859  0.00  0.00    +0.130 C 
ATOM     10  C   UNL     1      -4.268   2.501  -3.809  0.00  0.00    +0.051 C 
ATOM     11  C   UNL     1      -5.214   2.361  -5.026  0.00  0.00    +0.168 C 
ATOM     12  S   UNL     1      -4.127   1.594  -6.296  0.00  0.00    -0.029 S 
ATOM     13  O   UNL     1      -4.643   0.313  -6.633  0.00  0.00    -0.174 OA
ATOM     14  O   UNL     1      -3.881   2.541  -7.326  0.00  0.00    -0.174 OA
ATOM     15  C   UNL     1      -2.594   1.380  -5.298  0.00  0.00    +0.192 C 
ENDBRANCH   6   9
ENDBRANCH   1   4
BRANCH   1  17
ATOM     16  C   UNL     1      -0.615   3.022   1.332  0.00  0.00    -0.095 C 
ATOM     17  N   UNL     1      -0.728   1.552   1.214  0.00  0.00    +0.386 N 
ATOM     18  H   UNL     1      -1.720   1.300   1.133  0.00  0.00    -0.081 HD
BRANCH  17  19
ATOM     19  C   UNL     1      -0.165   0.904   2.418  0.00  0.00    +0.019 C 
BRANCH  19  20
ATOM     20  C   UNL     1      -1.046   1.223   3.598  0.00  0.00    +0.203 C 
ATOM     21  O   UNL     1      -2.023   1.927   3.453  0.00  0.00    -0.277 OA
ATOM     22  N   UNL     1      -0.748   0.726   4.815  0.00  0.00    -0.272 N 
ATOM     23  C   UNL     1      -1.522   0.970   6.035  0.00  0.00    +0.118 C 
ATOM     24  C   UNL     1      -0.788   0.194   7.141  0.00  0.00    +0.056 C 
ATOM     25  C   UNL     1       0.391  -0.443   6.440  0.00  0.00    -0.024 A 
ATOM     26  C   UNL     1       0.350  -0.092   5.100  0.00  0.00    +0.039 A 
ATOM     27  C   UNL     1       1.346  -0.566   4.244  0.00  0.00    +0.024 A 
ATOM     28  C   UNL     1       2.354  -1.372   4.730  0.00  0.00    +0.002 A 
ATOM     29  C   UNL     1       2.386  -1.716   6.068  0.00  0.00    +0.000 A 
ATOM     30  C   UNL     1       1.403  -1.250   6.922  0.00  0.00    +0.005 A 
ENDBRANCH  19  20
ENDBRANCH  17  19
ENDBRANCH   1  17
TORSDOF 5
