REMARK  Name = ZINC64890992
REMARK  9 active torsions:
REMARK  status: ('A' for Active; 'I' for Inactive)
REMARK    1  A    between atoms: C_1  and  C_2
REMARK    2  A    between atoms: C_2  and  C_3
REMARK    3  A    between atoms: C_2  and  C_4
REMARK    4  A    between atoms: C_4  and  C_6
REMARK    5  A    between atoms: C_4  and  N_25
REMARK    6  A    between atoms: C_9  and  C_13
REMARK    7  A    between atoms: N_23  and  C_24
REMARK    8  A    between atoms: N_25  and  S_26
REMARK    9  A    between atoms: S_26  and  C_29
REMARK                            x       y       z     vdW  Elec       q    Type
REMARK                         _______ _______ _______ _____ _____    ______ ____
ROOT
ATOM      1  C   UNL     1       2.240   0.120   1.105  0.00  0.00    +0.230 C 
ATOM      2  N   UNL     1       3.136  -0.532   2.087  0.00  0.00    -0.268 NA
ATOM      3  C   UNL     1       3.975   0.582   2.606  0.00  0.00    +0.180 C 
ATOM      4  N   UNL     1       3.009   1.712   2.646  0.00  0.00    -0.178 NA
ATOM      5  O   UNL     1       2.165   1.512   1.451  0.00  0.00    -0.278 OA
ATOM      6  H   UNL     1       2.606  -0.962   2.830  0.00  0.00    +0.126 HD
ATOM      7  H   UNL     1       3.488   2.599   2.605  0.00  0.00    +0.156 HD
ENDROOT
BRANCH   3   8
ATOM      8  C   UNL     1       4.494   0.265   3.985  0.00  0.00    -0.012 A 
ATOM      9  C   UNL     1       4.732  -1.050   4.346  0.00  0.00    +0.009 A 
ATOM     10  C   UNL     1       5.208  -1.351   5.607  0.00  0.00    +0.028 A 
ATOM     11  C   UNL     1       5.447  -0.331   6.516  0.00  0.00    +0.069 A 
ATOM     12  C   UNL     1       5.206   0.995   6.152  0.00  0.00    +0.067 A 
ATOM     13  C   UNL     1       4.734   1.288   4.881  0.00  0.00    +0.034 A 
ATOM     14  N   UNL     1       5.535   1.781   7.254  0.00  0.00    -0.306 N 
ATOM     15  H   UNL     1       5.471   2.748   7.301  0.00  0.00    +0.170 HD
ATOM     16  C   UNL     1       5.956   0.971   8.242  0.00  0.00    +0.327 A 
ATOM     17  O   UNL     1       6.319   1.339   9.344  0.00  0.00    -0.247 OA
ATOM     18  N   UNL     1       5.914  -0.310   7.828  0.00  0.00    -0.295 N 
ATOM     19  C   UNL     1       6.296  -1.481   8.621  0.00  0.00    +0.154 C 
ENDBRANCH   3   8
BRANCH   1  20
ATOM     20  C   UNL     1       0.848  -0.509   1.173  0.00  0.00    +0.125 C 
BRANCH  20  22
ATOM     21  C   UNL     1      -0.267   1.585   0.389  0.00  0.00    +0.009 C 
ATOM     22  C   UNL     1      -0.042   0.102   0.088  0.00  0.00    +0.005 C 
ATOM     23  C   UNL     1       0.641  -0.044  -1.273  0.00  0.00    +0.009 C 
ENDBRANCH  20  22
BRANCH  20  24
ATOM     24  N   UNL     1       0.954  -1.955   0.960  0.00  0.00    -0.183 NA
ATOM     25  H   UNL     1       1.618  -2.307   0.348  0.00  0.00    +0.148 HD
BRANCH  24  26
ATOM     26  S   UNL     1      -0.060  -2.987   1.765  0.00  0.00    +0.059 S 
ATOM     27  O   UNL     1       0.269  -4.300   1.332  0.00  0.00    -0.153 OA
ATOM     28  O   UNL     1      -0.025  -2.605   3.134  0.00  0.00    -0.153 OA
BRANCH  26  29
ATOM     29  C   UNL     1      -1.695  -2.663   1.194  0.00  0.00    +0.105 A 
ATOM     30  C   UNL     1      -2.476  -1.717   1.832  0.00  0.00    +0.028 A 
ATOM     31  C   UNL     1      -3.758  -1.463   1.383  0.00  0.00    +0.002 A 
ATOM     32  C   UNL     1      -4.260  -2.154   0.296  0.00  0.00    +0.000 A 
ATOM     33  C   UNL     1      -3.479  -3.099  -0.343  0.00  0.00    +0.002 A 
ATOM     34  C   UNL     1      -2.195  -3.350   0.103  0.00  0.00    +0.028 A 
ENDBRANCH  26  29
ENDBRANCH  24  26
ENDBRANCH  20  24
ENDBRANCH   1  20
TORSDOF 6
