REMARK  Name = ZINC14023417
REMARK  8 active torsions:
REMARK  status: ('A' for Active; 'I' for Inactive)
REMARK    1  A    between atoms: C_1  and  N_60
REMARK    2  A    between atoms: C_2  and  N_60
REMARK    3  A    between atoms: C_3  and  C_4
REMARK    4  A    between atoms: C_3  and  N_60
REMARK    5  A    between atoms: C_4  and  N_5
REMARK    6  A    between atoms: C_15  and  C_17
REMARK    7  A    between atoms: N_22  and  S_24
REMARK    8  A    between atoms: S_24  and  C_27
REMARK                            x       y       z     vdW  Elec       q    Type
REMARK                         _______ _______ _______ _____ _____    ______ ____
ROOT
ATOM      1  N   UNL     1      -2.605  -3.544   4.347  0.00  0.00    -0.252 N 
ATOM      2  C   UNL     1      -1.593  -4.489   4.295  0.00  0.00    +0.168 A 
ATOM      3  N   UNL     1      -0.450  -4.436   3.651  0.00  0.00    -0.224 NA
ATOM      4  C   UNL     1       0.451  -5.441   3.689  0.00  0.00    +0.080 A 
ATOM      5  C   UNL     1       1.710  -5.511   3.047  0.00  0.00    +0.029 A 
ATOM      6  C   UNL     1       2.510  -6.614   3.192  0.00  0.00    +0.002 A 
ATOM      7  C   UNL     1       2.119  -7.696   3.968  0.00  0.00    +0.001 A 
ATOM      8  C   UNL     1       0.895  -7.662   4.610  0.00  0.00    +0.017 A 
ATOM      9  C   UNL     1       0.087  -6.561   4.471  0.00  0.00    +0.041 A 
ATOM     10  S   UNL     1      -1.508  -6.086   5.092  0.00  0.00    -0.052 S 
ATOM     11  C   UNL     1      -2.536  -2.439   3.578  0.00  0.00    +0.226 C 
ATOM     12  O   UNL     1      -3.379  -1.574   3.682  0.00  0.00    -0.275 OA
ENDROOT
BRANCH  11  13
ATOM     13  C   UNL     1      -1.411  -2.280   2.587  0.00  0.00    +0.091 C 
ATOM     14  C   UNL     1      -0.154  -1.798   3.315  0.00  0.00    +0.015 C 
ATOM     15  C   UNL     1       0.997  -1.667   2.316  0.00  0.00    +0.018 C 
ATOM     16  C   UNL     1       0.629  -0.635   1.250  0.00  0.00    +0.109 C 
ATOM     17  N   UNL     1      -0.656  -1.010   0.645  0.00  0.00    -0.176 NA
ATOM     18  C   UNL     1      -1.808  -1.250   1.525  0.00  0.00    +0.122 C 
BRANCH  17  19
ATOM     19  S   UNL     1      -0.801  -1.167  -0.997  0.00  0.00    +0.061 S 
ATOM     20  O   UNL     1      -1.897  -2.042  -1.226  0.00  0.00    -0.153 OA
ATOM     21  O   UNL     1       0.503  -1.431  -1.497  0.00  0.00    -0.153 OA
BRANCH  19  22
ATOM     22  C   UNL     1      -1.274   0.408  -1.631  0.00  0.00    +0.106 A 
ATOM     23  C   UNL     1      -2.613   0.729  -1.754  0.00  0.00    +0.031 A 
ATOM     24  C   UNL     1      -2.985   1.966  -2.246  0.00  0.00    +0.040 A 
ATOM     25  C   UNL     1      -2.016   2.879  -2.626  0.00  0.00    +0.124 A 
ATOM     26  C   UNL     1      -0.675   2.554  -2.507  0.00  0.00    +0.040 A 
ATOM     27  C   UNL     1      -0.305   1.319  -2.009  0.00  0.00    +0.031 A 
ATOM     28  F   UNL     1      -2.378   4.086  -3.112  0.00  0.00    -0.205 F 
ENDBRANCH  19  22
ENDBRANCH  17  19
ENDBRANCH  11  13
BRANCH   1  29
ATOM     29  C   UNL     1      -3.749  -3.745   5.239  0.00  0.00    +0.097 C 
BRANCH  29  30
ATOM     30  C   UNL     1      -4.804  -4.597   4.532  0.00  0.00    -0.060 C 
BRANCH  30  33
ATOM     31  C   UNL     1      -7.119  -5.299   4.637  0.00  0.00    -0.097 C 
ATOM     32  C   UNL     1      -5.721  -5.439   6.609  0.00  0.00    -0.097 C 
ATOM     33  N   UNL     1      -6.011  -4.666   5.382  0.00  0.00    +0.377 N 
ATOM     34  H   UNL     1      -6.287  -3.713   5.646  0.00  0.00    -0.083 HD
ENDBRANCH  30  33
ENDBRANCH  29  30
ENDBRANCH   1  29
TORSDOF 6
