REMARK  Name = ZINC38887332
REMARK  11 active torsions:
REMARK  status: ('A' for Active; 'I' for Inactive)
REMARK    1  A    between atoms: C_1  and  C_2
REMARK    2  A    between atoms: C_7  and  C_8
REMARK    3  A    between atoms: C_10  and  C_13
REMARK    4  A    between atoms: C_13  and  N_14
REMARK    5  A    between atoms: C_18  and  C_21
REMARK    6  A    between atoms: N_23  and  C_24
REMARK    7  A    between atoms: C_24  and  C_26
REMARK    8  A    between atoms: C_24  and  C_30
REMARK    9  A    between atoms: C_26  and  C_27
REMARK   10  A    between atoms: C_27  and  C_28
REMARK   11  A    between atoms: C_27  and  C_29
REMARK                            x       y       z     vdW  Elec       q    Type
REMARK                         _______ _______ _______ _____ _____    ______ ____
ROOT
ATOM      1  N   UNL     1       2.036   0.577   6.305  0.00  0.00    +0.386 N 
ATOM      2  C   UNL     1       2.738  -0.556   5.691  0.00  0.00    -0.078 C 
ATOM      3  C   UNL     1       4.242  -0.424   5.939  0.00  0.00    -0.018 C 
ATOM      4  C   UNL     1       4.506  -0.415   7.447  0.00  0.00    +0.009 C 
ATOM      5  C   UNL     1       3.710   0.725   8.088  0.00  0.00    +0.058 C 
ATOM      6  C   UNL     1       2.226   0.550   7.761  0.00  0.00    -0.065 C 
ATOM      7  H   UNL     1       2.404   1.440   5.935  0.00  0.00    -0.081 HD
ENDROOT
BRANCH   5   8
ATOM      8  C   UNL     1       3.903   0.696   9.582  0.00  0.00    +0.215 C 
ATOM      9  O   UNL     1       2.947   0.553  10.315  0.00  0.00    -0.276 OA
ATOM     10  N   UNL     1       5.139   0.828  10.105  0.00  0.00    -0.308 N 
ATOM     11  H   UNL     1       5.903   0.942   9.519  0.00  0.00    +0.149 HD
BRANCH  10  12
ATOM     12  C   UNL     1       5.327   0.799  11.557  0.00  0.00    +0.103 C 
BRANCH  12  13
ATOM     13  C   UNL     1       6.586   1.546  11.916  0.00  0.00    -0.027 A 
ATOM     14  C   UNL     1       7.712   1.421  11.124  0.00  0.00    +0.005 A 
ATOM     15  C   UNL     1       8.867   2.106  11.453  0.00  0.00    +0.000 A 
ATOM     16  C   UNL     1       8.896   2.916  12.573  0.00  0.00    +0.000 A 
ATOM     17  C   UNL     1       7.769   3.041  13.364  0.00  0.00    +0.000 A 
ATOM     18  C   UNL     1       6.613   2.360  13.033  0.00  0.00    +0.005 A 
ENDBRANCH  12  13
BRANCH  12  19
ATOM     19  C   UNL     1       5.442  -0.652  12.028  0.00  0.00    +0.030 C 
BRANCH  19  20
ATOM     20  C   UNL     1       4.119  -1.377  11.777  0.00  0.00    -0.015 C 
ATOM     21  C   UNL     1       4.273  -2.857  12.132  0.00  0.00    +0.007 C 
ATOM     22  C   UNL     1       3.024  -0.755  12.647  0.00  0.00    +0.007 C 
ENDBRANCH  19  20
ENDBRANCH  12  19
ENDBRANCH  10  12
ENDBRANCH   5   8
BRANCH   1  23
ATOM     23  C   UNL     1       0.602   0.487   5.998  0.00  0.00    +0.022 C 
BRANCH  23  26
ATOM     24  C   UNL     1       0.174   0.157   2.410  0.00  0.00    +0.202 A 
ATOM     25  N   UNL     1       0.382  -0.333   3.645  0.00  0.00    -0.193 NA
ATOM     26  C   UNL     1       0.396   0.637   4.513  0.00  0.00    +0.211 A 
ATOM     27  O   UNL     1       0.195   1.792   3.864  0.00  0.00    -0.340 OA
ATOM     28  N   UNL     1       0.058   1.460   2.490  0.00  0.00    -0.056 NA
BRANCH  24  35
ATOM     29  C   UNL     1      -1.965   0.648   0.524  0.00  0.00    +0.044 C 
ATOM     30  C   UNL     1      -0.932  -0.414   0.248  0.00  0.00    -0.040 A 
ATOM     31  C   UNL     1      -0.997  -1.157  -0.913  0.00  0.00    +0.004 A 
ATOM     32  C   UNL     1      -0.050  -2.132  -1.167  0.00  0.00    +0.000 A 
ATOM     33  C   UNL     1       0.968  -2.368  -0.260  0.00  0.00    +0.001 A 
ATOM     34  C   UNL     1       1.043  -1.631   0.904  0.00  0.00    +0.012 A 
ATOM     35  C   UNL     1       0.095  -0.643   1.162  0.00  0.00    +0.025 A 
ENDBRANCH  24  35
ENDBRANCH  23  26
ENDBRANCH   1  23
TORSDOF 8
