REMARK  Name = ZINC01065093
REMARK  11 active torsions:
REMARK  status: ('A' for Active; 'I' for Inactive)
REMARK    1  A    between atoms: C_1  and  C_2
REMARK    2  A    between atoms: C_2  and  O_3
REMARK    3  A    between atoms: O_3  and  C_4
REMARK    4  A    between atoms: C_4  and  C_6
REMARK    5  A    between atoms: C_7  and  N_37
REMARK    6  A    between atoms: N_8  and  C_27
REMARK    7  A    between atoms: C_11  and  C_13
REMARK    8  A    between atoms: C_23  and  C_25
REMARK    9  A    between atoms: C_23  and  C_26
REMARK   10  A    between atoms: C_30  and  S_33
REMARK   11  A    between atoms: S_33  and  N_36
REMARK                            x       y       z     vdW  Elec       q    Type
REMARK                         _______ _______ _______ _____ _____    ______ ____
ROOT
ATOM      1  C   UNL     1       3.469  -0.864   0.714  0.00  0.00    +0.084 C 
ATOM      2  C   UNL     1       2.533  -0.322  -0.112  0.00  0.00    +0.103 C 
ATOM      3  N   UNL     1       2.608   1.005  -0.462  0.00  0.00    -0.261 N 
ATOM      4  C   UNL     1       3.788   1.692  -0.341  0.00  0.00    +0.025 C 
ATOM      5  C   UNL     1       4.769   1.236   0.469  0.00  0.00    +0.025 C 
ATOM      6  C   UNL     1       4.591  -0.033   1.264  0.00  0.00    +0.094 C 
ATOM      7  C   UNL     1       5.987   1.927   0.591  0.00  0.00    +0.162 C 
ATOM      8  O   UNL     1       6.848   1.492   1.330  0.00  0.00    -0.292 OA
ATOM      9  C   UNL     1       6.250   3.190  -0.192  0.00  0.00    +0.086 C 
ATOM     10  C   UNL     1       5.432   3.159  -1.488  0.00  0.00    -0.023 C 
ATOM     11  C   UNL     1       3.957   2.970  -1.126  0.00  0.00    +0.058 C 
ATOM     12  C   UNL     1       5.900   1.995  -2.364  0.00  0.00    +0.011 C 
ATOM     13  C   UNL     1       5.610   4.477  -2.245  0.00  0.00    +0.011 C 
ENDROOT
BRANCH   6  14
ATOM     14  C   UNL     1       4.288   0.320   2.697  0.00  0.00    -0.035 A 
ATOM     15  C   UNL     1       3.152   1.045   3.004  0.00  0.00    +0.007 A 
ATOM     16  C   UNL     1       2.871   1.365   4.319  0.00  0.00    +0.038 A 
ATOM     17  C   UNL     1       3.733   0.968   5.327  0.00  0.00    +0.123 A 
ATOM     18  C   UNL     1       4.872   0.245   5.018  0.00  0.00    +0.038 A 
ATOM     19  C   UNL     1       5.149  -0.078   3.703  0.00  0.00    +0.007 A 
ATOM     20  F   UNL     1       3.461   1.284   6.612  0.00  0.00    -0.205 F 
ENDBRANCH   6  14
BRANCH   3  21
ATOM     21  C   UNL     1       1.471   1.659  -0.950  0.00  0.00    +0.040 A 
ATOM     22  C   UNL     1       0.829   2.614  -0.172  0.00  0.00    +0.026 A 
ATOM     23  C   UNL     1      -0.295   3.255  -0.656  0.00  0.00    +0.030 A 
ATOM     24  C   UNL     1      -0.776   2.953  -1.917  0.00  0.00    +0.105 A 
ATOM     25  C   UNL     1      -0.139   2.003  -2.694  0.00  0.00    +0.030 A 
ATOM     26  C   UNL     1       0.983   1.355  -2.215  0.00  0.00    +0.026 A 
BRANCH  24  27
ATOM     27  S   UNL     1      -2.207   3.777  -2.532  0.00  0.00    +0.056 S 
ATOM     28  O   UNL     1      -2.297   5.011  -1.834  0.00  0.00    -0.153 OA
ATOM     29  O   UNL     1      -2.138   3.707  -3.950  0.00  0.00    -0.153 OA
BRANCH  27  30
ATOM     30  N   UNL     1      -3.522   2.879  -2.078  0.00  0.00    -0.204 NA
ATOM     31  H   UNL     1      -4.373   3.314  -1.915  0.00  0.00    +0.144 HD
ATOM     32  H   UNL     1      -3.441   1.918  -1.973  0.00  0.00    +0.144 HD
ENDBRANCH  27  30
ENDBRANCH  24  27
ENDBRANCH   3  21
BRANCH   2  33
ATOM     33  N   UNL     1       1.513  -1.100  -0.595  0.00  0.00    -0.346 N 
ATOM     34  H   UNL     1       1.683  -2.021  -0.848  0.00  0.00    +0.143 HD
ATOM     35  H   UNL     1       0.620  -0.730  -0.684  0.00  0.00    +0.143 HD
ENDBRANCH   2  33
BRANCH   1  36
ATOM     36  C   UNL     1       3.385  -2.222   1.055  0.00  0.00    +0.339 C 
ATOM     37  O   UNL     1       2.419  -2.878   0.709  0.00  0.00    -0.245 OA
BRANCH  36  38
ATOM     38  O   UNL     1       4.374  -2.801   1.769  0.00  0.00    -0.462 OA
BRANCH  38  40
ATOM     39  C   UNL     1       5.432  -4.664   2.888  0.00  0.00    +0.048 C 
ATOM     40  C   UNL     1       4.222  -4.187   2.082  0.00  0.00    +0.229 C 
ENDBRANCH  38  40
ENDBRANCH  36  38
ENDBRANCH   1  36
TORSDOF 8
