REMARK  Name = ZINC14752322
REMARK  8 active torsions:
REMARK  status: ('A' for Active; 'I' for Inactive)
REMARK    1  A    between atoms: C_1  and  C_2
REMARK    2  A    between atoms: C_7  and  C_13
REMARK    3  A    between atoms: C_13  and  N_53
REMARK    4  A    between atoms: C_17  and  C_19
REMARK    5  A    between atoms: C_21  and  O_27
REMARK    6  A    between atoms: C_24  and  O_25
REMARK    7  A    between atoms: O_25  and  C_26
REMARK    8  A    between atoms: O_27  and  C_28
REMARK                            x       y       z     vdW  Elec       q    Type
REMARK                         _______ _______ _______ _____ _____    ______ ____
ROOT
ATOM      1  C   UNL     1      -4.685   2.998   5.754  0.00  0.00    -0.077 C 
ATOM      2  C   UNL     1      -5.597   3.750   4.761  0.00  0.00    -0.020 C 
ATOM      3  C   UNL     1      -5.652   2.851   3.509  0.00  0.00    -0.012 C 
ATOM      4  C   UNL     1      -4.769   1.632   3.850  0.00  0.00    -0.034 C 
ATOM      5  N   UNL     1      -3.872   2.137   4.887  0.00  0.00    +0.388 N 
ATOM      6  H   UNL     1      -3.115   2.683   4.460  0.00  0.00    -0.080 HD
ENDROOT
BRANCH   4   7
ATOM      7  C   UNL     1      -3.999   1.184   2.634  0.00  0.00    -0.016 A 
ATOM      8  C   UNL     1      -2.684   1.575   2.467  0.00  0.00    +0.051 A 
ATOM      9  C   UNL     1      -1.976   1.163   1.348  0.00  0.00    +0.121 A 
ATOM     10  C   UNL     1      -2.589   0.364   0.394  0.00  0.00    +0.049 A 
ATOM     11  C   UNL     1      -3.901  -0.031   0.564  0.00  0.00    +0.049 A 
ATOM     12  C   UNL     1      -4.610   0.381   1.683  0.00  0.00    +0.122 A 
BRANCH  12  13
ATOM     13  O   UNL     1      -5.904  -0.002   1.848  0.00  0.00    -0.495 OA
ATOM     14  C   UNL     1      -6.470  -0.830   0.829  0.00  0.00    +0.277 C 
ENDBRANCH  12  13
BRANCH   9  15
ATOM     15  O   UNL     1      -0.682   1.547   1.184  0.00  0.00    -0.495 OA
ATOM     16  C   UNL     1      -0.013   1.086   0.008  0.00  0.00    +0.277 C 
ENDBRANCH   9  15
ENDBRANCH   4   7
BRANCH   5  17
ATOM     17  C   UNL     1      -3.281   1.010   5.675  0.00  0.00    -0.021 C 
BRANCH  17  24
ATOM     18  C   UNL     1       3.122   3.914   9.177  0.00  0.00    +0.045 C 
ATOM     19  C   UNL     1       1.997   3.401   8.316  0.00  0.00    -0.034 A 
ATOM     20  C   UNL     1       2.114   3.435   6.919  0.00  0.00    +0.008 A 
ATOM     21  C   UNL     1       1.092   2.969   6.147  0.00  0.00    +0.047 A 
ATOM     22  C   UNL     1      -0.065   2.460   6.765  0.00  0.00    +0.140 A 
ATOM     23  N   UNL     1      -1.065   2.003   6.013  0.00  0.00    -0.236 NA
ATOM     24  C   UNL     1      -2.169   1.517   6.556  0.00  0.00    +0.032 A 
ATOM     25  C   UNL     1      -2.306   1.480   7.930  0.00  0.00    +0.092 A 
ATOM     26  C   UNL     1      -1.257   1.952   8.728  0.00  0.00    +0.258 A 
ATOM     27  O   UNL     1      -1.344   1.927   9.945  0.00  0.00    -0.267 OA
ATOM     28  N   UNL     1      -0.149   2.439   8.130  0.00  0.00    -0.268 N 
ATOM     29  C   UNL     1       0.877   2.908   8.892  0.00  0.00    +0.099 A 
ENDBRANCH  17  24
ENDBRANCH   5  17
TORSDOF 5
