REMARK  Name = ZINC54408167
REMARK  10 active torsions:
REMARK  status: ('A' for Active; 'I' for Inactive)
REMARK    1  A    between atoms: C_1  and  C_2
REMARK    2  A    between atoms: C_5  and  C_30
REMARK    3  A    between atoms: N_8  and  C_10
REMARK    4  A    between atoms: C_10  and  C_11
REMARK    5  A    between atoms: C_10  and  C_12
REMARK    6  A    between atoms: C_10  and  C_13
REMARK    7  A    between atoms: C_13  and  N_14
REMARK    8  A    between atoms: N_17  and  C_18
REMARK    9  A    between atoms: C_23  and  C_24
REMARK   10  A    between atoms: C_24  and  N_25
REMARK                            x       y       z     vdW  Elec       q    Type
REMARK                         _______ _______ _______ _____ _____    ______ ____
ROOT
ATOM      1  N   UNL     1       3.469  -2.372   0.896  0.00  0.00    -0.300 N 
ATOM      2  C   UNL     1       4.764  -2.184   0.573  0.00  0.00    +0.304 C 
ATOM      3  O   UNL     1       5.529  -1.702   1.386  0.00  0.00    -0.253 OA
ATOM      4  N   UNL     1       5.210  -2.529  -0.651  0.00  0.00    -0.269 N 
ATOM      5  H   UNL     1       2.858  -2.756   0.247  0.00  0.00    +0.150 HD
ATOM      6  H   UNL     1       4.620  -2.982  -1.272  0.00  0.00    +0.156 HD
ENDROOT
BRANCH   4   7
ATOM      7  C   UNL     1       6.526  -2.232  -1.025  0.00  0.00    +0.040 A 
ATOM      8  C   UNL     1       7.206  -1.189  -0.409  0.00  0.00    +0.024 A 
ATOM      9  C   UNL     1       8.504  -0.898  -0.780  0.00  0.00    +0.002 A 
ATOM     10  C   UNL     1       9.127  -1.645  -1.764  0.00  0.00    +0.000 A 
ATOM     11  C   UNL     1       8.453  -2.683  -2.379  0.00  0.00    +0.007 A 
ATOM     12  C   UNL     1       7.156  -2.982  -2.008  0.00  0.00    -0.005 A 
BRANCH  12  13
ATOM     13  C   UNL     1       6.424  -4.119  -2.675  0.00  0.00    +0.180 C 
BRANCH  13  14
ATOM     14  N   UNL     1       5.621  -3.598  -3.784  0.00  0.00    -0.267 N 
ATOM     15  C   UNL     1       5.672  -4.018  -5.066  0.00  0.00    +0.108 A 
ATOM     16  C   UNL     1       4.779  -3.288  -5.774  0.00  0.00    +0.041 A 
ATOM     17  C   UNL     1       4.162  -2.392  -4.896  0.00  0.00    +0.134 A 
ATOM     18  N   UNL     1       4.662  -2.581  -3.701  0.00  0.00    -0.179 NA
ENDBRANCH  13  14
ENDBRANCH  12  13
ENDBRANCH   4   7
BRANCH   1  19
ATOM     19  C   UNL     1       2.983  -1.998   2.226  0.00  0.00    +0.093 C 
BRANCH  19  20
ATOM     20  C   UNL     1       1.521  -2.424   2.374  0.00  0.00    -0.055 C 
ATOM     21  C   UNL     1       0.987  -1.952   3.728  0.00  0.00    -0.008 C 
ATOM     22  C   UNL     1       1.423  -3.948   2.291  0.00  0.00    -0.008 C 
BRANCH  20  28
ATOM     23  C   UNL     1       0.004   1.797   0.411  0.00  0.00    +0.005 C 
ATOM     24  C   UNL     1      -0.016   0.274   0.266  0.00  0.00    -0.031 C 
ATOM     25  C   UNL     1      -1.465  -0.221   0.279  0.00  0.00    +0.003 C 
ATOM     26  C   UNL     1      -1.472  -1.751   0.212  0.00  0.00    -0.031 C 
ATOM     27  C   UNL     1      -0.657  -2.311   1.380  0.00  0.00    -0.075 C 
ATOM     28  N   UNL     1       0.724  -1.822   1.296  0.00  0.00    +0.384 N 
ATOM     29  C   UNL     1       0.746  -0.361   1.431  0.00  0.00    -0.075 C 
ATOM     30  C   UNL     1      -0.852  -2.208  -1.110  0.00  0.00    +0.005 C 
ATOM     31  H   UNL     1       1.118  -2.082   0.404  0.00  0.00    -0.081 HD
ENDBRANCH  20  28
ENDBRANCH  19  20
ENDBRANCH   1  19
TORSDOF 6
