REMARK  Name = ZINC44430880
REMARK  8 active torsions:
REMARK  status: ('A' for Active; 'I' for Inactive)
REMARK    1  A    between atoms: C_1  and  C_2
REMARK    2  A    between atoms: C_2  and  C_4
REMARK    3  A    between atoms: C_2  and  N_12
REMARK    4  A    between atoms: C_7  and  O_10
REMARK    5  A    between atoms: O_10  and  C_11
REMARK    6  A    between atoms: C_14  and  C_19
REMARK    7  A    between atoms: C_21  and  C_24
REMARK    8  A    between atoms: C_26  and  C_30
REMARK                            x       y       z     vdW  Elec       q    Type
REMARK                         _______ _______ _______ _____ _____    ______ ____
ROOT
ATOM      1  C   UNL     1       3.072  -2.828   2.785  0.00  0.00    +0.177 A 
ATOM      2  N   UNL     1       4.343  -3.028   3.140  0.00  0.00    -0.190 NA
ATOM      3  C   UNL     1       4.567  -4.315   3.303  0.00  0.00    +0.276 A 
ATOM      4  O   UNL     1       3.420  -4.971   3.048  0.00  0.00    -0.331 OA
ATOM      5  N   UNL     1       2.461  -3.977   2.719  0.00  0.00    -0.060 NA
ENDROOT
BRANCH   1   8
ATOM      6  N   UNL     1       0.665  -0.627   1.150  0.00  0.00    -0.294 N 
ATOM      7  C   UNL     1       1.899  -1.417   1.066  0.00  0.00    +0.120 C 
ATOM      8  C   UNL     1       2.443  -1.487   2.510  0.00  0.00    +0.086 C 
ATOM      9  C   UNL     1       1.154  -1.298   3.342  0.00  0.00    +0.109 C 
ATOM     10  C   UNL     1       0.224  -0.544   2.417  0.00  0.00    +0.217 C 
ATOM     11  O   UNL     1      -0.775   0.047   2.768  0.00  0.00    -0.276 OA
BRANCH   6  13
ATOM     12  C   UNL     1      -0.070   1.509   0.214  0.00  0.00    +0.033 C 
ATOM     13  C   UNL     1       0.002  -0.004   0.002  0.00  0.00    +0.103 C 
BRANCH  13  14
ATOM     14  C   UNL     1      -1.392  -0.559  -0.135  0.00  0.00    -0.027 A 
ATOM     15  C   UNL     1      -2.424   0.261  -0.551  0.00  0.00    +0.009 A 
ATOM     16  C   UNL     1      -3.703  -0.245  -0.678  0.00  0.00    +0.046 A 
ATOM     17  C   UNL     1      -3.951  -1.579  -0.387  0.00  0.00    +0.120 A 
ATOM     18  C   UNL     1      -2.914  -2.401   0.029  0.00  0.00    +0.046 A 
ATOM     19  C   UNL     1      -1.636  -1.890   0.149  0.00  0.00    +0.009 A 
BRANCH  17  20
ATOM     20  O   UNL     1      -5.209  -2.080  -0.510  0.00  0.00    -0.495 OA
ATOM     21  C   UNL     1      -5.391  -3.461  -0.195  0.00  0.00    +0.277 C 
ENDBRANCH  17  20
ENDBRANCH  13  14
ENDBRANCH   6  13
ENDBRANCH   1   8
BRANCH   3  22
ATOM     22  C   UNL     1       5.847  -4.928   3.693  0.00  0.00    +0.123 A 
ATOM     23  C   UNL     1       6.090  -6.274   3.859  0.00  0.00    +0.062 A 
ATOM     24  C   UNL     1       7.436  -6.419   4.232  0.00  0.00    +0.093 A 
ATOM     25  N   UNL     1       7.984  -5.223   4.290  0.00  0.00    -0.173 NA
ATOM     26  N   UNL     1       7.016  -4.269   3.952  0.00  0.00    -0.272 N 
ATOM     27  H   UNL     1       7.151  -3.309   3.911  0.00  0.00    +0.189 HD
BRANCH  24  28
ATOM     28  C   UNL     1       8.124  -7.704   4.514  0.00  0.00    +0.002 A 
ATOM     29  C   UNL     1       7.429  -8.906   4.412  0.00  0.00    +0.010 A 
ATOM     30  C   UNL     1       8.074 -10.098   4.676  0.00  0.00    +0.001 A 
ATOM     31  C   UNL     1       9.408 -10.099   5.041  0.00  0.00    +0.000 A 
ATOM     32  C   UNL     1      10.103  -8.908   5.145  0.00  0.00    +0.001 A 
ATOM     33  C   UNL     1       9.469  -7.711   4.877  0.00  0.00    +0.010 A 
ENDBRANCH  24  28
ENDBRANCH   3  22
TORSDOF 6
