REMARK  Name = ZINC39404387
REMARK  8 active torsions:
REMARK  status: ('A' for Active; 'I' for Inactive)
REMARK    1  A    between atoms: C_1  and  C_2
REMARK    2  A    between atoms: C_5  and  C_7
REMARK    3  A    between atoms: N_8  and  N_9
REMARK    4  A    between atoms: C_12  and  S_16
REMARK    5  A    between atoms: S_16  and  C_17
REMARK    6  A    between atoms: C_17  and  C_18
REMARK    7  A    between atoms: N_20  and  C_21
REMARK    8  A    between atoms: C_23  and  C_32
REMARK                            x       y       z     vdW  Elec       q    Type
REMARK                         _______ _______ _______ _____ _____    ______ ____
ROOT
ATOM      1  S   UNL     1       7.893  -2.196  -1.530  0.00  0.00    -0.104 S 
ENDROOT
BRANCH   1   5
ATOM      2  N   UNL     1       3.736  -3.985  -0.037  0.00  0.00    -0.112 NA
ATOM      3  C   UNL     1       5.038  -3.787  -0.042  0.00  0.00    +0.256 C 
ATOM      4  N   UNL     1       5.661  -2.545  -0.033  0.00  0.00    -0.280 N 
ATOM      5  C   UNL     1       7.101  -2.869  -0.044  0.00  0.00    +0.274 C 
ATOM      6  N   UNL     1       7.132  -4.339  -0.059  0.00  0.00    -0.150 NA
ATOM      7  N   UNL     1       5.975  -4.762  -0.051  0.00  0.00    -0.114 NA
ATOM      8  H   UNL     1       5.246  -1.669  -0.022  0.00  0.00    +0.152 HD
BRANCH   2  10
ATOM      9  C   UNL     1       1.632  -3.174  -0.023  0.00  0.00    +0.181 C 
ATOM     10  N   UNL     1       2.931  -2.977  -0.028  0.00  0.00    -0.151 NA
BRANCH   9  15
ATOM     11  C   UNL     1      -0.018   1.503   0.010  0.00  0.00    +0.086 C 
ATOM     12  C   UNL     1       0.002  -0.004   0.002  0.00  0.00    +0.103 A 
ATOM     13  C   UNL     1      -1.088  -0.803   0.003  0.00  0.00    +0.045 A 
ATOM     14  C   UNL     1      -0.630  -2.130  -0.007  0.00  0.00    +0.051 A 
ATOM     15  C   UNL     1       0.749  -2.069  -0.013  0.00  0.00    +0.148 A 
ATOM     16  O   UNL     1       1.105  -0.767  -0.013  0.00  0.00    -0.459 OA
ENDBRANCH   9  15
ENDBRANCH   2  10
ENDBRANCH   1   5
BRANCH   1  17
ATOM     17  C   UNL     1       7.014  -3.001  -2.898  0.00  0.00    +0.168 C 
BRANCH  17  18
ATOM     18  C   UNL     1       7.582  -2.524  -4.210  0.00  0.00    +0.224 C 
ATOM     19  O   UNL     1       8.490  -1.720  -4.221  0.00  0.00    -0.275 OA
ATOM     20  N   UNL     1       7.081  -2.991  -5.371  0.00  0.00    -0.301 N 
ATOM     21  H   UNL     1       6.355  -3.634  -5.362  0.00  0.00    +0.150 HD
BRANCH  20  22
ATOM     22  C   UNL     1       7.633  -2.527  -6.646  0.00  0.00    +0.156 C 
ATOM     23  C   UNL     1       7.757  -3.684  -7.666  0.00  0.00    +0.149 C 
ATOM     24  C   UNL     1       6.532  -3.790  -8.538  0.00  0.00    -0.041 C 
ATOM     25  C   UNL     1       5.734  -2.731  -8.610  0.00  0.00    -0.012 C 
ATOM     26  S   UNL     1       6.430  -1.474  -7.560  0.00  0.00    -0.106 S 
ATOM     27  C   UNL     1       4.474  -2.601  -9.419  0.00  0.00    +0.042 C 
ATOM     28  C   UNL     1       4.424  -3.741 -10.443  0.00  0.00    +0.005 C 
ATOM     29  C   UNL     1       4.744  -5.055  -9.722  0.00  0.00    +0.005 C 
ATOM     30  C   UNL     1       6.216  -5.067  -9.315  0.00  0.00    +0.033 C 
BRANCH  23  31
ATOM     31  C   UNL     1       8.933  -3.448  -8.520  0.00  0.00    +0.073 C 
ATOM     32  N   UNL     1       9.840  -3.266  -9.178  0.00  0.00    -0.196 NA
ENDBRANCH  23  31
ENDBRANCH  20  22
ENDBRANCH  17  18
ENDBRANCH   1  17
TORSDOF 7
