REMARK  Name = ZINC37733771
REMARK  6 active torsions:
REMARK  status: ('A' for Active; 'I' for Inactive)
REMARK    1  A    between atoms: C_1  and  C_2
REMARK    2  A    between atoms: C_4  and  C_18
REMARK    3  A    between atoms: C_7  and  N_8
REMARK    4  A    between atoms: C_10  and  C_17
REMARK    5  A    between atoms: C_14  and  C_16
REMARK    6  A    between atoms: C_18  and  N_20
REMARK                            x       y       z     vdW  Elec       q    Type
REMARK                         _______ _______ _______ _____ _____    ______ ____
ROOT
ATOM      1  C   UNL     1      -0.018   1.503   0.010  0.00  0.00    +0.045 C 
ATOM      2  C   UNL     1       0.002  -0.004   0.002  0.00  0.00    -0.029 A 
ATOM      3  C   UNL     1       0.006  -0.685  -1.194  0.00  0.00    +0.015 A 
ATOM      4  C   UNL     1       0.025  -2.083  -1.201  0.00  0.00    +0.003 A 
ATOM      5  C   UNL     1       0.040  -2.785   0.009  0.00  0.00    +0.012 A 
ATOM      6  C   UNL     1       0.036  -2.098   1.201  0.00  0.00    +0.024 A 
ATOM      7  C   UNL     1       0.023  -0.706   1.204  0.00  0.00    +0.033 A 
ENDROOT
BRANCH   7   8
ATOM      8  N   UNL     1       0.025  -0.014   2.411  0.00  0.00    -0.322 N 
ATOM      9  C   UNL     1      -1.234   0.340   3.084  0.00  0.00    +0.136 C 
ATOM     10  C   UNL     1      -1.195   1.833   3.429  0.00  0.00    +0.132 C 
ATOM     11  O   UNL     1       0.009   2.119   4.145  0.00  0.00    -0.373 OA
ATOM     12  C   UNL     1       1.205   1.875   3.400  0.00  0.00    +0.182 C 
ATOM     13  C   UNL     1       1.288   0.379   3.056  0.00  0.00    +0.096 C 
ATOM     14  C   UNL     1       2.455   0.134   2.098  0.00  0.00    +0.030 C 
ATOM     15  C   UNL     1      -2.403   2.189   4.297  0.00  0.00    +0.039 C 
ENDBRANCH   7   8
BRANCH   4  16
ATOM     16  C   UNL     1       0.028  -2.815  -2.479  0.00  0.00    +0.077 C 
ATOM     17  S   UNL     1       0.863  -2.175  -3.830  0.00  0.00    -0.035 S 
BRANCH  16  18
ATOM     18  N   UNL     1      -0.626  -3.989  -2.586  0.00  0.00    -0.352 N 
ATOM     19  H   UNL     1      -1.099  -4.351  -1.821  0.00  0.00    +0.143 HD
ATOM     20  H   UNL     1      -0.624  -4.471  -3.428  0.00  0.00    +0.143 HD
ENDBRANCH  16  18
ENDBRANCH   4  16
TORSDOF 3
