REMARK  Name = ZINC08920367
REMARK  10 active torsions:
REMARK  status: ('A' for Active; 'I' for Inactive)
REMARK    1  A    between atoms: C_1  and  C_2
REMARK    2  A    between atoms: C_2  and  C_3
REMARK    3  A    between atoms: N_9  and  S_10
REMARK    4  A    between atoms: S_10  and  C_13
REMARK    5  A    between atoms: C_16  and  C_19
REMARK    6  A    between atoms: N_21  and  C_22
REMARK    7  A    between atoms: C_23  and  C_32
REMARK    8  A    between atoms: C_30  and  C_31
REMARK    9  A    between atoms: C_30  and  N_69
REMARK   10  A    between atoms: N_34  and  C_35
REMARK                            x       y       z     vdW  Elec       q    Type
REMARK                         _______ _______ _______ _____ _____    ______ ____
ROOT
ATOM      1  C   UNL     1      -7.311  -0.046   0.392  0.00  0.00    +0.249 C 
ATOM      2  O   UNL     1      -8.228   0.613  -0.060  0.00  0.00    -0.270 OA
ATOM      3  N   UNL     1      -7.533  -0.897   1.414  0.00  0.00    -0.275 N 
ATOM      4  H   UNL     1      -6.802  -1.423   1.774  0.00  0.00    +0.156 HD
ENDROOT
BRANCH   3   5
ATOM      5  C   UNL     1      -8.805  -1.021   1.949  0.00  0.00    +0.085 A 
ATOM      6  C   UNL     1      -9.226  -1.836   2.992  0.00  0.00    +0.068 A 
ATOM      7  C   UNL     1     -10.628  -1.776   3.362  0.00  0.00    -0.027 A 
ATOM      8  C   UNL     1     -11.381  -0.919   2.636  0.00  0.00    -0.021 A 
ATOM      9  S   UNL     1     -10.254  -0.192   1.484  0.00  0.00    -0.079 S 
ATOM     10  C   UNL     1     -12.847  -0.664   2.803  0.00  0.00    -0.035 C 
ATOM     11  C   UNL     1     -12.602  -1.946   4.844  0.00  0.00    -0.074 C 
ATOM     12  C   UNL     1     -11.263  -2.594   4.480  0.00  0.00    +0.018 C 
ATOM     13  N   UNL     1     -13.409  -1.767   3.620  0.00  0.00    +0.383 N 
ATOM     14  H   UNL     1     -13.383  -2.635   3.072  0.00  0.00    -0.081 HD
BRANCH   6  15
ATOM     15  C   UNL     1      -8.291  -2.722   3.691  0.00  0.00    +0.246 C 
ATOM     16  O   UNL     1      -7.689  -2.321   4.670  0.00  0.00    -0.270 OA
ATOM     17  N   UNL     1      -8.099  -3.982   3.251  0.00  0.00    -0.314 N 
ATOM     18  C   UNL     1      -7.165  -4.867   3.950  0.00  0.00    +0.128 C 
ATOM     19  H   UNL     1      -8.579  -4.301   2.471  0.00  0.00    +0.149 HD
ENDBRANCH   6  15
BRANCH  13  20
ATOM     20  C   UNL     1     -14.812  -1.467   3.978  0.00  0.00    -0.082 C 
ATOM     21  C   UNL     1     -14.881  -0.236   4.884  0.00  0.00    -0.017 C 
ENDBRANCH  13  20
ENDBRANCH   3   5
BRANCH   1  25
ATOM     22  C   UNL     1      -3.412   0.333  -1.248  0.00  0.00    +0.106 A 
ATOM     23  C   UNL     1      -3.637  -0.545  -0.203  0.00  0.00    +0.029 A 
ATOM     24  C   UNL     1      -4.900  -0.669   0.338  0.00  0.00    +0.015 A 
ATOM     25  C   UNL     1      -5.955   0.086  -0.178  0.00  0.00    +0.037 A 
ATOM     26  C   UNL     1      -5.722   0.967  -1.236  0.00  0.00    +0.015 A 
ATOM     27  C   UNL     1      -4.453   1.085  -1.765  0.00  0.00    +0.029 A 
BRANCH  22  28
ATOM     28  S   UNL     1      -1.795   0.491  -1.929  0.00  0.00    +0.061 S 
ATOM     29  O   UNL     1      -1.943   1.141  -3.183  0.00  0.00    -0.153 OA
ATOM     30  O   UNL     1      -1.174  -0.781  -1.800  0.00  0.00    -0.153 OA
BRANCH  28  36
ATOM     31  C   UNL     1      -1.115   2.984  -1.091  0.00  0.00    +0.080 C 
ATOM     32  C   UNL     1      -1.475   3.571   0.278  0.00  0.00    +0.021 C 
ATOM     33  C   UNL     1      -0.419   3.151   1.302  0.00  0.00    +0.003 C 
ATOM     34  C   UNL     1      -0.396   1.625   1.422  0.00  0.00    +0.017 C 
ATOM     35  C   UNL     1      -0.027   1.016   0.066  0.00  0.00    +0.110 C 
ATOM     36  N   UNL     1      -0.952   1.530  -0.954  0.00  0.00    -0.174 NA
BRANCH  31  38
ATOM     37  C   UNL     1      -2.484   4.791  -2.141  0.00  0.00    +0.005 C 
ATOM     38  C   UNL     1      -2.234   3.282  -2.091  0.00  0.00    +0.017 C 
ENDBRANCH  31  38
ENDBRANCH  28  36
ENDBRANCH  22  28
ENDBRANCH   1  25
TORSDOF 7
