REMARK  Name = ZINC36243670
REMARK  16 active torsions:
REMARK  status: ('A' for Active; 'I' for Inactive)
REMARK    1  A    between atoms: C_1  and  C_2
REMARK    2  A    between atoms: C_2  and  O_3
REMARK    3  A    between atoms: O_3  and  C_4
REMARK    4  A    between atoms: N_6  and  N_7
REMARK    5  A    between atoms: C_8  and  C_9
REMARK    6  A    between atoms: C_8  and  C_10
REMARK    7  A    between atoms: C_10  and  O_42
REMARK    8  A    between atoms: C_11  and  O_38
REMARK    9  A    between atoms: C_16  and  C_37
REMARK   10  A    between atoms: C_26  and  C_36
REMARK   11  A    between atoms: C_29  and  O_32
REMARK   12  A    between atoms: O_32  and  C_33
REMARK   13  A    between atoms: C_33  and  C_35
REMARK   14  A    between atoms: O_38  and  C_39
REMARK   15  A    between atoms: C_39  and  C_41
REMARK   16  A    between atoms: O_42  and  C_43
REMARK                            x       y       z     vdW  Elec       q    Type
REMARK                         _______ _______ _______ _____ _____    ______ ____
ROOT
ATOM      1  C   UNL     1       2.772  -0.930  -5.555  0.00  0.00    +0.150 C 
ATOM      2  C   UNL     1       4.265  -1.059  -5.958  0.00  0.00    +0.215 C 
ATOM      3  C   UNL     1       4.974   0.227  -5.451  0.00  0.00    +0.052 C 
ATOM      4  C   UNL     1       3.974   0.783  -4.425  0.00  0.00    +0.005 C 
ATOM      5  C   UNL     1       2.629   0.547  -5.140  0.00  0.00    +0.009 C 
ATOM      6  C   UNL     1       1.483   0.893  -4.232  0.00  0.00    +0.010 C 
ATOM      7  C   UNL     1       1.678   2.257  -3.558  0.00  0.00    +0.005 C 
ATOM      8  C   UNL     1       2.884   3.024  -4.066  0.00  0.00    +0.003 C 
ATOM      9  C   UNL     1       4.170   2.201  -3.986  0.00  0.00    +0.001 C 
ATOM     10  C   UNL     1       5.234   2.934  -4.815  0.00  0.00    +0.031 C 
ATOM     11  C   UNL     1       5.380   4.319  -4.243  0.00  0.00    -0.027 C 
ATOM     12  C   UNL     1       4.451   4.914  -3.563  0.00  0.00    -0.064 C 
ATOM     13  C   UNL     1       3.087   4.327  -3.293  0.00  0.00    -0.008 C 
ATOM     14  C   UNL     1       2.924   4.148  -1.791  0.00  0.00    +0.015 C 
ATOM     15  C   UNL     1       4.060   4.850  -1.047  0.00  0.00    +0.046 C 
ATOM     16  C   UNL     1       4.267   6.282  -1.526  0.00  0.00    +0.180 C 
ATOM     17  C   UNL     1       4.715   6.297  -2.993  0.00  0.00    +0.075 C 
ATOM     18  C   UNL     1       2.029   5.318  -3.788  0.00  0.00    +0.016 C 
ATOM     19  C   UNL     1       2.525   1.335  -6.456  0.00  0.00    +0.015 C 
ENDROOT
BRANCH   1  21
ATOM     20  N   UNL     1       3.395  -2.335  -3.700  0.00  0.00    -0.184 NA
ATOM     21  C   UNL     1       2.454  -1.871  -4.432  0.00  0.00    +0.070 C 
ATOM     22  C   UNL     1       1.025  -2.269  -4.165  0.00  0.00    +0.065 C 
BRANCH  20  25
ATOM     23  C   UNL     1       4.089  -3.704  -1.879  0.00  0.00    +0.420 C 
ATOM     24  O   UNL     1       3.831  -4.466  -0.969  0.00  0.00    -0.225 OA
ATOM     25  N   UNL     1       3.098  -3.215  -2.650  0.00  0.00    -0.172 N 
ATOM     26  H   UNL     1       2.178  -3.471  -2.478  0.00  0.00    +0.181 HD
BRANCH  23  27
ATOM     27  O   UNL     1       5.366  -3.348  -2.118  0.00  0.00    -0.450 OA
BRANCH  27  29
ATOM     28  C   UNL     1       7.743  -3.389  -1.684  0.00  0.00    +0.048 C 
ATOM     29  C   UNL     1       6.365  -3.905  -1.262  0.00  0.00    +0.230 C 
ENDBRANCH  27  29
ENDBRANCH  23  27
ENDBRANCH  20  25
ENDBRANCH   1  21
BRANCH   1  30
ATOM     30  O   UNL     1       1.936  -1.192  -6.684  0.00  0.00    -0.366 OA
ATOM     31  C   UNL     1       1.995  -2.541  -7.150  0.00  0.00    +0.195 C 
ENDBRANCH   1  30
BRANCH  16  32
ATOM     32  O   UNL     1       3.056   7.026  -1.379  0.00  0.00    -0.461 OA
BRANCH  32  33
ATOM     33  C   UNL     1       3.175   8.343  -1.149  0.00  0.00    +0.304 C 
ATOM     34  O   UNL     1       4.270   8.847  -1.076  0.00  0.00    -0.251 OA
ATOM     35  C   UNL     1       1.941   9.193  -0.983  0.00  0.00    +0.136 C 
ENDBRANCH  32  33
ENDBRANCH  16  32
BRANCH   2  36
ATOM     36  O   UNL     1       4.385  -1.163  -7.377  0.00  0.00    -0.458 OA
BRANCH  36  37
ATOM     37  C   UNL     1       5.425  -1.867  -7.850  0.00  0.00    +0.304 C 
ATOM     38  O   UNL     1       6.207  -2.378  -7.085  0.00  0.00    -0.251 OA
ATOM     39  C   UNL     1       5.617  -2.019  -9.337  0.00  0.00    +0.136 C 
ENDBRANCH  36  37
ENDBRANCH   2  36
TORSDOF 9
