REMARK  Name = ZINC09947388
REMARK  10 active torsions:
REMARK  status: ('A' for Active; 'I' for Inactive)
REMARK    1  A    between atoms: C_1  and  C_2
REMARK    2  A    between atoms: C_6  and  C_34
REMARK    3  A    between atoms: C_7  and  N_8
REMARK    4  A    between atoms: C_9  and  C_11
REMARK    5  A    between atoms: C_11  and  S_12
REMARK    6  A    between atoms: S_12  and  C_13
REMARK    7  A    between atoms: N_26  and  C_27
REMARK    8  A    between atoms: C_27  and  C_28
REMARK    9  A    between atoms: C_34  and  C_35
REMARK   10  A    between atoms: C_34  and  C_36
REMARK                            x       y       z     vdW  Elec       q    Type
REMARK                         _______ _______ _______ _____ _____    ______ ____
ROOT
ATOM      1  C   UNL     1       3.212  -2.793   2.847  0.00  0.00    +0.198 A 
ATOM      2  N   UNL     1       3.627  -1.733   2.197  0.00  0.00    -0.120 NA
ATOM      3  N   UNL     1       2.793  -1.550   1.088  0.00  0.00    -0.109 NA
ATOM      4  C   UNL     1       1.894  -2.508   1.089  0.00  0.00    +0.240 A 
ATOM      5  N   UNL     1       2.127  -3.299   2.181  0.00  0.00    -0.256 N 
ATOM      6  C   UNL     1       1.319  -4.403   2.442  0.00  0.00    +0.064 A 
ATOM      7  C   UNL     1       1.551  -5.214   3.543  0.00  0.00    +0.027 A 
ATOM      8  C   UNL     1       0.735  -6.302   3.779  0.00  0.00    +0.002 A 
ATOM      9  C   UNL     1      -0.318  -6.593   2.924  0.00  0.00    +0.001 A 
ATOM     10  C   UNL     1      -0.563  -5.797   1.825  0.00  0.00    +0.015 A 
ATOM     11  C   UNL     1       0.254  -4.696   1.576  0.00  0.00    +0.064 A 
ATOM     12  C   UNL     1       0.026  -3.821   0.412  0.00  0.00    +0.263 A 
ATOM     13  O   UNL     1      -0.887  -4.043  -0.360  0.00  0.00    -0.267 OA
ATOM     14  N   UNL     1       0.847  -2.768   0.218  0.00  0.00    -0.272 N 
ENDROOT
BRANCH   1  15
ATOM     15  S   UNL     1       3.923  -3.451   4.318  0.00  0.00    -0.076 S 
BRANCH  15  16
ATOM     16  C   UNL     1       5.307  -2.334   4.674  0.00  0.00    +0.173 C 
BRANCH  16  18
ATOM     17  N   UNL     1       7.078  -2.106   6.386  0.00  0.00    -0.284 N 
ATOM     18  C   UNL     1       6.012  -2.790   5.926  0.00  0.00    +0.228 C 
ATOM     19  O   UNL     1       5.619  -3.772   6.520  0.00  0.00    -0.275 OA
ATOM     20  H   UNL     1       7.425  -1.352   5.883  0.00  0.00    +0.155 HD
BRANCH  17  27
ATOM     21  C   UNL     1       5.435  -2.381   8.693  0.00  0.00    +0.045 C 
ATOM     22  C   UNL     1       6.921  -2.630   8.739  0.00  0.00    -0.029 A 
ATOM     23  C   UNL     1       7.523  -3.008   9.923  0.00  0.00    +0.005 A 
ATOM     24  C   UNL     1       8.887  -3.231   9.967  0.00  0.00    +0.001 A 
ATOM     25  C   UNL     1       9.652  -3.081   8.825  0.00  0.00    +0.006 A 
ATOM     26  C   UNL     1       9.055  -2.708   7.636  0.00  0.00    -0.023 A 
ATOM     27  C   UNL     1       7.686  -2.484   7.589  0.00  0.00    +0.040 A 
BRANCH  26  28
ATOM     28  C   UNL     1       9.890  -2.545   6.392  0.00  0.00    +0.015 C 
ATOM     29  C   UNL     1      10.950  -1.467   6.626  0.00  0.00    +0.012 C 
ATOM     30  C   UNL     1      10.576  -3.872   6.061  0.00  0.00    +0.012 C 
ENDBRANCH  26  28
ENDBRANCH  17  27
ENDBRANCH  16  18
ENDBRANCH  15  16
ENDBRANCH   1  15
BRANCH  14  31
ATOM     31  C   UNL     1       0.633  -1.890  -0.934  0.00  0.00    +0.163 C 
BRANCH  31  32
ATOM     32  C   UNL     1      -0.302  -0.772  -0.548  0.00  0.00    -0.028 A 
ATOM     33  C   UNL     1      -1.666  -0.925  -0.711  0.00  0.00    +0.005 A 
ATOM     34  C   UNL     1      -2.523   0.098  -0.352  0.00  0.00    +0.000 A 
ATOM     35  C   UNL     1      -2.016   1.277   0.160  0.00  0.00    +0.000 A 
ATOM     36  C   UNL     1      -0.652   1.432   0.318  0.00  0.00    +0.000 A 
ATOM     37  C   UNL     1       0.206   0.407  -0.036  0.00  0.00    +0.005 A 
ENDBRANCH  31  32
ENDBRANCH  14  31
TORSDOF 7
