REMARK  Name = ZINC67376904
REMARK  7 active torsions:
REMARK  status: ('A' for Active; 'I' for Inactive)
REMARK    1  A    between atoms: C_1  and  N_2
REMARK    2  A    between atoms: N_2  and  C_3
REMARK    3  A    between atoms: C_4  and  C_6
REMARK    4  A    between atoms: C_6  and  N_7
REMARK    5  A    between atoms: N_11  and  C_14
REMARK    6  A    between atoms: N_18  and  C_21
REMARK    7  A    between atoms: C_25  and  N_27
REMARK                            x       y       z     vdW  Elec       q    Type
REMARK                         _______ _______ _______ _____ _____    ______ ____
ROOT
ATOM      1  C   UNL     1      -1.283  -5.971  -5.287  0.00  0.00    +0.145 C 
ATOM      2  C   UNL     1      -2.749  -6.114  -5.756  0.00  0.00    +0.048 C 
ATOM      3  C   UNL     1      -3.363  -6.959  -4.617  0.00  0.00    +0.116 C 
ATOM      4  N   UNL     1      -2.242  -7.706  -4.036  0.00  0.00    -0.270 N 
ATOM      5  C   UNL     1      -1.058  -7.170  -4.391  0.00  0.00    +0.237 C 
ATOM      6  O   UNL     1       0.028  -7.585  -4.047  0.00  0.00    -0.274 OA
ENDROOT
BRANCH   1  11
ATOM      7  N   UNL     1       0.014  -2.661  -2.565  0.00  0.00    +0.386 N 
ATOM      8  C   UNL     1      -1.232  -2.211  -3.221  0.00  0.00    -0.077 C 
ATOM      9  C   UNL     1      -1.027  -2.224  -4.715  0.00  0.00    -0.003 C 
ATOM     10  C   UNL     1      -1.488  -3.549  -5.347  0.00  0.00    +0.083 C 
ATOM     11  N   UNL     1      -1.104  -4.724  -4.531  0.00  0.00    -0.293 NA
ATOM     12  C   UNL     1       0.231  -4.637  -3.983  0.00  0.00    +0.066 C 
ATOM     13  C   UNL     1       0.148  -4.053  -2.560  0.00  0.00    -0.063 C 
ATOM     14  H   UNL     1       0.801  -2.259  -3.053  0.00  0.00    -0.081 HD
BRANCH   7  15
ATOM     15  C   UNL     1       0.021  -2.178  -1.177  0.00  0.00    +0.019 C 
BRANCH  15  19
ATOM     16  C   UNL     1      -0.018   1.461   0.010  0.00  0.00    +0.131 C 
ATOM     17  N   UNL     1       0.002  -0.004   0.002  0.00  0.00    -0.309 N 
ATOM     18  C   UNL     1       0.024  -0.743   1.267  0.00  0.00    +0.131 C 
ATOM     19  C   UNL     1       0.000  -0.672  -1.169  0.00  0.00    +0.199 C 
ATOM     20  O   UNL     1      -0.018  -0.060  -2.216  0.00  0.00    -0.278 OA
ENDBRANCH  15  19
ENDBRANCH   7  15
ENDBRANCH   1  11
BRANCH   4  21
ATOM     21  C   UNL     1      -2.383  -8.832  -3.217  0.00  0.00    +0.038 A 
ATOM     22  C   UNL     1      -3.649  -9.315  -2.911  0.00  0.00    +0.023 A 
ATOM     23  C   UNL     1      -3.785 -10.427  -2.103  0.00  0.00    +0.004 A 
ATOM     24  C   UNL     1      -2.663 -11.059  -1.599  0.00  0.00    +0.033 A 
ATOM     25  C   UNL     1      -1.402 -10.580  -1.902  0.00  0.00    +0.128 A 
ATOM     26  C   UNL     1      -1.258  -9.472  -2.713  0.00  0.00    +0.056 A 
BRANCH  25  27
ATOM     27  N   UNL     1      -0.203 -11.259  -1.360  0.00  0.00    +0.056 N 
ATOM     28  O   UNL     1      -0.328 -12.232  -0.652  0.00  0.00    -0.126 OA
ATOM     29  O   UNL     1       0.900 -10.841  -1.624  0.00  0.00    -0.126 OA
ENDBRANCH  25  27
ENDBRANCH   4  21
TORSDOF 5
