REMARK  Name = ZINC31641247
REMARK  4 active torsions:
REMARK  status: ('A' for Active; 'I' for Inactive)
REMARK    1  A    between atoms: C_4  and  C_7
REMARK    2  A    between atoms: C_7  and  N_8
REMARK    3  A    between atoms: C_18  and  C_20
REMARK    4  A    between atoms: C_20  and  N_21
REMARK                            x       y       z     vdW  Elec       q    Type
REMARK                         _______ _______ _______ _____ _____    ______ ____
ROOT
ATOM      1  N   UNL     1       3.983   0.098  -1.702  0.00  0.00    -0.245 N 
ATOM      2  C   UNL     1       4.771  -0.366  -0.655  0.00  0.00    +0.168 A 
ATOM      3  N   UNL     1       5.902  -1.038  -0.705  0.00  0.00    -0.229 NA
ATOM      4  C   UNL     1       6.553  -1.415   0.393  0.00  0.00    +0.054 A 
ATOM      5  C   UNL     1       5.975  -1.074   1.574  0.00  0.00    +0.014 A 
ATOM      6  S   UNL     1       4.513  -0.214   1.058  0.00  0.00    -0.057 S 
ATOM      7  C   UNL     1       6.467  -1.364   2.951  0.00  0.00    +0.044 C 
ATOM      8  C   UNL     1       7.563  -2.438   2.854  0.00  0.00    +0.006 C 
ATOM      9  C   UNL     1       8.540  -2.044   1.742  0.00  0.00    +0.006 C 
ATOM     10  C   UNL     1       7.867  -2.187   0.376  0.00  0.00    +0.056 C 
ATOM     11  C   UNL     1       2.843   0.768  -1.441  0.00  0.00    +0.241 C 
ATOM     12  O   UNL     1       2.155   1.173  -2.355  0.00  0.00    -0.273 OA
ENDROOT
BRANCH   1  13
ATOM     13  C   UNL     1       4.391  -0.143  -3.088  0.00  0.00    +0.150 C 
BRANCH  13  17
ATOM     14  C   UNL     1       6.830   3.094  -4.437  0.00  0.00    +0.000 A 
ATOM     15  C   UNL     1       7.412   1.995  -3.832  0.00  0.00    +0.000 A 
ATOM     16  C   UNL     1       6.622   0.948  -3.395  0.00  0.00    +0.005 A 
ATOM     17  C   UNL     1       5.251   0.999  -3.564  0.00  0.00    -0.030 A 
ATOM     18  C   UNL     1       4.670   2.094  -4.174  0.00  0.00    +0.005 A 
ATOM     19  C   UNL     1       5.459   3.144  -4.606  0.00  0.00    +0.000 A 
ENDBRANCH  13  17
ENDBRANCH   1  13
BRANCH  11  20
ATOM     20  C   UNL     1       2.424   1.016  -0.015  0.00  0.00    +0.222 C 
BRANCH  20  21
ATOM     21  N   UNL     1       1.161   1.759   0.000  0.00  0.00    -0.290 N 
ATOM     22  C   UNL     1      -0.013   1.076   0.008  0.00  0.00    +0.203 A 
ATOM     23  N   UNL     1      -1.159   1.702   0.017  0.00  0.00    -0.230 NA
ATOM     24  C   UNL     1      -1.214   3.030   0.029  0.00  0.00    +0.115 A 
ATOM     25  C   UNL     1      -0.052   3.823   0.023  0.00  0.00    +0.072 A 
ATOM     26  C   UNL     1       1.188   3.104   0.007  0.00  0.00    +0.263 A 
ATOM     27  O   UNL     1       2.250   3.703   0.001  0.00  0.00    -0.267 OA
ATOM     28  C   UNL     1      -0.286   5.255   0.033  0.00  0.00    +0.023 A 
ATOM     29  C   UNL     1      -1.548   5.713   0.047  0.00  0.00    +0.048 A 
ATOM     30  S   UNL     1      -2.527   4.223   0.048  0.00  0.00    -0.077 S 
ENDBRANCH  20  21
ENDBRANCH  11  20
TORSDOF 4
