REMARK  Name = ZINC08596061
REMARK  10 active torsions:
REMARK  status: ('A' for Active; 'I' for Inactive)
REMARK    1  A    between atoms: C_1  and  C_2
REMARK    2  A    between atoms: C_2  and  C_3
REMARK    3  A    between atoms: C_12  and  S_14
REMARK    4  A    between atoms: S_14  and  N_17
REMARK    5  A    between atoms: N_17  and  C_18
REMARK    6  A    between atoms: C_18  and  C_20
REMARK    7  A    between atoms: C_18  and  C_27
REMARK    8  A    between atoms: C_20  and  C_21
REMARK    9  A    between atoms: N_29  and  C_30
REMARK   10  A    between atoms: C_33  and  C_36
REMARK                            x       y       z     vdW  Elec       q    Type
REMARK                         _______ _______ _______ _____ _____    ______ ____
ROOT
ATOM      1  C   UNL     1       5.284  -5.873  -4.281  0.00  0.00    +0.167 C 
ENDROOT
BRANCH   1   2
ATOM      2  C   UNL     1       6.520  -5.315  -3.622  0.00  0.00    +0.236 C 
ATOM      3  O   UNL     1       7.075  -4.347  -4.096  0.00  0.00    -0.274 OA
ATOM      4  N   UNL     1       7.007  -5.893  -2.506  0.00  0.00    -0.284 N 
ATOM      5  H   UNL     1       6.527  -6.624  -2.089  0.00  0.00    +0.155 HD
BRANCH   4   6
ATOM      6  C   UNL     1       8.207  -5.436  -1.950  0.00  0.00    +0.033 A 
ATOM      7  C   UNL     1       9.082  -6.333  -1.351  0.00  0.00    +0.023 A 
ATOM      8  C   UNL     1      10.266  -5.880  -0.802  0.00  0.00    +0.005 A 
ATOM      9  C   UNL     1      10.580  -4.534  -0.849  0.00  0.00    -0.050 A 
ATOM     10  C   UNL     1       9.711  -3.638  -1.444  0.00  0.00    +0.005 A 
ATOM     11  C   UNL     1       8.529  -4.086  -2.000  0.00  0.00    +0.023 A 
ATOM     12  C   UNL     1      11.873  -4.042  -0.249  0.00  0.00    +0.044 C 
ENDBRANCH   4   6
ENDBRANCH   1   2
BRANCH   1  13
ATOM     13  N   UNL     1       4.960  -5.076  -5.466  0.00  0.00    -0.178 NA
ATOM     14  H   UNL     1       5.673  -4.699  -6.006  0.00  0.00    +0.149 HD
BRANCH  13  15
ATOM     15  S   UNL     1       3.379  -4.818  -5.884  0.00  0.00    +0.059 S 
ATOM     16  O   UNL     1       2.739  -6.086  -5.855  0.00  0.00    -0.153 OA
ATOM     17  O   UNL     1       3.394  -3.999  -7.045  0.00  0.00    -0.153 OA
BRANCH  15  27
ATOM     18  C   UNL     1       0.742  -0.449  -1.243  0.00  0.00    +0.220 C 
ATOM     19  O   UNL     1       1.188   0.345  -2.046  0.00  0.00    -0.275 OA
ATOM     20  N   UNL     1       0.873  -1.772  -1.461  0.00  0.00    -0.271 N 
ATOM     21  C   UNL     1       0.373  -2.823  -0.570  0.00  0.00    +0.118 C 
ATOM     22  C   UNL     1       0.765  -4.146  -1.248  0.00  0.00    +0.056 C 
ATOM     23  C   UNL     1       1.482  -3.729  -2.512  0.00  0.00    -0.023 A 
ATOM     24  C   UNL     1       1.501  -2.344  -2.571  0.00  0.00    +0.040 A 
ATOM     25  C   UNL     1       2.110  -1.721  -3.662  0.00  0.00    +0.026 A 
ATOM     26  C   UNL     1       2.679  -2.476  -4.666  0.00  0.00    +0.030 A 
ATOM     27  C   UNL     1       2.651  -3.856  -4.599  0.00  0.00    +0.106 A 
ATOM     28  C   UNL     1       2.057  -4.481  -3.518  0.00  0.00    +0.034 A 
BRANCH  18  30
ATOM     29  C   UNL     1       0.031   1.576  -0.001  0.00  0.00    +0.013 C 
ATOM     30  C   UNL     1       0.043   0.046  -0.004  0.00  0.00    +0.093 C 
ENDBRANCH  18  30
ENDBRANCH  15  27
ENDBRANCH  13  15
ENDBRANCH   1  13
BRANCH   1  31
ATOM     31  C   UNL     1       5.538  -7.324  -4.696  0.00  0.00    +0.065 C 
BRANCH  31  32
ATOM     32  C   UNL     1       4.267  -7.920  -5.242  0.00  0.00    -0.045 A 
ATOM     33  C   UNL     1       3.380  -8.555  -4.392  0.00  0.00    +0.004 A 
ATOM     34  C   UNL     1       2.214  -9.102  -4.894  0.00  0.00    +0.000 A 
ATOM     35  C   UNL     1       1.933  -9.013  -6.244  0.00  0.00    +0.000 A 
ATOM     36  C   UNL     1       2.819  -8.377  -7.094  0.00  0.00    +0.000 A 
ATOM     37  C   UNL     1       3.984  -7.826  -6.592  0.00  0.00    +0.004 A 
ENDBRANCH  31  32
ENDBRANCH   1  31
TORSDOF 8
