REMARK  Name = ZINC12343129
REMARK  8 active torsions:
REMARK  status: ('A' for Active; 'I' for Inactive)
REMARK    1  A    between atoms: C_1  and  C_2
REMARK    2  A    between atoms: C_2  and  C_18
REMARK    3  A    between atoms: N_3  and  N_4
REMARK    4  A    between atoms: C_5  and  C_7
REMARK    5  A    between atoms: C_7  and  O_8
REMARK    6  A    between atoms: O_8  and  C_9
REMARK    7  A    between atoms: C_18  and  C_19
REMARK    8  A    between atoms: C_19  and  O_29
REMARK                            x       y       z     vdW  Elec       q    Type
REMARK                         _______ _______ _______ _____ _____    ______ ____
ROOT
ATOM      1  C   UNL     1       2.164  -0.374   0.075  0.00  0.00    +0.062 C 
ATOM      2  C   UNL     1       2.266   1.129   0.110  0.00  0.00    +0.037 C 
ATOM      3  N   UNL     1       1.210   1.839   0.251  0.00  0.00    -0.189 NA
ENDROOT
BRANCH   3   4
ATOM      4  N   UNL     1      -0.040   1.219   0.371  0.00  0.00    -0.204 N 
ATOM      5  C   UNL     1      -1.153   1.966   0.514  0.00  0.00    +0.270 C 
ATOM      6  O   UNL     1      -1.071   3.176   0.542  0.00  0.00    -0.270 OA
ATOM      7  H   UNL     1      -0.106   0.251   0.349  0.00  0.00    +0.177 HD
BRANCH   5   8
ATOM      8  C   UNL     1      -2.498   1.299   0.638  0.00  0.00    +0.326 C 
BRANCH   8   9
ATOM      9  O   UNL     1      -3.513   2.296   0.777  0.00  0.00    -0.480 OA
BRANCH   9  10
ATOM     10  C   UNL     1      -4.795   1.858   0.901  0.00  0.00    +0.158 A 
ATOM     11  C   UNL     1      -5.579   1.677  -0.229  0.00  0.00    +0.085 A 
ATOM     12  C   UNL     1      -6.880   1.227  -0.101  0.00  0.00    +0.043 A 
ATOM     13  C   UNL     1      -7.404   0.968   1.153  0.00  0.00    +0.044 A 
ATOM     14  C   UNL     1      -6.625   1.154   2.282  0.00  0.00    +0.043 A 
ATOM     15  C   UNL     1      -5.322   1.598   2.158  0.00  0.00    +0.085 A 
ATOM     16 CL   UNL     1      -4.345   1.830   3.575  0.00  0.00    -0.080 Cl
ATOM     17 CL   UNL     1      -9.040   0.410   1.312  0.00  0.00    -0.083 Cl
ATOM     18 CL   UNL     1      -4.926   2.009  -1.803  0.00  0.00    -0.080 Cl
ENDBRANCH   9  10
ENDBRANCH   8   9
ENDBRANCH   5   8
ENDBRANCH   3   4
BRANCH   2  19
ATOM     19  C   UNL     1       3.611   1.797  -0.020  0.00  0.00    +0.101 C 
BRANCH  19  20
ATOM     20  C   UNL     1       3.907   2.063  -1.497  0.00  0.00    +0.173 C 
ATOM     21  C   UNL     1       5.244   2.750  -1.653  0.00  0.00    +0.014 A 
ATOM     22  C   UNL     1       6.531   2.380  -1.332  0.00  0.00    +0.009 A 
ATOM     23  C   UNL     1       7.583   3.238  -1.600  0.00  0.00    +0.000 A 
ATOM     24  C   UNL     1       7.338   4.465  -2.189  0.00  0.00    +0.002 A 
ATOM     25  C   UNL     1       6.043   4.843  -2.512  0.00  0.00    +0.024 A 
ATOM     26  C   UNL     1       4.981   3.982  -2.246  0.00  0.00    +0.040 A 
ATOM     27  N   UNL     1       3.612   4.125  -2.475  0.00  0.00    -0.282 N 
ATOM     28  C   UNL     1       2.913   3.051  -2.068  0.00  0.00    +0.254 C 
ATOM     29  O   UNL     1       1.712   2.902  -2.144  0.00  0.00    -0.272 OA
ATOM     30  H   UNL     1       3.210   4.909  -2.882  0.00  0.00    +0.155 HD
BRANCH  20  31
ATOM     31  O   UNL     1       3.882   0.842  -2.239  0.00  0.00    -0.374 OA
ATOM     32  H   UNL     1       3.037   0.374  -2.198  0.00  0.00    +0.211 HD
ENDBRANCH  20  31
ENDBRANCH  19  20
ENDBRANCH   2  19
TORSDOF 7
