REMARK  Name = ZINC66925063
REMARK  6 active torsions:
REMARK  status: ('A' for Active; 'I' for Inactive)
REMARK    1  A    between atoms: C_1  and  C_2
REMARK    2  A    between atoms: C_2  and  C_4
REMARK    3  A    between atoms: C_2  and  N_15
REMARK    4  A    between atoms: N_18  and  C_19
REMARK    5  A    between atoms: C_19  and  C_20
REMARK    6  A    between atoms: C_20  and  O_30
REMARK                            x       y       z     vdW  Elec       q    Type
REMARK                         _______ _______ _______ _____ _____    ______ ____
ROOT
ATOM      1  N   UNL     1       0.756   0.017  -1.415  0.00  0.00    -0.293 N 
ATOM      2  C   UNL     1       2.081  -0.225  -1.371  0.00  0.00    +0.300 C 
ATOM      3  O   UNL     1       2.735   0.146  -0.415  0.00  0.00    -0.253 OA
ATOM      4  N   UNL     1       2.682  -0.878  -2.385  0.00  0.00    -0.296 N 
ATOM      5  H   UNL     1       0.234  -0.279  -2.178  0.00  0.00    +0.151 HD
ATOM      6  H   UNL     1       2.160  -1.174  -3.148  0.00  0.00    +0.150 HD
ENDROOT
BRANCH   1   8
ATOM      7  C   UNL     1       0.238   2.236  -0.527  0.00  0.00    +0.033 C 
ATOM      8  C   UNL     1       0.104   0.727  -0.312  0.00  0.00    +0.102 C 
BRANCH   8   9
ATOM      9  C   UNL     1      -1.356   0.354  -0.269  0.00  0.00    -0.025 A 
ATOM     10  C   UNL     1      -2.066   0.211  -1.446  0.00  0.00    +0.009 A 
ATOM     11  C   UNL     1      -3.406  -0.133  -1.414  0.00  0.00    +0.048 A 
ATOM     12  C   UNL     1      -4.038  -0.333  -0.200  0.00  0.00    +0.142 A 
ATOM     13  C   UNL     1      -3.322  -0.187   0.988  0.00  0.00    +0.076 A 
ATOM     14  C   UNL     1      -1.979   0.151   0.949  0.00  0.00    +0.032 A 
ATOM     15  N   UNL     1      -3.974  -0.390   2.212  0.00  0.00    -0.280 N 
ATOM     16  C   UNL     1      -5.170  -1.020   2.219  0.00  0.00    +0.255 C 
ATOM     17  O   UNL     1      -5.768  -1.179   3.263  0.00  0.00    -0.272 OA
ATOM     18  C   UNL     1      -5.758  -1.523   0.926  0.00  0.00    +0.325 C 
ATOM     19  O   UNL     1      -5.354  -0.672  -0.150  0.00  0.00    -0.481 OA
ATOM     20  H   UNL     1      -3.574  -0.084   3.040  0.00  0.00    +0.155 HD
ENDBRANCH   8   9
ENDBRANCH   1   8
BRANCH   4  21
ATOM     21  C   UNL     1       4.122  -1.142  -2.336  0.00  0.00    +0.145 C 
BRANCH  21  22
ATOM     22  C   UNL     1       4.571  -1.769  -3.658  0.00  0.00    +0.107 C 
ATOM     23  C   UNL     1       4.206  -0.834  -4.809  0.00  0.00    +0.041 C 
ATOM     24  C   UNL     1       4.852  -1.371  -6.091  0.00  0.00    +0.008 C 
ATOM     25  C   UNL     1       6.363  -1.176  -5.987  0.00  0.00    +0.035 C 
ATOM     26  C   UNL     1       6.881  -1.734  -4.688  0.00  0.00    -0.041 A 
ATOM     27  C   UNL     1       6.058  -2.003  -3.617  0.00  0.00    -0.011 A 
ATOM     28  C   UNL     1       6.600  -2.512  -2.444  0.00  0.00    +0.007 A 
ATOM     29  C   UNL     1       7.955  -2.753  -2.344  0.00  0.00    +0.000 A 
ATOM     30  C   UNL     1       8.780  -2.487  -3.421  0.00  0.00    +0.000 A 
ATOM     31  C   UNL     1       8.244  -1.980  -4.586  0.00  0.00    +0.004 A 
BRANCH  22  32
ATOM     32  O   UNL     1       3.901  -3.019  -3.837  0.00  0.00    -0.382 OA
ATOM     33  H   UNL     1       4.078  -3.663  -3.138  0.00  0.00    +0.211 HD
ENDBRANCH  22  32
ENDBRANCH  21  22
ENDBRANCH   4  21
TORSDOF 5
