REMARK  Name = ZINC52094581
REMARK  6 active torsions:
REMARK  status: ('A' for Active; 'I' for Inactive)
REMARK    1  A    between atoms: C_1  and  C_2
REMARK    2  A    between atoms: C_2  and  N_3
REMARK    3  A    between atoms: N_3  and  C_4
REMARK    4  A    between atoms: C_4  and  C_6
REMARK    5  A    between atoms: C_4  and  C_12
REMARK    6  A    between atoms: C_10  and  C_11
REMARK                            x       y       z     vdW  Elec       q    Type
REMARK                         _______ _______ _______ _____ _____    ______ ____
ROOT
ATOM      1  C   UNL     1      -2.766  -2.345  -0.355  0.00  0.00    -0.041 A 
ATOM      2  C   UNL     1      -3.803  -1.445  -0.205  0.00  0.00    +0.031 A 
ATOM      3  C   UNL     1      -5.104  -1.838  -0.481  0.00  0.00    +0.067 A 
ATOM      4  C   UNL     1      -5.361  -3.142  -0.909  0.00  0.00    +0.068 A 
ATOM      5  C   UNL     1      -4.314  -4.039  -1.057  0.00  0.00    +0.043 A 
ATOM      6  C   UNL     1      -3.020  -3.637  -0.785  0.00  0.00    +0.022 A 
ATOM      7 BR   UNL     1      -1.591  -4.857  -0.994  0.00  0.00    -0.050 Br
ATOM      8  N   UNL     1      -6.736  -3.238  -1.103  0.00  0.00    -0.306 N 
ATOM      9  H   UNL     1      -7.214  -4.028  -1.401  0.00  0.00    +0.170 HD
ATOM     10  C   UNL     1      -7.291  -2.047  -0.807  0.00  0.00    +0.325 A 
ATOM     11  O   UNL     1      -8.479  -1.793  -0.871  0.00  0.00    -0.247 OA
ATOM     12  N   UNL     1      -6.332  -1.182  -0.428  0.00  0.00    -0.306 N 
ATOM     13  H   UNL     1      -6.472  -0.259  -0.164  0.00  0.00    +0.170 HD
ENDROOT
BRANCH   1  14
ATOM     14  C   UNL     1      -1.352  -1.918  -0.056  0.00  0.00    -0.006 C 
BRANCH  14  15
ATOM     15  C   UNL     1      -1.013  -2.268   1.371  0.00  0.00    -0.017 A 
ATOM     16  C   UNL     1      -1.616  -1.738   2.534  0.00  0.00    +0.043 A 
ATOM     17  C   UNL     1      -1.015  -2.323   3.586  0.00  0.00    +0.195 A 
ATOM     18  O   UNL     1      -0.085  -3.174   3.123  0.00  0.00    -0.468 OA
ATOM     19  C   UNL     1      -0.083  -3.149   1.780  0.00  0.00    +0.104 A 
ATOM     20  C   UNL     1       0.812  -3.966   0.885  0.00  0.00    +0.086 C 
ENDBRANCH  14  15
BRANCH  14  21
ATOM     21  N   UNL     1      -1.228  -0.467  -0.246  0.00  0.00    +0.386 N 
ATOM     22  H   UNL     1      -1.801   0.012   0.432  0.00  0.00    -0.085 HD
ATOM     23  H   UNL     1      -1.534  -0.223  -1.177  0.00  0.00    -0.085 HD
BRANCH  21  25
ATOM     24  C   UNL     1       0.304   1.444  -0.270  0.00  0.00    -0.017 C 
ATOM     25  C   UNL     1       0.175  -0.068  -0.071  0.00  0.00    -0.085 C 
ENDBRANCH  21  25
ENDBRANCH  14  21
ENDBRANCH   1  14
TORSDOF 4
