REMARK  Name = ZINC20644861
REMARK  13 active torsions:
REMARK  status: ('A' for Active; 'I' for Inactive)
REMARK    1  A    between atoms: C_1  and  C_2
REMARK    2  A    between atoms: C_2  and  C_3
REMARK    3  A    between atoms: C_3  and  C_5
REMARK    4  A    between atoms: C_3  and  S_15
REMARK    5  A    between atoms: N_7  and  C_8
REMARK    6  A    between atoms: C_8  and  C_9
REMARK    7  A    between atoms: S_15  and  C_16
REMARK    8  A    between atoms: C_20  and  C_34
REMARK    9  A    between atoms: C_21  and  C_23
REMARK   10  A    between atoms: N_25  and  C_26
REMARK   11  A    between atoms: C_29  and  C_33
REMARK   12  A    between atoms: C_31  and  C_32
REMARK   13  A    between atoms: N_37  and  N_38
REMARK                            x       y       z     vdW  Elec       q    Type
REMARK                         _______ _______ _______ _____ _____    ______ ____
ROOT
ATOM      1  C   UNL     1       7.966  -3.369   0.355  0.00  0.00    +0.190 A 
ATOM      2  N   UNL     1       7.547  -2.120   0.370  0.00  0.00    -0.215 NA
ATOM      3  C   UNL     1       6.259  -1.821   0.320  0.00  0.00    +0.117 A 
ATOM      4  C   UNL     1       5.260  -2.822   0.247  0.00  0.00    +0.077 A 
ATOM      5  C   UNL     1       3.942  -2.362   0.206  0.00  0.00    -0.017 A 
ATOM      6  C   UNL     1       3.690  -1.021   0.226  0.00  0.00    +0.080 A 
ATOM      7  S   UNL     1       5.325  -0.312   0.319  0.00  0.00    -0.064 S 
ATOM      8  C   UNL     1       2.801  -3.344   0.136  0.00  0.00    +0.046 C 
ATOM      9  C   UNL     1       5.763  -4.213   0.232  0.00  0.00    +0.280 A 
ATOM     10  O   UNL     1       4.992  -5.154   0.170  0.00  0.00    -0.265 OA
ATOM     11  N   UNL     1       7.094  -4.415   0.287  0.00  0.00    -0.209 N 
ENDROOT
BRANCH   6  12
ATOM     12  C   UNL     1       2.397  -0.334   0.186  0.00  0.00    +0.255 C 
ATOM     13  O   UNL     1       1.367  -0.980   0.123  0.00  0.00    -0.269 OA
ATOM     14  N   UNL     1       2.348   1.012   0.221  0.00  0.00    -0.281 N 
ATOM     15  H   UNL     1       3.280   1.597   0.201  0.00  0.00    +0.155 HD
BRANCH  14  16
ATOM     16  C   UNL     1       1.113   1.665   0.283  0.00  0.00    +0.037 A 
ATOM     17  C   UNL     1       0.008   1.127  -0.363  0.00  0.00    +0.024 A 
ATOM     18  C   UNL     1      -1.209   1.777  -0.304  0.00  0.00    +0.005 A 
ATOM     19  C   UNL     1      -1.330   2.958   0.406  0.00  0.00    -0.050 A 
ATOM     20  C   UNL     1      -0.232   3.497   1.050  0.00  0.00    +0.008 A 
ATOM     21  C   UNL     1       0.990   2.854   0.990  0.00  0.00    -0.029 A 
ATOM     22  C   UNL     1       2.186   3.442   1.693  0.00  0.00    +0.045 C 
ATOM     23  C   UNL     1      -2.661   3.662   0.473  0.00  0.00    +0.044 C 
ENDBRANCH  14  16
ENDBRANCH   6  12
BRANCH  11  24
ATOM     24  N   UNL     1       7.579  -5.692   0.274  0.00  0.00    -0.293 N 
ATOM     25  H   UNL     1       6.884  -6.543   0.219  0.00  0.00    +0.163 HD
ATOM     26  H   UNL     1       8.663  -5.869   0.318  0.00  0.00    +0.163 HD
ENDBRANCH  11  24
BRANCH   1  27
ATOM     27  S   UNL     1       9.696  -3.696   0.424  0.00  0.00    -0.073 S 
BRANCH  27  28
ATOM     28  C   UNL     1      10.325  -2.014   0.647  0.00  0.00    +0.140 C 
BRANCH  28  29
ATOM     29  C   UNL     1      10.118  -1.228  -0.622  0.00  0.00    +0.226 C 
ATOM     30  O   UNL     1       9.945  -1.807  -1.673  0.00  0.00    -0.275 OA
ATOM     31  N   UNL     1      10.124   0.120  -0.588  0.00  0.00    -0.312 N 
ATOM     32  H   UNL     1      10.281   0.645   0.365  0.00  0.00    +0.149 HD
BRANCH  31  33
ATOM     33  C   UNL     1       9.923   0.884  -1.821  0.00  0.00    +0.135 C 
BRANCH  33  34
ATOM     34  C   UNL     1       9.975   2.381  -1.508  0.00  0.00    +0.135 C 
ATOM     35  C   UNL     1       9.756   3.194  -2.799  0.00  0.00    +0.035 C 
ATOM     36  C   UNL     1       8.509   4.059  -2.495  0.00  0.00    +0.031 C 
ATOM     37  C   UNL     1       8.484   4.061  -0.945  0.00  0.00    +0.160 C 
ATOM     38  O   UNL     1       8.918   2.727  -0.597  0.00  0.00    -0.375 OA
ENDBRANCH  33  34
ENDBRANCH  31  33
ENDBRANCH  28  29
BRANCH  28  40
ATOM     39  C   UNL     1      12.018  -2.744   2.333  0.00  0.00    +0.005 C 
ATOM     40  C   UNL     1      11.819  -2.067   0.976  0.00  0.00    +0.020 C 
ENDBRANCH  28  40
ENDBRANCH  27  28
ENDBRANCH   1  27
TORSDOF 9
