REMARK  Name = ZINC24339615
REMARK  8 active torsions:
REMARK  status: ('A' for Active; 'I' for Inactive)
REMARK    1  A    between atoms: C_1  and  N_2
REMARK    2  A    between atoms: N_2  and  C_3
REMARK    3  A    between atoms: N_2  and  C_13
REMARK    4  A    between atoms: C_3  and  C_4
REMARK    5  A    between atoms: C_4  and  O_5
REMARK    6  A    between atoms: O_5  and  C_6
REMARK    7  A    between atoms: C_13  and  C_14
REMARK    8  A    between atoms: C_17  and  C_19
REMARK                            x       y       z     vdW  Elec       q    Type
REMARK                         _______ _______ _______ _____ _____    ______ ____
ROOT
ATOM      1  C   UNL     1      -0.013   1.086   0.008  0.00  0.00    -0.095 C 
ATOM      2  N   UNL     1      -0.700   1.560   1.217  0.00  0.00    +0.386 N 
ATOM      3  H   UNL     1      -1.715   1.136   1.216  0.00  0.00    -0.081 HD
ENDROOT
BRANCH   2   4
ATOM      4  C   UNL     1      -0.822   3.023   1.213  0.00  0.00    -0.037 C 
BRANCH   4   5
ATOM      5  C   UNL     1      -1.748   3.455   0.075  0.00  0.00    +0.210 C 
BRANCH   5   6
ATOM      6  O   UNL     1      -3.068   2.967   0.323  0.00  0.00    -0.494 OA
BRANCH   6   7
ATOM      7  C   UNL     1      -4.020   3.265  -0.601  0.00  0.00    +0.121 A 
ATOM      8  C   UNL     1      -3.692   4.017  -1.719  0.00  0.00    +0.048 A 
ATOM      9  C   UNL     1      -4.659   4.314  -2.659  0.00  0.00    +0.042 A 
ATOM     10  C   UNL     1      -5.959   3.871  -2.481  0.00  0.00    +0.124 A 
ATOM     11  C   UNL     1      -6.289   3.125  -1.362  0.00  0.00    +0.042 A 
ATOM     12  C   UNL     1      -5.323   2.822  -0.423  0.00  0.00    +0.048 A 
ATOM     13  F   UNL     1      -6.905   4.167  -3.399  0.00  0.00    -0.205 F 
ENDBRANCH   6   7
ENDBRANCH   5   6
ENDBRANCH   4   5
ENDBRANCH   2   4
BRANCH   2  14
ATOM     14  C   UNL     1      -0.016   1.091   2.429  0.00  0.00    +0.020 C 
BRANCH  14  15
ATOM     15  C   UNL     1      -0.125  -0.409   2.520  0.00  0.00    +0.202 A 
ATOM     16  N   UNL     1       0.712  -1.273   2.018  0.00  0.00    -0.114 NA
ATOM     17  N   UNL     1       0.312  -2.466   2.287  0.00  0.00    -0.107 NA
ATOM     18  C   UNL     1      -0.808  -2.404   2.967  0.00  0.00    +0.248 A 
ATOM     19  O   UNL     1      -1.106  -1.099   3.127  0.00  0.00    -0.422 OA
BRANCH  18  20
ATOM     20  C   UNL     1      -1.597  -3.550   3.466  0.00  0.00    +0.039 A 
ATOM     21  C   UNL     1      -2.773  -3.332   4.185  0.00  0.00    +0.014 A 
ATOM     22  C   UNL     1      -3.508  -4.406   4.642  0.00  0.00    +0.016 A 
ATOM     23  C   UNL     1      -3.074  -5.699   4.399  0.00  0.00    +0.018 A 
ATOM     24  C   UNL     1      -1.905  -5.921   3.692  0.00  0.00    +0.016 A 
ATOM     25  C   UNL     1      -1.165  -4.855   3.224  0.00  0.00    +0.014 A 
ATOM     26 BR   UNL     1      -4.083  -7.166   5.037  0.00  0.00    -0.050 Br
ENDBRANCH  18  20
ENDBRANCH  14  15
ENDBRANCH   2  14
TORSDOF 7
