REMARK  Name = ZINC04016060
REMARK  4 active torsions:
REMARK  status: ('A' for Active; 'I' for Inactive)
REMARK    1  A    between atoms: C_4  and  C_7
REMARK    2  A    between atoms: C_10  and  C_23
REMARK    3  A    between atoms: N_12  and  C_13
REMARK    4  A    between atoms: C_16  and  S_19
REMARK                            x       y       z     vdW  Elec       q    Type
REMARK                         _______ _______ _______ _____ _____    ______ ____
ROOT
ATOM      1  C   UNL     1       3.711  -0.707  -0.038  0.00  0.00    +0.134 C 
ATOM      2  C   UNL     1       4.022  -1.230  -1.454  0.00  0.00    +0.087 C 
ATOM      3  C   UNL     1       4.083  -2.731  -1.284  0.00  0.00    +0.069 C 
ATOM      4  N   UNL     1       3.860  -3.033  -0.051  0.00  0.00    -0.183 NA
ATOM      5  N   UNL     1       3.631  -1.931   0.776  0.00  0.00    -0.216 N 
ENDROOT
BRANCH   1   9
ATOM      6  C   UNL     1      -0.017   1.378   0.010  0.00  0.00    +0.000 A 
ATOM      7  C   UNL     1       1.171   2.086   0.002  0.00  0.00    +0.000 A 
ATOM      8  C   UNL     1       2.377   1.411  -0.013  0.00  0.00    +0.005 A 
ATOM      9  C   UNL     1       2.396   0.029  -0.020  0.00  0.00    -0.025 A 
ATOM     10  C   UNL     1       1.208  -0.679  -0.012  0.00  0.00    +0.005 A 
ATOM     11  C   UNL     1       0.002  -0.004   0.002  0.00  0.00    +0.000 A 
ENDBRANCH   1   9
BRANCH   5  12
ATOM     12  C   UNL     1       3.368  -1.979   2.145  0.00  0.00    +0.052 A 
ATOM     13  C   UNL     1       3.150  -0.804   2.855  0.00  0.00    +0.027 A 
ATOM     14  C   UNL     1       2.890  -0.856   4.210  0.00  0.00    +0.031 A 
ATOM     15  C   UNL     1       2.848  -2.075   4.861  0.00  0.00    +0.120 A 
ATOM     16  C   UNL     1       3.064  -3.247   4.159  0.00  0.00    +0.031 A 
ATOM     17  C   UNL     1       3.318  -3.203   2.802  0.00  0.00    +0.027 A 
BRANCH  15  18
ATOM     18  S   UNL     1       2.517  -2.136   6.591  0.00  0.00    +0.140 S 
ATOM     19  O   UNL     1       3.206  -3.307   7.112  0.00  0.00    -0.140 OA
ATOM     20  O   UNL     1       3.032  -0.902   7.163  0.00  0.00    -0.140 OA
ATOM     21  O   UNL     1       1.074  -2.244   6.741  0.00  0.00    -0.043 OA
ENDBRANCH  15  18
ENDBRANCH   5  12
BRANCH   3  22
ATOM     22  C   UNL     1       4.354  -3.699  -2.362  0.00  0.00    -0.002 A 
ATOM     23  C   UNL     1       4.587  -3.252  -3.665  0.00  0.00    +0.010 A 
ATOM     24  C   UNL     1       4.841  -4.164  -4.668  0.00  0.00    +0.001 A 
ATOM     25  C   UNL     1       4.864  -5.519  -4.387  0.00  0.00    +0.000 A 
ATOM     26  C   UNL     1       4.635  -5.969  -3.098  0.00  0.00    +0.001 A 
ATOM     27  C   UNL     1       4.386  -5.068  -2.084  0.00  0.00    +0.010 A 
ENDBRANCH   3  22
TORSDOF 4
