REMARK  Name = ZINC36863937
REMARK  7 active torsions:
REMARK  status: ('A' for Active; 'I' for Inactive)
REMARK    1  A    between atoms: C_1  and  C_2
REMARK    2  A    between atoms: C_2  and  N_3
REMARK    3  A    between atoms: C_5  and  S_11
REMARK    4  A    between atoms: C_7  and  C_8
REMARK    5  A    between atoms: S_11  and  N_14
REMARK    6  A    between atoms: C_16  and  C_23
REMARK    7  A    between atoms: C_19  and  C_22
REMARK                            x       y       z     vdW  Elec       q    Type
REMARK                         _______ _______ _______ _____ _____    ______ ____
ROOT
ATOM      1  S   UNL     1      -4.576  -1.863   1.807  0.00  0.00    +0.062 S 
ATOM      2  O   UNL     1      -5.426  -2.689   1.023  0.00  0.00    -0.153 OA
ATOM      3  O   UNL     1      -3.934  -2.331   2.985  0.00  0.00    -0.153 OA
ENDROOT
BRANCH   1   4
ATOM      4  N   UNL     1      -5.474  -0.544   2.249  0.00  0.00    -0.172 NA
ATOM      5  C   UNL     1      -5.125   0.245   3.441  0.00  0.00    +0.140 C 
ATOM      6  C   UNL     1      -6.385   0.408   4.299  0.00  0.00    +0.131 C 
ATOM      7  O   UNL     1      -7.444   0.920   3.486  0.00  0.00    -0.371 OA
ATOM      8  C   UNL     1      -7.830   0.056   2.415  0.00  0.00    +0.131 C 
ATOM      9  C   UNL     1      -6.640  -0.122   1.457  0.00  0.00    +0.140 C 
ATOM     10  C   UNL     1      -9.006   0.675   1.657  0.00  0.00    +0.039 C 
ATOM     11  C   UNL     1      -6.101   1.382   5.444  0.00  0.00    +0.039 C 
ENDBRANCH   1   4
BRANCH   1  14
ATOM     12  N   UNL     1      -1.372  -0.511   0.012  0.00  0.00    -0.340 N 
ATOM     13  C   UNL     1      -2.068  -0.873   1.109  0.00  0.00    +0.115 A 
ATOM     14  C   UNL     1      -3.302  -1.290   0.733  0.00  0.00    +0.124 A 
ATOM     15  C   UNL     1      -3.384  -1.186  -0.658  0.00  0.00    +0.063 A 
ATOM     16  C   UNL     1      -2.170  -0.692  -1.097  0.00  0.00    +0.133 A 
BRANCH  16  17
ATOM     17  C   UNL     1      -1.800  -0.414  -2.483  0.00  0.00    +0.403 C 
ATOM     18  O   UNL     1      -0.685   0.022  -2.744  0.00  0.00    -0.239 OA
ATOM     19  O   UNL     1      -2.604  -0.618  -3.384  0.00  0.00    -0.239 OA
ENDBRANCH  16  17
BRANCH  12  21
ATOM     20  C   UNL     1      -0.019   1.526   0.010  0.00  0.00    +0.027 C 
ATOM     21  C   UNL     1       0.002  -0.004   0.002  0.00  0.00    +0.119 C 
ENDBRANCH  12  21
ENDBRANCH   1  14
TORSDOF 4
