REMARK  Name = ZINC36347418
REMARK  7 active torsions:
REMARK  status: ('A' for Active; 'I' for Inactive)
REMARK    1  A    between atoms: C_1  and  O_2
REMARK    2  A    between atoms: O_2  and  C_3
REMARK    3  A    between atoms: C_5  and  C_11
REMARK    4  A    between atoms: C_7  and  O_9
REMARK    5  A    between atoms: O_9  and  C_10
REMARK    6  A    between atoms: N_21  and  C_22
REMARK    7  A    between atoms: C_22  and  C_23
REMARK                            x       y       z     vdW  Elec       q    Type
REMARK                         _______ _______ _______ _____ _____    ______ ____
ROOT
ATOM      1  C   UNL     1       1.393  -4.064  -2.319  0.00  0.00    +0.011 C 
ATOM      2  C   UNL     1       2.789  -4.561  -2.028  0.00  0.00    +0.009 A 
ATOM      3  C   UNL     1       3.697  -3.964  -1.232  0.00  0.00    +0.021 A 
ATOM      4  C   UNL     1       4.853  -4.770  -1.232  0.00  0.00    +0.019 A 
ATOM      5  C   UNL     1       4.608  -5.828  -2.032  0.00  0.00    +0.086 A 
ATOM      6  N   UNL     1       3.347  -5.702  -2.530  0.00  0.00    -0.352 N 
ATOM      7  C   UNL     1       2.684  -6.619  -3.464  0.00  0.00    +0.119 C 
ATOM      8  C   UNL     1       1.263  -6.895  -2.965  0.00  0.00    +0.003 C 
ATOM      9  C   UNL     1       0.309  -5.843  -3.518  0.00  0.00    -0.075 C 
ATOM     10  N   UNL     1       0.973  -4.543  -3.642  0.00  0.00    +0.391 N 
ATOM     11  H   UNL     1       1.782  -4.637  -4.237  0.00  0.00    -0.080 HD
ENDROOT
BRANCH   1  14
ATOM     12  C   UNL     1       2.150  -0.464  -3.191  0.00  0.00    +0.124 A 
ATOM     13  C   UNL     1       2.158  -1.852  -3.203  0.00  0.00    +0.048 A 
ATOM     14  C   UNL     1       1.383  -2.557  -2.302  0.00  0.00    -0.048 A 
ATOM     15  C   UNL     1       0.598  -1.883  -1.387  0.00  0.00    +0.048 A 
ATOM     16  C   UNL     1       0.586  -0.495  -1.370  0.00  0.00    +0.124 A 
ATOM     17  C   UNL     1       1.367   0.214  -2.269  0.00  0.00    +0.091 A 
BRANCH  12  19
ATOM     18  C   UNL     1       2.858   1.655  -4.003  0.00  0.00    +0.277 C 
ATOM     19  O   UNL     1       2.912   0.229  -4.077  0.00  0.00    -0.495 OA
ENDBRANCH  12  19
BRANCH  16  20
ATOM     20  O   UNL     1      -0.187   0.168  -0.470  0.00  0.00    -0.495 OA
ATOM     21  C   UNL     1      -0.149   1.595  -0.509  0.00  0.00    +0.277 C 
ENDBRANCH  16  20
ENDBRANCH   1  14
BRANCH  10  22
ATOM     22  C   UNL     1       0.042  -3.575  -4.238  0.00  0.00    -0.042 C 
BRANCH  22  23
ATOM     23  C   UNL     1      -0.318  -4.018  -5.633  0.00  0.00    -0.064 A 
ATOM     24  C   UNL     1       0.446  -3.604  -6.708  0.00  0.00    +0.004 A 
ATOM     25  C   UNL     1       0.117  -4.009  -7.987  0.00  0.00    +0.038 A 
ATOM     26  C   UNL     1      -0.979  -4.831  -8.192  0.00  0.00    +0.123 A 
ATOM     27  C   UNL     1      -1.744  -5.245  -7.115  0.00  0.00    +0.038 A 
ATOM     28  C   UNL     1      -1.409  -4.842  -5.836  0.00  0.00    +0.004 A 
ATOM     29  F   UNL     1      -1.302  -5.228  -9.443  0.00  0.00    -0.205 F 
ENDBRANCH  22  23
ENDBRANCH  10  22
TORSDOF 5
