REMARK  Name = ZINC19390362
REMARK  7 active torsions:
REMARK  status: ('A' for Active; 'I' for Inactive)
REMARK    1  A    between atoms: C_1  and  C_2
REMARK    2  A    between atoms: C_2  and  C_4
REMARK    3  A    between atoms: C_2  and  O_11
REMARK    4  A    between atoms: N_9  and  C_10
REMARK    5  A    between atoms: O_11  and  C_12
REMARK    6  A    between atoms: C_12  and  C_14
REMARK    7  A    between atoms: C_16  and  C_29
REMARK                            x       y       z     vdW  Elec       q    Type
REMARK                         _______ _______ _______ _____ _____    ______ ____
ROOT
ATOM      1  C   UNL     1      -1.304   1.932   0.019  0.00  0.00    +0.078 A 
ATOM      2  C   UNL     1      -1.350   3.333   0.027  0.00  0.00    +0.044 A 
ATOM      3  C   UNL     1      -2.601   3.947   0.036  0.00  0.00    +0.074 A 
ATOM      4  N   UNL     1      -3.725   3.259   0.037  0.00  0.00    -0.227 NA
ATOM      5  C   UNL     1      -3.758   1.914   0.030  0.00  0.00    +0.170 A 
ATOM      6  C   UNL     1      -2.508   1.246   0.015  0.00  0.00    +0.073 A 
ATOM      7  S   UNL     1      -2.988  -0.463   0.014  0.00  0.00    -0.050 S 
ATOM      8  C   UNL     1      -4.756  -0.198   0.024  0.00  0.00    +0.164 A 
ATOM      9  N   UNL     1      -4.844   1.114   0.032  0.00  0.00    -0.205 NA
ATOM     10  N   UNL     1      -5.769  -1.132   0.025  0.00  0.00    -0.310 N 
ATOM     11  C   UNL     1      -5.639  -2.050  -1.114  0.00  0.00    +0.107 C 
ATOM     12  C   UNL     1      -6.691  -3.156  -1.001  0.00  0.00    +0.019 C 
ATOM     13  C   UNL     1      -8.086  -2.527  -0.985  0.00  0.00    +0.003 C 
ATOM     14  C   UNL     1      -8.179  -1.540   0.182  0.00  0.00    +0.019 C 
ATOM     15  C   UNL     1      -7.085  -0.480   0.035  0.00  0.00    +0.107 C 
ENDROOT
BRANCH   3  16
ATOM     16  C   UNL     1      -2.669   5.429   0.045  0.00  0.00    +0.000 A 
ATOM     17  C   UNL     1      -1.497   6.183   0.050  0.00  0.00    +0.010 A 
ATOM     18  C   UNL     1      -1.567   7.562   0.052  0.00  0.00    +0.001 A 
ATOM     19  C   UNL     1      -2.797   8.195   0.062  0.00  0.00    +0.000 A 
ATOM     20  C   UNL     1      -3.963   7.451   0.062  0.00  0.00    +0.001 A 
ATOM     21  C   UNL     1      -3.906   6.072   0.054  0.00  0.00    +0.010 A 
ENDBRANCH   3  16
BRANCH   1  22
ATOM     22  C   UNL     1      -0.014   1.210   0.009  0.00  0.00    +0.341 C 
ATOM     23  O   UNL     1       0.002  -0.004   0.002  0.00  0.00    -0.245 OA
BRANCH  22  24
ATOM     24  O   UNL     1       1.143   1.900   0.001  0.00  0.00    -0.449 OA
BRANCH  24  26
ATOM     25  C   UNL     1       2.817   0.846   1.422  0.00  0.00    +0.062 C 
ATOM     26  C   UNL     1       2.371   1.126  -0.015  0.00  0.00    +0.259 C 
BRANCH  26  27
ATOM     27  C   UNL     1       3.446   1.903  -0.731  0.00  0.00    +0.261 C 
ATOM     28  O   UNL     1       3.228   3.036  -1.104  0.00  0.00    -0.271 OA
ATOM     29  N   UNL     1       4.648   1.338  -0.958  0.00  0.00    -0.237 N 
ATOM     30  C   UNL     1       5.609   2.033  -1.598  0.00  0.00    +0.306 C 
ATOM     31  O   UNL     1       5.391   3.169  -1.972  0.00  0.00    -0.252 OA
ATOM     32  N   UNL     1       6.811   1.468  -1.825  0.00  0.00    -0.302 N 
ATOM     33  C   UNL     1       7.856   2.224  -2.522  0.00  0.00    +0.129 C 
ATOM     34  H   UNL     1       4.846   0.310  -0.620  0.00  0.00    +0.159 HD
ATOM     35  H   UNL     1       7.009   0.440  -1.487  0.00  0.00    +0.150 HD
ENDBRANCH  26  27
ENDBRANCH  24  26
ENDBRANCH  22  24
ENDBRANCH   1  22
TORSDOF 5
