REMARK  Name = ZINC02083336
REMARK  10 active torsions:
REMARK  status: ('A' for Active; 'I' for Inactive)
REMARK    1  A    between atoms: C_4  and  C_7
REMARK    2  A    between atoms: N_18  and  C_26
REMARK    3  A    between atoms: C_19  and  C_20
REMARK    4  A    between atoms: C_26  and  C_27
REMARK    5  A    between atoms: C_27  and  C_29
REMARK    6  A    between atoms: C_27  and  O_33
REMARK    7  A    between atoms: C_29  and  N_60
REMARK    8  A    between atoms: C_30  and  C_31
REMARK    9  A    between atoms: C_30  and  N_60
REMARK   10  A    between atoms: C_31  and  O_32
REMARK                            x       y       z     vdW  Elec       q    Type
REMARK                         _______ _______ _______ _____ _____    ______ ____
ROOT
ATOM      1  C   UNL     1      -6.501   1.110  -1.259  0.00  0.00    +0.015 A 
ATOM      2  C   UNL     1      -6.302  -0.111  -2.051  0.00  0.00    +0.009 A 
ATOM      3  C   UNL     1      -7.088  -1.259  -2.264  0.00  0.00    +0.011 A 
ATOM      4  C   UNL     1      -6.656  -2.255  -3.075  0.00  0.00    +0.009 A 
ATOM      5  C   UNL     1      -5.400  -2.161  -3.710  0.00  0.00    -0.016 A 
ATOM      6  C   UNL     1      -4.937  -3.190  -4.546  0.00  0.00    +0.008 A 
ATOM      7  C   UNL     1      -3.720  -3.075  -5.149  0.00  0.00    +0.001 A 
ATOM      8  C   UNL     1      -2.925  -1.950  -4.948  0.00  0.00    +0.001 A 
ATOM      9  C   UNL     1      -3.343  -0.933  -4.143  0.00  0.00    +0.010 A 
ATOM     10  C   UNL     1      -4.590  -1.018  -3.507  0.00  0.00    +0.006 A 
ATOM     11  C   UNL     1      -5.053   0.019  -2.666  0.00  0.00    +0.058 A 
ATOM     12  N   UNL     1      -4.511   1.222  -2.282  0.00  0.00    -0.336 N 
ATOM     13  C   UNL     1      -5.372   1.883  -1.443  0.00  0.00    +0.058 A 
ENDROOT
BRANCH   1  17
ATOM     14  C   UNL     1      -9.883   2.071   1.127  0.00  0.00    +0.000 A 
ATOM     15  C   UNL     1     -10.019   1.955  -0.245  0.00  0.00    +0.001 A 
ATOM     16  C   UNL     1      -8.924   1.643  -1.025  0.00  0.00    +0.008 A 
ATOM     17  C   UNL     1      -7.679   1.445  -0.428  0.00  0.00    -0.015 A 
ATOM     18  C   UNL     1      -7.550   1.559   0.957  0.00  0.00    +0.008 A 
ATOM     19  C   UNL     1      -8.651   1.876   1.725  0.00  0.00    +0.001 A 
ENDBRANCH   1  17
BRANCH  13  20
ATOM     20  C   UNL     1      -5.129   3.206  -0.834  0.00  0.00    -0.001 A 
ATOM     21  C   UNL     1      -3.955   3.444  -0.117  0.00  0.00    +0.010 A 
ATOM     22  C   UNL     1      -3.732   4.684   0.444  0.00  0.00    +0.001 A 
ATOM     23  C   UNL     1      -4.675   5.688   0.307  0.00  0.00    +0.000 A 
ATOM     24  C   UNL     1      -5.843   5.458  -0.397  0.00  0.00    +0.001 A 
ATOM     25  C   UNL     1      -6.076   4.224  -0.968  0.00  0.00    +0.010 A 
ENDBRANCH  13  20
BRANCH  12  26
ATOM     26  C   UNL     1      -3.206   1.728  -2.712  0.00  0.00    +0.151 C 
BRANCH  26  27
ATOM     27  C   UNL     1      -3.347   2.411  -4.074  0.00  0.00    +0.117 C 
BRANCH  27  28
ATOM     28  O   UNL     1      -4.203   3.548  -3.950  0.00  0.00    -0.392 OA
ATOM     29  H   UNL     1      -3.883   4.216  -3.328  0.00  0.00    +0.210 HD
ENDBRANCH  27  28
BRANCH  27  30
ATOM     30  C   UNL     1      -1.969   2.861  -4.564  0.00  0.00    -0.049 C 
BRANCH  30  31
ATOM     31  N   UNL     1      -2.114   3.518  -5.877  0.00  0.00    +0.382 N 
ATOM     32  H   UNL     1      -2.733   4.331  -5.782  0.00  0.00    -0.086 HD
ATOM     33  H   UNL     1      -2.522   2.853  -6.545  0.00  0.00    -0.086 HD
BRANCH  31  34
ATOM     34  C   UNL     1      -0.799   3.962  -6.375  0.00  0.00    -0.054 C 
BRANCH  34  35
ATOM     35  C   UNL     1      -0.980   4.639  -7.736  0.00  0.00    +0.137 C 
BRANCH  35  36
ATOM     36  O   UNL     1      -1.751   5.831  -7.575  0.00  0.00    -0.397 OA
ATOM     37  H   UNL     1      -1.906   6.313  -8.399  0.00  0.00    +0.209 HD
ENDBRANCH  35  36
ENDBRANCH  34  35
ENDBRANCH  31  34
ENDBRANCH  30  31
ENDBRANCH  27  30
ENDBRANCH  26  27
ENDBRANCH  12  26
TORSDOF 10
