REMARK  Name = ZINC37943934
REMARK  3 active torsions:
REMARK  status: ('A' for Active; 'I' for Inactive)
REMARK    1  A    between atoms: C_2  and  C_11
REMARK    2  A    between atoms: C_11  and  C_13
REMARK    3  A    between atoms: C_11  and  N_16
REMARK                            x       y       z     vdW  Elec       q    Type
REMARK                         _______ _______ _______ _____ _____    ______ ____
ROOT
ATOM      1  C   UNL     1       1.147   3.596   0.010  0.00  0.00    +0.174 C 
ENDROOT
BRANCH   1   3
ATOM      2  C   UNL     1       2.282   1.367   0.073  0.00  0.00    +0.055 A 
ATOM      3  C   UNL     1       1.104   2.091   0.068  0.00  0.00    -0.017 A 
ATOM      4  C   UNL     1      -0.113   1.438   0.117  0.00  0.00    +0.024 A 
ATOM      5  C   UNL     1      -0.157   0.056   0.171  0.00  0.00    +0.064 A 
ATOM      6  C   UNL     1       1.020  -0.676   0.176  0.00  0.00    +0.180 A 
ATOM      7  C   UNL     1       2.246  -0.017   0.127  0.00  0.00    +0.168 A 
ATOM      8  O   UNL     1       3.243  -0.948   0.144  0.00  0.00    -0.453 OA
ATOM      9  C   UNL     1       2.628  -2.162   0.615  0.00  0.00    +0.466 C 
ATOM     10  O   UNL     1       1.250  -2.021   0.224  0.00  0.00    -0.451 OA
ATOM     11 BR   UNL     1      -1.824  -0.835   0.238  0.00  0.00    -0.046 Br
ENDBRANCH   1   3
BRANCH   1  12
ATOM     12  N   UNL     1       2.128   4.096   0.983  0.00  0.00    -0.290 NA
ATOM     13  C   UNL     1       2.103   5.538   1.049  0.00  0.00    +0.083 C 
ATOM     14  C   UNL     1       3.501   6.155   1.250  0.00  0.00    -0.004 C 
ATOM     15  C   UNL     1       4.342   5.366   2.273  0.00  0.00    -0.081 C 
ATOM     16  N   UNL     1       3.555   4.948   3.408  0.00  0.00    +0.380 N 
ATOM     17  C   UNL     1       3.088   3.570   3.160  0.00  0.00    -0.067 C 
ATOM     18  C   UNL     1       1.889   3.513   2.327  0.00  0.00    +0.066 C 
ATOM     19  H   UNL     1       4.121   4.971   4.243  0.00  0.00    -0.086 HD
ATOM     20  H   UNL     1       2.761   5.562   3.518  0.00  0.00    -0.086 HD
ENDBRANCH   1  12
BRANCH   1  21
ATOM     21  C   UNL     1       1.546   4.035  -1.375  0.00  0.00    +0.232 C 
ATOM     22  O   UNL     1       2.548   4.698  -1.537  0.00  0.00    -0.274 OA
ATOM     23  N   UNL     1       0.788   3.689  -2.435  0.00  0.00    -0.328 N 
ATOM     24  H   UNL     1      -0.014   3.159  -2.306  0.00  0.00    +0.145 HD
ATOM     25  H   UNL     1       1.045   3.971  -3.327  0.00  0.00    +0.145 HD
ENDBRANCH   1  21
TORSDOF 3
