REMARK  Name = ZINC36028193
REMARK  11 active torsions:
REMARK  status: ('A' for Active; 'I' for Inactive)
REMARK    1  A    between atoms: C_1  and  C_2
REMARK    2  A    between atoms: C_2  and  C_3
REMARK    3  A    between atoms: C_3  and  C_5
REMARK    4  A    between atoms: C_3  and  C_6
REMARK    5  A    between atoms: C_6  and  N_7
REMARK    6  A    between atoms: C_10  and  C_29
REMARK    7  A    between atoms: N_16  and  S_19
REMARK    8  A    between atoms: S_19  and  C_22
REMARK    9  A    between atoms: C_29  and  C_31
REMARK   10  A    between atoms: C_29  and  C_32
REMARK   11  A    between atoms: C_32  and  C_33
REMARK                            x       y       z     vdW  Elec       q    Type
REMARK                         _______ _______ _______ _____ _____    ______ ____
ROOT
ATOM      1  N   UNL     1       1.535  -2.493  -2.410  0.00  0.00    -0.313 N 
ATOM      2  C   UNL     1       0.941  -2.749  -3.595  0.00  0.00    +0.201 C 
ATOM      3  O   UNL     1      -0.242  -2.631  -3.834  0.00  0.00    -0.277 OA
ATOM      4  C   UNL     1       2.000  -3.208  -4.574  0.00  0.00    +0.022 C 
ATOM      5  N   UNL     1       3.286  -2.797  -3.960  0.00  0.00    +0.401 N 
ATOM      6  C   UNL     1       2.973  -2.755  -2.518  0.00  0.00    +0.006 C 
ATOM      7  C   UNL     1       3.766  -1.635  -1.848  0.00  0.00    +0.023 C 
ATOM      8  C   UNL     1       3.408  -1.579  -0.359  0.00  0.00    +0.109 C 
ATOM      9  N   UNL     1       3.613  -2.910   0.227  0.00  0.00    -0.177 NA
ATOM     10  C   UNL     1       2.951  -4.066  -0.393  0.00  0.00    +0.109 C 
ATOM     11  C   UNL     1       3.314  -4.101  -1.881  0.00  0.00    +0.023 C 
ATOM     12  H   UNL     1       4.006  -3.477  -4.151  0.00  0.00    -0.082 HD
ATOM     13  H   UNL     1       3.561  -1.883  -4.288  0.00  0.00    -0.082 HD
ENDROOT
BRANCH   9  14
ATOM     14  S   UNL     1       4.574  -3.104   1.562  0.00  0.00    +0.061 S 
ATOM     15  O   UNL     1       5.022  -4.452   1.548  0.00  0.00    -0.153 OA
ATOM     16  O   UNL     1       5.471  -2.003   1.581  0.00  0.00    -0.153 OA
BRANCH  14  17
ATOM     17  C   UNL     1       3.538  -2.934   2.978  0.00  0.00    +0.107 A 
ATOM     18  C   UNL     1       3.344  -1.688   3.546  0.00  0.00    +0.028 A 
ATOM     19  C   UNL     1       2.531  -1.554   4.656  0.00  0.00    +0.003 A 
ATOM     20  C   UNL     1       1.914  -2.665   5.200  0.00  0.00    +0.020 A 
ATOM     21  C   UNL     1       2.108  -3.911   4.632  0.00  0.00    +0.043 A 
ATOM     22  C   UNL     1       2.917  -4.044   3.517  0.00  0.00    +0.048 A 
ATOM     23 CL   UNL     1       1.333  -5.306   5.314  0.00  0.00    -0.083 Cl
ENDBRANCH  14  17
ENDBRANCH   9  14
BRANCH   4  24
ATOM     24  C   UNL     1       1.808  -2.519  -5.927  0.00  0.00    -0.020 C 
ATOM     25  C   UNL     1       2.910  -2.970  -6.888  0.00  0.00    +0.006 C 
BRANCH  24  26
ATOM     26  C   UNL     1       0.442  -2.898  -6.502  0.00  0.00    -0.001 C 
ATOM     27  C   UNL     1       0.198  -2.114  -7.793  0.00  0.00    +0.004 C 
ENDBRANCH  24  26
ENDBRANCH   4  24
BRANCH   1  28
ATOM     28  C   UNL     1       0.849  -2.021  -1.205  0.00  0.00    +0.109 C 
BRANCH  28  29
ATOM     29  C   UNL     1       0.801  -0.492  -1.212  0.00  0.00    +0.003 C 
ATOM     30  C   UNL     1      -0.081  -0.015  -2.368  0.00  0.00    +0.009 C 
BRANCH  29  32
ATOM     31  C   UNL     1       0.286   1.534   0.157  0.00  0.00    +0.004 C 
ATOM     32  C   UNL     1       0.219   0.006   0.113  0.00  0.00    +0.001 C 
ENDBRANCH  29  32
ENDBRANCH  28  29
ENDBRANCH   1  28
TORSDOF 7
