REMARK  Name = ZINC24631157
REMARK  5 active torsions:
REMARK  status: ('A' for Active; 'I' for Inactive)
REMARK    1  A    between atoms: C_3  and  C_6
REMARK    2  A    between atoms: C_6  and  C_8
REMARK    3  A    between atoms: C_6  and  N_29
REMARK    4  A    between atoms: C_8  and  N_9
REMARK    5  A    between atoms: C_10  and  C_12
REMARK                            x       y       z     vdW  Elec       q    Type
REMARK                         _______ _______ _______ _____ _____    ______ ____
ROOT
ATOM      1  N   UNL     1       3.316  -3.406  -1.403  0.00  0.00    -0.313 N 
ATOM      2  C   UNL     1       3.526  -4.098  -2.541  0.00  0.00    +0.244 C 
ATOM      3  O   UNL     1       3.078  -3.687  -3.593  0.00  0.00    -0.270 OA
ATOM      4  H   UNL     1       3.723  -3.778  -0.451  0.00  0.00    +0.149 HD
ENDROOT
BRANCH   2   5
ATOM      5  C   UNL     1       4.303  -5.356  -2.509  0.00  0.00    +0.039 A 
ATOM      6  C   UNL     1       4.814  -5.827  -1.294  0.00  0.00    +0.014 A 
ATOM      7  C   UNL     1       5.542  -6.979  -1.251  0.00  0.00    +0.016 A 
ATOM      8  C   UNL     1       5.770  -7.701  -2.415  0.00  0.00    +0.065 A 
ATOM      9  C   UNL     1       5.243  -7.255  -3.646  0.00  0.00    +0.079 A 
ATOM     10  C   UNL     1       4.516  -6.065  -3.687  0.00  0.00    +0.041 A 
ATOM     11  N   UNL     1       5.486  -8.006  -4.742  0.00  0.00    -0.233 NA
ATOM     12  C   UNL     1       6.145  -9.120  -4.749  0.00  0.00    +0.113 A 
ATOM     13  N   UNL     1       6.612  -9.661  -3.601  0.00  0.00    -0.296 N 
ATOM     14  C   UNL     1       6.548  -8.941  -2.437  0.00  0.00    +0.262 A 
ATOM     15  O   UNL     1       7.123  -9.359  -1.451  0.00  0.00    -0.267 OA
ATOM     16  C   UNL     1       7.170 -10.986  -3.433  0.00  0.00    +0.126 C 
ATOM     17  C   UNL     1       7.500 -11.776  -4.700  0.00  0.00    +0.022 C 
ATOM     18  C   UNL     1       6.290 -12.623  -5.059  0.00  0.00    +0.002 C 
ATOM     19  C   UNL     1       5.194 -12.033  -5.885  0.00  0.00    +0.000 C 
ATOM     20  C   UNL     1       5.150 -10.619  -6.449  0.00  0.00    +0.008 C 
ATOM     21  C   UNL     1       6.379  -9.780  -6.099  0.00  0.00    +0.074 C 
ENDBRANCH   2   5
BRANCH   1  22
ATOM     22  C   UNL     1       2.547  -2.160  -1.435  0.00  0.00    +0.094 C 
BRANCH  22  23
ATOM     23  C   UNL     1       2.567  -1.513  -0.049  0.00  0.00    -0.013 C 
BRANCH  23  24
ATOM     24  N   UNL     1       1.693  -0.332  -0.047  0.00  0.00    +0.386 N 
ATOM     25  C   UNL     1       0.297  -0.702  -0.394  0.00  0.00    -0.078 C 
ATOM     26  C   UNL     1      -0.532   0.485   0.158  0.00  0.00    -0.020 C 
ATOM     27  C   UNL     1       0.204   0.840   1.471  0.00  0.00    -0.020 C 
ATOM     28  C   UNL     1       1.627   0.276   1.300  0.00  0.00    -0.078 C 
ATOM     29  H   UNL     1       2.127   0.362  -0.782  0.00  0.00    -0.081 HD
ENDBRANCH  23  24
BRANCH  23  32
ATOM     30  C   UNL     1       6.130  -1.153   1.249  0.00  0.00    +0.008 A 
ATOM     31  C   UNL     1       4.884  -1.726   1.077  0.00  0.00    +0.009 A 
ATOM     32  C   UNL     1       3.974  -1.097   0.292  0.00  0.00    -0.022 A 
ATOM     33  S   UNL     1       4.878   0.350  -0.233  0.00  0.00    -0.103 S 
ATOM     34  C   UNL     1       6.406   0.020   0.629  0.00  0.00    +0.045 A 
ENDBRANCH  23  32
ENDBRANCH  22  23
ENDBRANCH   1  22
TORSDOF 5
