REMARK  Name = ZINC08798781
REMARK  10 active torsions:
REMARK  status: ('A' for Active; 'I' for Inactive)
REMARK    1  A    between atoms: C_1  and  N_2
REMARK    2  A    between atoms: C_10  and  C_12
REMARK    3  A    between atoms: C_12  and  C_14
REMARK    4  A    between atoms: C_12  and  N_55
REMARK    5  A    between atoms: C_14  and  N_15
REMARK    6  A    between atoms: N_15  and  S_16
REMARK    7  A    between atoms: S_16  and  C_19
REMARK    8  A    between atoms: C_24  and  N_25
REMARK    9  A    between atoms: C_28  and  N_55
REMARK   10  A    between atoms: C_29  and  N_55
REMARK                            x       y       z     vdW  Elec       q    Type
REMARK                         _______ _______ _______ _____ _____    ______ ____
ROOT
ATOM      1  C   UNL     1       3.538  -0.893   4.168  0.00  0.00    -0.023 C 
ENDROOT
BRANCH   1  11
ATOM      2  C   UNL     1      -1.970   0.479   1.395  0.00  0.00    +0.129 C 
ATOM      3  N   UNL     1      -0.685   0.647   0.703  0.00  0.00    -0.333 N 
ATOM      4  C   UNL     1      -0.567   1.992   0.136  0.00  0.00    +0.105 C 
ATOM      5  C   UNL     1       0.800   2.119  -0.547  0.00  0.00    +0.024 C 
ATOM      6  C   UNL     1       1.875   2.091   0.541  0.00  0.00    +0.038 C 
ATOM      7  C   UNL     1       1.605   0.953   1.493  0.00  0.00    -0.026 A 
ATOM      8  C   UNL     1       0.380   0.310   1.537  0.00  0.00    +0.033 A 
ATOM      9  C   UNL     1       0.183  -0.727   2.451  0.00  0.00    +0.023 A 
ATOM     10  C   UNL     1       1.200  -1.113   3.298  0.00  0.00    +0.004 A 
ATOM     11  C   UNL     1       2.424  -0.471   3.245  0.00  0.00    -0.059 A 
ATOM     12  C   UNL     1       2.623   0.558   2.345  0.00  0.00    +0.007 A 
ENDBRANCH   1  11
BRANCH   1  15
ATOM     13  C   UNL     1       2.974  -3.246   4.245  0.00  0.00    -0.096 C 
ATOM     14  C   UNL     1       4.251  -2.368   2.385  0.00  0.00    -0.096 C 
ATOM     15  N   UNL     1       3.995  -2.259   3.836  0.00  0.00    +0.381 N 
ATOM     16  H   UNL     1       4.867  -2.451   4.344  0.00  0.00    -0.082 HD
ENDBRANCH   1  15
BRANCH   1  17
ATOM     17  C   UNL     1       3.040  -0.868   5.614  0.00  0.00    +0.095 C 
BRANCH  17  18
ATOM     18  N   UNL     1       4.074  -1.414   6.496  0.00  0.00    -0.191 NA
ATOM     19  H   UNL     1       4.805  -1.933   6.124  0.00  0.00    +0.148 HD
BRANCH  18  20
ATOM     20  S   UNL     1       3.995  -1.147   8.129  0.00  0.00    +0.061 S 
ATOM     21  O   UNL     1       5.039  -1.912   8.716  0.00  0.00    -0.153 OA
ATOM     22  O   UNL     1       3.889   0.259   8.305  0.00  0.00    -0.153 OA
BRANCH  20  23
ATOM     23  C   UNL     1       2.480  -1.842   8.698  0.00  0.00    +0.135 A 
ATOM     24  C   UNL     1       1.450  -1.015   9.106  0.00  0.00    +0.031 A 
ATOM     25  C   UNL     1       0.259  -1.560   9.549  0.00  0.00    +0.002 A 
ATOM     26  C   UNL     1       0.102  -2.933   9.593  0.00  0.00    +0.002 A 
ATOM     27  C   UNL     1       1.133  -3.760   9.190  0.00  0.00    +0.035 A 
ATOM     28  C   UNL     1       2.322  -3.214   8.742  0.00  0.00    +0.152 A 
BRANCH  28  29
ATOM     29  N   UNL     1       3.427  -4.100   8.311  0.00  0.00    +0.058 N 
ATOM     30  O   UNL     1       3.344  -5.304   8.481  0.00  0.00    -0.126 OA
ATOM     31  O   UNL     1       4.419  -3.626   7.787  0.00  0.00    -0.126 OA
ENDBRANCH  28  29
ENDBRANCH  20  23
ENDBRANCH  18  20
ENDBRANCH  17  18
ENDBRANCH   1  17
TORSDOF 7
