REMARK  Name = ZINC01085021
REMARK  9 active torsions:
REMARK  status: ('A' for Active; 'I' for Inactive)
REMARK    1  A    between atoms: C_6  and  C_7
REMARK    2  A    between atoms: C_7  and  O_8
REMARK    3  A    between atoms: O_8  and  C_9
REMARK    4  A    between atoms: C_12  and  C_18
REMARK    5  A    between atoms: C_14  and  N_15
REMARK    6  A    between atoms: C_27  and  C_35
REMARK    7  A    between atoms: C_28  and  N_34
REMARK    8  A    between atoms: C_29  and  C_30
REMARK    9  A    between atoms: C_29  and  C_32
REMARK                            x       y       z     vdW  Elec       q    Type
REMARK                         _______ _______ _______ _____ _____    ______ ____
ROOT
ATOM      1  C   UNL     1      -4.994   1.131   0.033  0.00  0.00    +0.066 C 
ATOM      2  C   UNL     1      -5.747   1.396   1.337  0.00  0.00    +0.030 C 
ATOM      3  C   UNL     1      -5.078   0.744   2.523  0.00  0.00    +0.009 C 
ATOM      4  C   UNL     1      -4.253   1.741   3.335  0.00  0.00    +0.005 C 
ATOM      5  C   UNL     1      -5.183   2.868   3.805  0.00  0.00    +0.027 C 
ATOM      6  C   UNL     1      -5.730   3.552   2.578  0.00  0.00    -0.022 C 
ATOM      7  C   UNL     1      -5.954   2.876   1.469  0.00  0.00    -0.029 C 
ATOM      8  C   UNL     1      -6.438   3.595   0.262  0.00  0.00    +0.074 C 
ATOM      9  C   UNL     1      -6.376   2.979  -0.946  0.00  0.00    +0.054 C 
ATOM     10  C   UNL     1      -5.864   1.584  -1.141  0.00  0.00    +0.188 C 
ENDROOT
BRANCH   1  14
ATOM     11  C   UNL     1      -1.326   3.324   0.026  0.00  0.00    +0.151 A 
ATOM     12  C   UNL     1      -2.497   3.927  -0.409  0.00  0.00    +0.048 A 
ATOM     13  C   UNL     1      -3.681   3.216  -0.406  0.00  0.00    +0.008 A 
ATOM     14  C   UNL     1      -3.700   1.904   0.030  0.00  0.00    -0.038 A 
ATOM     15  C   UNL     1      -2.534   1.299   0.459  0.00  0.00    +0.040 A 
ATOM     16  C   UNL     1      -1.348   2.007   0.464  0.00  0.00    +0.168 A 
BRANCH  16  17
ATOM     17  N   UNL     1      -0.100   1.361   0.929  0.00  0.00    +0.060 N 
ATOM     18  O   UNL     1      -0.120   0.205   1.312  0.00  0.00    -0.126 OA
ATOM     19  O   UNL     1       0.947   1.982   0.923  0.00  0.00    -0.126 OA
ENDBRANCH  16  17
BRANCH  11  20
ATOM     20  O   UNL     1      -0.159   4.021   0.025  0.00  0.00    -0.485 OA
BRANCH  20  21
ATOM     21  C   UNL     1      -0.212   5.372  -0.439  0.00  0.00    +0.264 C 
BRANCH  21  27
ATOM     22  C   UNL     1       1.572   6.639   0.777  0.00  0.00    +0.008 A 
ATOM     23  C   UNL     1       2.836   7.192   0.844  0.00  0.00    +0.020 A 
ATOM     24  C   UNL     1       3.691   7.098  -0.239  0.00  0.00    +0.041 A 
ATOM     25  C   UNL     1       3.281   6.444  -1.388  0.00  0.00    +0.020 A 
ATOM     26  C   UNL     1       2.019   5.886  -1.452  0.00  0.00    +0.008 A 
ATOM     27  C   UNL     1       1.165   5.981  -0.368  0.00  0.00    -0.010 A 
ATOM     28 CL   UNL     1       5.277   7.799  -0.158  0.00  0.00    -0.084 Cl
ENDBRANCH  21  27
ENDBRANCH  20  21
ENDBRANCH  11  20
ENDBRANCH   1  14
BRANCH   9  29
ATOM     29  N   UNL     1      -6.804   3.669  -2.045  0.00  0.00    -0.358 N 
ATOM     30  H   UNL     1      -6.767   3.198  -3.039  0.00  0.00    +0.142 HD
ATOM     31  H   UNL     1      -7.186   4.695  -1.937  0.00  0.00    +0.142 HD
ENDBRANCH   9  29
BRANCH  10  32
ATOM     32  C   UNL     1      -5.066   1.534  -2.377  0.00  0.00    +0.091 C 
ATOM     33  N   UNL     1      -4.450   1.495  -3.331  0.00  0.00    -0.194 NA
ENDBRANCH  10  32
BRANCH  10  34
ATOM     34  C   UNL     1      -7.008   0.668  -1.271  0.00  0.00    +0.091 C 
ATOM     35  N   UNL     1      -7.892  -0.039  -1.372  0.00  0.00    -0.194 NA
ENDBRANCH  10  34
BRANCH   8  36
ATOM     36  C   UNL     1      -6.963   4.923   0.371  0.00  0.00    +0.101 C 
ATOM     37  N   UNL     1      -7.380   5.976   0.458  0.00  0.00    -0.191 NA
ENDBRANCH   8  36
TORSDOF 9
