REMARK  Name = ZINC08858066
REMARK  13 active torsions:
REMARK  status: ('A' for Active; 'I' for Inactive)
REMARK    1  A    between atoms: C_1  and  C_2
REMARK    2  A    between atoms: C_2  and  C_3
REMARK    3  A    between atoms: C_3  and  N_4
REMARK    4  A    between atoms: N_4  and  C_5
REMARK    5  A    between atoms: C_6  and  C_17
REMARK    6  A    between atoms: C_13  and  C_16
REMARK    7  A    between atoms: N_21  and  C_25
REMARK    8  A    between atoms: C_25  and  C_26
REMARK    9  A    between atoms: C_26  and  C_27
REMARK   10  A    between atoms: C_30  and  O_35
REMARK   11  A    between atoms: C_31  and  O_33
REMARK   12  A    between atoms: O_33  and  C_34
REMARK   13  A    between atoms: O_35  and  C_36
REMARK                            x       y       z     vdW  Elec       q    Type
REMARK                         _______ _______ _______ _____ _____    ______ ____
ROOT
ATOM      1  C   UNL     1       2.451   3.212  -0.004  0.00  0.00    +0.037 C 
ATOM      2  C   UNL     1       1.748   2.042  -0.031  0.00  0.00    +0.077 C 
ATOM      3  C   UNL     1       2.205   0.706   0.153  0.00  0.00    +0.258 C 
ATOM      4  O   UNL     1       3.381   0.471   0.373  0.00  0.00    -0.269 OA
ATOM      5  N   UNL     1       1.319  -0.271   0.080  0.00  0.00    -0.255 N 
ATOM      6  C   UNL     1       0.015  -0.010  -0.163  0.00  0.00    +0.121 C 
ATOM      7  S   UNL     1      -1.293  -1.107  -0.299  0.00  0.00    -0.027 S 
ATOM      8  S   UNL     1       0.003   1.771  -0.306  0.00  0.00    -0.061 S 
ENDROOT
BRANCH   1  10
ATOM      9  C   UNL     1       0.748   4.784   0.821  0.00  0.00    +0.134 A 
ATOM     10  C   UNL     1       1.771   4.448  -0.097  0.00  0.00    +0.081 A 
ATOM     11  C   UNL     1       2.092   5.378  -1.115  0.00  0.00    +0.267 A 
ATOM     12  O   UNL     1       2.963   5.128  -1.930  0.00  0.00    -0.267 OA
ATOM     13  N   UNL     1       1.417   6.546  -1.167  0.00  0.00    -0.267 N 
ATOM     14  C   UNL     1       1.719   7.448  -2.144  0.00  0.00    +0.096 A 
ATOM     15  C   UNL     1       1.063   8.627  -2.225  0.00  0.00    +0.019 A 
ATOM     16  C   UNL     1       0.057   8.937  -1.299  0.00  0.00    +0.008 A 
ATOM     17  C   UNL     1      -0.253   8.042  -0.319  0.00  0.00    -0.007 A 
ATOM     18  C   UNL     1       0.441   6.820  -0.250  0.00  0.00    +0.145 A 
ATOM     19  N   UNL     1       0.130   5.951   0.712  0.00  0.00    -0.214 NA
ATOM     20  C   UNL     1      -1.331   8.360   0.685  0.00  0.00    +0.047 C 
BRANCH   9  21
ATOM     21  N   UNL     1       0.401   3.906   1.824  0.00  0.00    -0.328 N 
ATOM     22  H   UNL     1       0.858   3.054   1.903  0.00  0.00    +0.147 HD
BRANCH  21  23
ATOM     23  C   UNL     1      -0.659   4.259   2.772  0.00  0.00    +0.102 C 
BRANCH  23  25
ATOM     24  C   UNL     1      -1.952   3.488   4.766  0.00  0.00    +0.005 C 
ATOM     25  C   UNL     1      -0.846   3.120   3.776  0.00  0.00    +0.015 C 
ENDBRANCH  23  25
ENDBRANCH  21  23
ENDBRANCH   9  21
ENDBRANCH   1  10
BRANCH   5  26
ATOM     26  C   UNL     1       1.755  -1.658   0.264  0.00  0.00    +0.119 C 
BRANCH  26  27
ATOM     27  C   UNL     1       2.149  -2.252  -1.090  0.00  0.00    +0.054 C 
BRANCH  27  28
ATOM     28  C   UNL     1       2.598  -3.679  -0.900  0.00  0.00    -0.042 A 
ATOM     29  C   UNL     1       1.677  -4.707  -0.976  0.00  0.00    +0.007 A 
ATOM     30  C   UNL     1       2.084  -6.017  -0.803  0.00  0.00    +0.049 A 
ATOM     31  C   UNL     1       3.417  -6.301  -0.553  0.00  0.00    +0.161 A 
ATOM     32  C   UNL     1       4.344  -5.266  -0.478  0.00  0.00    +0.162 A 
ATOM     33  C   UNL     1       3.930  -3.955  -0.657  0.00  0.00    +0.053 A 
BRANCH  32  34
ATOM     34  O   UNL     1       5.653  -5.540  -0.233  0.00  0.00    -0.491 OA
ATOM     35  C   UNL     1       6.548  -4.427  -0.169  0.00  0.00    +0.277 C 
ENDBRANCH  32  34
BRANCH  31  36
ATOM     36  O   UNL     1       3.819  -7.589  -0.383  0.00  0.00    -0.491 OA
ATOM     37  C   UNL     1       2.813  -8.600  -0.474  0.00  0.00    +0.277 C 
ENDBRANCH  31  36
ENDBRANCH  27  28
ENDBRANCH  26  27
ENDBRANCH   5  26
TORSDOF 9
