REMARK  Name = ZINC08872140
REMARK  5 active torsions:
REMARK  status: ('A' for Active; 'I' for Inactive)
REMARK    1  A    between atoms: C_1  and  C_2
REMARK    2  A    between atoms: C_5  and  N_9
REMARK    3  A    between atoms: N_22  and  N_23
REMARK    4  A    between atoms: C_24  and  C_25
REMARK    5  A    between atoms: C_29  and  O_31
REMARK                            x       y       z     vdW  Elec       q    Type
REMARK                         _______ _______ _______ _____ _____    ______ ____
ROOT
ATOM      1  N   UNL     1      -4.783   9.214  -0.822  0.00  0.00    -0.282 N 
ATOM      2  C   UNL     1      -4.771   7.846  -0.630  0.00  0.00    +0.225 A 
ATOM      3  N   UNL     1      -3.619   7.214  -0.428  0.00  0.00    -0.179 NA
ATOM      4  C   UNL     1      -3.606   5.897  -0.249  0.00  0.00    +0.241 A 
ATOM      5  N   UNL     1      -4.747   5.213  -0.261  0.00  0.00    -0.180 NA
ATOM      6  C   UNL     1      -5.899   5.846  -0.458  0.00  0.00    +0.224 A 
ATOM      7  N   UNL     1      -5.911   7.163  -0.642  0.00  0.00    -0.181 NA
ATOM      8  N   UNL     1      -7.082   5.136  -0.471  0.00  0.00    -0.295 N 
ATOM      9  C   UNL     1      -8.025   5.666   0.525  0.00  0.00    +0.136 C 
ATOM     10  C   UNL     1      -9.342   4.891   0.435  0.00  0.00    +0.179 C 
ATOM     11  O   UNL     1      -9.083   3.497   0.623  0.00  0.00    -0.377 OA
ATOM     12  C   UNL     1      -8.169   2.948  -0.331  0.00  0.00    +0.179 C 
ATOM     13  C   UNL     1      -6.840   3.704  -0.249  0.00  0.00    +0.136 C 
ATOM     14  N   UNL     1      -2.409   5.239  -0.045  0.00  0.00    -0.205 N 
ATOM     15  H   UNL     1      -5.617   9.668  -1.022  0.00  0.00    +0.155 HD
ATOM     16  H   UNL     1      -2.400   4.279   0.090  0.00  0.00    +0.177 HD
ENDROOT
BRANCH   1  21
ATOM     17  C   UNL     1       0.038  12.180  -0.435  0.00  0.00    +0.045 C 
ATOM     18  C   UNL     1      -1.242  11.393  -0.538  0.00  0.00    -0.031 A 
ATOM     19  C   UNL     1      -2.434  11.955  -0.118  0.00  0.00    +0.022 A 
ATOM     20  C   UNL     1      -3.610  11.238  -0.215  0.00  0.00    +0.039 A 
ATOM     21  C   UNL     1      -3.594   9.945  -0.726  0.00  0.00    +0.049 A 
ATOM     22  C   UNL     1      -2.397   9.383  -1.147  0.00  0.00    +0.044 A 
ATOM     23  C   UNL     1      -1.224  10.108  -1.052  0.00  0.00    +0.046 A 
ATOM     24 CL   UNL     1       0.275   9.406  -1.578  0.00  0.00    -0.083 Cl
ATOM     25 BR   UNL     1      -5.240  12.011   0.352  0.00  0.00    -0.048 Br
ENDBRANCH   1  21
BRANCH  14  26
ATOM     26  N   UNL     1      -1.207   5.959  -0.032  0.00  0.00    -0.188 NA
ATOM     27  C   UNL     1      -0.074   5.330   0.034  0.00  0.00    +0.138 C 
BRANCH  27  28
ATOM     28  C   UNL     1       0.029   3.944  -0.459  0.00  0.00    -0.002 A 
ATOM     29  C   UNL     1      -0.978   3.410  -1.267  0.00  0.00    +0.010 A 
ATOM     30  C   UNL     1      -0.874   2.115  -1.730  0.00  0.00    +0.004 A 
ATOM     31  C   UNL     1       0.218   1.339  -1.389  0.00  0.00    +0.045 A 
ATOM     32  C   UNL     1       1.224   1.860  -0.587  0.00  0.00    +0.117 A 
ATOM     33  C   UNL     1       1.134   3.160  -0.120  0.00  0.00    +0.054 A 
BRANCH  32  34
ATOM     34  O   UNL     1       2.297   1.094  -0.260  0.00  0.00    -0.507 OA
ATOM     35  H   UNL     1       3.033   1.160  -0.884  0.00  0.00    +0.292 HD
ENDBRANCH  32  34
ENDBRANCH  27  28
ENDBRANCH  14  26
TORSDOF 4
