REMARK  Name = ZINC12947009
REMARK  6 active torsions:
REMARK  status: ('A' for Active; 'I' for Inactive)
REMARK    1  A    between atoms: C_1  and  N_2
REMARK    2  A    between atoms: N_2  and  C_3
REMARK    3  A    between atoms: C_3  and  C_4
REMARK    4  A    between atoms: N_6  and  C_7
REMARK    5  A    between atoms: C_14  and  C_16
REMARK    6  A    between atoms: C_16  and  C_17
REMARK                            x       y       z     vdW  Elec       q    Type
REMARK                         _______ _______ _______ _____ _____    ______ ____
ROOT
ATOM      1  C   UNL     1       3.129   8.062  -1.609  0.00  0.00    +0.132 C 
ATOM      2  N   UNL     1       3.339   7.435  -0.301  0.00  0.00    -0.296 N 
ATOM      3  C   UNL     1       3.267   8.177   0.821  0.00  0.00    +0.217 C 
ATOM      4  O   UNL     1       3.440   7.657   1.904  0.00  0.00    -0.276 OA
ENDROOT
BRANCH   2   5
ATOM      5  C   UNL     1       3.628   6.001  -0.215  0.00  0.00    +0.203 C 
BRANCH   5   6
ATOM      6  C   UNL     1       2.336   5.235  -0.093  0.00  0.00    +0.235 C 
ATOM      7  O   UNL     1       1.278   5.828  -0.081  0.00  0.00    -0.274 OA
ATOM      8  N   UNL     1       2.356   3.891   0.001  0.00  0.00    -0.283 N 
ATOM      9  H   UNL     1       3.202   3.422   0.071  0.00  0.00    +0.155 HD
BRANCH   8  10
ATOM     10  C   UNL     1       1.155   3.171  -0.003  0.00  0.00    +0.047 A 
ATOM     11  C   UNL     1       0.022   3.710  -0.598  0.00  0.00    +0.024 A 
ATOM     12  C   UNL     1      -1.161   2.998  -0.600  0.00  0.00    +0.002 A 
ATOM     13  C   UNL     1      -1.217   1.746  -0.015  0.00  0.00    +0.001 A 
ATOM     14  C   UNL     1      -0.093   1.208   0.583  0.00  0.00    +0.017 A 
ATOM     15  C   UNL     1       1.095   1.915   0.589  0.00  0.00    +0.039 A 
ATOM     16 BR   UNL     1       2.634   1.176   1.401  0.00  0.00    -0.048 Br
ENDBRANCH   8  10
ENDBRANCH   5   6
ENDBRANCH   2   5
BRANCH   3  17
ATOM     17  C   UNL     1       2.970   9.651   0.732  0.00  0.00    +0.119 C 
BRANCH  17  18
ATOM     18  C   UNL     1       2.943  10.252   2.139  0.00  0.00    +0.146 C 
ATOM     19  C   UNL     1       2.551  11.705   2.062  0.00  0.00    +0.231 C 
ATOM     20  O   UNL     1       1.397  12.004   2.283  0.00  0.00    -0.274 OA
ATOM     21  N   UNL     1       3.409  12.675   1.763  0.00  0.00    -0.284 N 
ATOM     22  C   UNL     1       4.784  12.546   1.595  0.00  0.00    +0.047 A 
ATOM     23  C   UNL     1       5.487  13.557   0.946  0.00  0.00    +0.024 A 
ATOM     24  C   UNL     1       6.848  13.442   0.748  0.00  0.00    +0.002 A 
ATOM     25  C   UNL     1       7.530  12.324   1.193  0.00  0.00    +0.001 A 
ATOM     26  C   UNL     1       6.846  11.314   1.843  0.00  0.00    +0.016 A 
ATOM     27  C   UNL     1       5.480  11.425   2.046  0.00  0.00    +0.030 A 
ATOM     28  S   UNL     1       4.600  10.142   2.882  0.00  0.00    -0.110 S 
ATOM     29  H   UNL     1       3.038  13.565   1.651  0.00  0.00    +0.155 HD
ENDBRANCH  17  18
ENDBRANCH   3  17
TORSDOF 5
