REMARK  Name = ZINC09762831
REMARK  10 active torsions:
REMARK  status: ('A' for Active; 'I' for Inactive)
REMARK    1  A    between atoms: C_5  and  C_7
REMARK    2  A    between atoms: C_7  and  S_8
REMARK    3  A    between atoms: S_8  and  C_9
REMARK    4  A    between atoms: C_12  and  S_14
REMARK    5  A    between atoms: S_14  and  C_15
REMARK    6  A    between atoms: C_15  and  C_16
REMARK    7  A    between atoms: N_18  and  N_19
REMARK    8  A    between atoms: C_20  and  C_21
REMARK    9  A    between atoms: C_24  and  O_28
REMARK   10  A    between atoms: C_26  and  O_27
REMARK                            x       y       z     vdW  Elec       q    Type
REMARK                         _______ _______ _______ _____ _____    ______ ____
ROOT
ATOM      1  C   UNL     1      -0.441 -10.091   0.368  0.00  0.00    +0.173 C 
ENDROOT
BRANCH   1   2
ATOM      2  C   UNL     1       0.184 -11.442   0.601  0.00  0.00    +0.242 C 
ATOM      3  O   UNL     1       0.486 -11.785   1.725  0.00  0.00    -0.273 OA
ATOM      4  N   UNL     1       0.406 -12.270  -0.439  0.00  0.00    -0.206 N 
ATOM      5  H   UNL     1       0.164 -11.996  -1.337  0.00  0.00    +0.177 HD
BRANCH   4   6
ATOM      6  N   UNL     1       0.987 -13.527  -0.223  0.00  0.00    -0.188 NA
ATOM      7  C   UNL     1       1.299 -14.280  -1.233  0.00  0.00    +0.142 C 
BRANCH   7   8
ATOM      8  C   UNL     1       1.285 -13.726  -2.597  0.00  0.00    +0.036 A 
ATOM      9  C   UNL     1       1.475 -12.356  -2.800  0.00  0.00    +0.016 A 
ATOM     10  C   UNL     1       1.462 -11.841  -4.078  0.00  0.00    +0.046 A 
ATOM     11  C   UNL     1       1.259 -12.680  -5.168  0.00  0.00    +0.120 A 
ATOM     12  C   UNL     1       1.068 -14.041  -4.977  0.00  0.00    +0.091 A 
ATOM     13  C   UNL     1       1.086 -14.571  -3.698  0.00  0.00    +0.129 A 
BRANCH  13  14
ATOM     14  O   UNL     1       0.906 -15.903  -3.510  0.00  0.00    -0.506 OA
ATOM     15  H   UNL     1      -0.009 -16.153  -3.321  0.00  0.00    +0.292 HD
ENDBRANCH  13  14
BRANCH  11  16
ATOM     16  O   UNL     1       1.246 -12.165  -6.425  0.00  0.00    -0.507 OA
ATOM     17  H   UNL     1       2.114 -12.146  -6.851  0.00  0.00    +0.292 HD
ENDBRANCH  11  16
ENDBRANCH   7   8
ENDBRANCH   4   6
ENDBRANCH   1   2
BRANCH   1  18
ATOM     18  S   UNL     1      -0.608  -9.221   1.951  0.00  0.00    -0.088 S 
BRANCH  18  22
ATOM     19  C   UNL     1      -2.446  -5.239   1.286  0.00  0.00    +0.160 A 
ATOM     20  N   UNL     1      -2.266  -5.982   0.211  0.00  0.00    -0.134 NA
ATOM     21  N   UNL     1      -1.702  -7.231   0.328  0.00  0.00    -0.134 NA
ATOM     22  C   UNL     1      -1.344  -7.680   1.516  0.00  0.00    +0.160 A 
ATOM     23  S   UNL     1      -1.796  -6.306   2.563  0.00  0.00    -0.033 S 
BRANCH  19  24
ATOM     24  S   UNL     1      -3.135  -3.623   1.424  0.00  0.00    -0.092 S 
BRANCH  24  25
ATOM     25  C   UNL     1      -3.570  -3.184  -0.281  0.00  0.00    +0.113 C 
BRANCH  25  30
ATOM     26  C   UNL     1      -6.103  -0.386  -0.185  0.00  0.00    +0.000 A 
ATOM     27  C   UNL     1      -5.295   0.724  -0.350  0.00  0.00    +0.001 A 
ATOM     28  C   UNL     1      -3.929   0.570  -0.493  0.00  0.00    +0.020 A 
ATOM     29  C   UNL     1      -3.370  -0.696  -0.471  0.00  0.00    +0.045 A 
ATOM     30  C   UNL     1      -4.178  -1.806  -0.305  0.00  0.00    -0.019 A 
ATOM     31  C   UNL     1      -5.545  -1.650  -0.163  0.00  0.00    +0.006 A 
ATOM     32 CL   UNL     1      -1.654  -0.890  -0.651  0.00  0.00    -0.083 Cl
ENDBRANCH  25  30
ENDBRANCH  24  25
ENDBRANCH  19  24
ENDBRANCH  18  22
ENDBRANCH   1  18
TORSDOF 10
