REMARK  Name = ZINC30880270
REMARK  15 active torsions:
REMARK  status: ('A' for Active; 'I' for Inactive)
REMARK    1  A    between atoms: C_1  and  C_2
REMARK    2  A    between atoms: C_4  and  C_23
REMARK    3  A    between atoms: C_6  and  C_20
REMARK    4  A    between atoms: C_9  and  C_11
REMARK    5  A    between atoms: C_11  and  C_12
REMARK    6  A    between atoms: N_14  and  C_15
REMARK    7  A    between atoms: C_15  and  C_16
REMARK    8  A    between atoms: C_16  and  N_17
REMARK    9  A    between atoms: N_17  and  C_18
REMARK   10  A    between atoms: N_17  and  C_19
REMARK   11  A    between atoms: C_20  and  C_21
REMARK   12  A    between atoms: C_20  and  C_22
REMARK   13  A    between atoms: C_23  and  N_24
REMARK   14  A    between atoms: N_24  and  S_25
REMARK   15  A    between atoms: S_25  and  C_28
REMARK                            x       y       z     vdW  Elec       q    Type
REMARK                         _______ _______ _______ _____ _____    ______ ____
ROOT
ATOM      1  C   UNL     1      -2.915   0.879   0.078  0.00  0.00    +0.039 C 
ATOM      2  C   UNL     1      -1.891   0.463   1.103  0.00  0.00    -0.073 C 
ATOM      3  C   UNL     1      -2.135  -0.593   1.810  0.00  0.00    -0.023 C 
ATOM      4  C   UNL     1      -1.219  -1.123   2.874  0.00  0.00    +0.030 C 
ATOM      5  C   UNL     1       0.179  -0.523   2.711  0.00  0.00    +0.000 C 
ATOM      6  C   UNL     1       0.042   0.998   2.570  0.00  0.00    +0.012 C 
ATOM      7  C   UNL     1      -0.653   1.300   1.240  0.00  0.00    +0.023 C 
ENDROOT
BRANCH   5   8
ATOM      8  C   UNL     1       1.026  -0.851   3.943  0.00  0.00    -0.013 C 
ATOM      9  C   UNL     1       2.457  -0.356   3.724  0.00  0.00    +0.007 C 
ATOM     10  C   UNL     1       0.429  -0.161   5.170  0.00  0.00    +0.007 C 
ENDBRANCH   5   8
BRANCH   7  11
ATOM     11  C   UNL     1       0.301   0.986   0.087  0.00  0.00    +0.103 C 
BRANCH  11  12
ATOM     12  C   UNL     1       1.478   1.925   0.139  0.00  0.00    +0.214 C 
ATOM     13  O   UNL     1       1.502   2.823   0.954  0.00  0.00    -0.276 OA
ATOM     14  N   UNL     1       2.505   1.768  -0.720  0.00  0.00    -0.317 N 
ATOM     15  H   UNL     1       2.484   0.954  -1.459  0.00  0.00    +0.149 HD
BRANCH  14  16
ATOM     16  C   UNL     1       3.649   2.681  -0.670  0.00  0.00    +0.085 C 
BRANCH  16  17
ATOM     17  C   UNL     1       4.666   2.285  -1.742  0.00  0.00    -0.061 C 
BRANCH  17  18
ATOM     18  N   UNL     1       5.813   3.201  -1.692  0.00  0.00    +0.377 N 
ATOM     19  C   UNL     1       6.911   2.717  -2.538  0.00  0.00    -0.097 C 
ATOM     20  C   UNL     1       5.417   4.564  -2.072  0.00  0.00    -0.097 C 
ATOM     21  H   UNL     1       6.176   3.232  -0.653  0.00  0.00    -0.083 HD
ENDBRANCH  17  18
ENDBRANCH  16  17
ENDBRANCH  14  16
ENDBRANCH  11  12
ENDBRANCH   7  11
BRANCH   4  22
ATOM     22  C   UNL     1      -1.135  -2.646   2.758  0.00  0.00    +0.113 C 
BRANCH  22  23
ATOM     23  N   UNL     1      -2.460  -3.228   2.985  0.00  0.00    -0.189 NA
ATOM     24  H   UNL     1      -3.205  -2.681   3.581  0.00  0.00    +0.148 HD
BRANCH  23  25
ATOM     25  S   UNL     1      -2.757  -4.801   2.562  0.00  0.00    +0.058 S 
ATOM     26  O   UNL     1      -4.104  -5.072   2.928  0.00  0.00    -0.153 OA
ATOM     27  O   UNL     1      -2.282  -4.961   1.233  0.00  0.00    -0.153 OA
BRANCH  25  28
ATOM     28  C   UNL     1      -1.744  -5.816   3.586  0.00  0.00    +0.105 A 
ATOM     29  C   UNL     1      -0.473  -6.165   3.170  0.00  0.00    +0.028 A 
ATOM     30  C   UNL     1       0.324  -6.958   3.975  0.00  0.00    +0.002 A 
ATOM     31  C   UNL     1      -0.154  -7.408   5.192  0.00  0.00    +0.000 A 
ATOM     32  C   UNL     1      -1.427  -7.063   5.605  0.00  0.00    +0.002 A 
ATOM     33  C   UNL     1      -2.222  -6.267   4.802  0.00  0.00    +0.028 A 
ENDBRANCH  25  28
ENDBRANCH  23  25
ENDBRANCH  22  23
ENDBRANCH   4  22
TORSDOF 10
