REMARK  Name = ZINC40386618
REMARK  5 active torsions:
REMARK  status: ('A' for Active; 'I' for Inactive)
REMARK    1  A    between atoms: N_9  and  C_11
REMARK    2  A    between atoms: C_11  and  C_12
REMARK    3  A    between atoms: N_24  and  C_27
REMARK    4  A    between atoms: C_27  and  C_28
REMARK    5  A    between atoms: C_33  and  O_34
REMARK                            x       y       z     vdW  Elec       q    Type
REMARK                         _______ _______ _______ _____ _____    ______ ____
ROOT
ATOM      1  C   UNL     1       7.032  -2.410   3.309  0.00  0.00    +0.064 A 
ATOM      2  C   UNL     1       6.322  -3.052   2.337  0.00  0.00    +0.094 A 
ATOM      3  C   UNL     1       5.996  -2.355   1.160  0.00  0.00    +0.253 A 
ATOM      4  O   UNL     1       5.362  -2.899   0.271  0.00  0.00    -0.268 OA
ATOM      5  N   UNL     1       6.398  -1.073   1.034  0.00  0.00    -0.295 N 
ATOM      6  H   UNL     1       6.184  -0.573   0.230  0.00  0.00    +0.172 HD
ATOM      7  C   UNL     1       7.104  -0.484   2.036  0.00  0.00    +0.198 A 
ATOM      8  N   UNL     1       7.401  -1.142   3.139  0.00  0.00    -0.219 NA
ATOM      9  N   UNL     1       7.508   0.817   1.900  0.00  0.00    -0.303 N 
ATOM     10  C   UNL     1       8.377   1.405   2.940  0.00  0.00    +0.106 C 
ATOM     11  C   UNL     1       9.486   2.268   2.312  0.00  0.00    +0.000 C 
ATOM     12  C   UNL     1      10.008   1.588   1.065  0.00  0.00    -0.077 C 
ATOM     13  N   UNL     1       9.285   2.095  -0.099  0.00  0.00    +0.384 N 
ATOM     14  C   UNL     1       8.091   1.405  -0.407  0.00  0.00    -0.059 C 
ATOM     15  C   UNL     1       7.073   1.566   0.739  0.00  0.00    +0.089 C 
ATOM     16  H   UNL     1       9.059   3.065   0.064  0.00  0.00    -0.081 HD
ENDROOT
BRANCH   1  17
ATOM     17  C   UNL     1       7.393  -3.134   4.580  0.00  0.00    +0.140 C 
BRANCH  17  26
ATOM     18  C   UNL     1      13.723  -2.335   5.356  0.00  0.00    +0.000 A 
ATOM     19  C   UNL     1      13.162  -1.123   4.999  0.00  0.00    +0.000 A 
ATOM     20  C   UNL     1      11.795  -1.020   4.835  0.00  0.00    +0.005 A 
ATOM     21  C   UNL     1      10.981  -2.127   5.025  0.00  0.00    -0.030 A 
ATOM     22  C   UNL     1      11.542  -3.336   5.378  0.00  0.00    -0.042 A 
ATOM     23  C   UNL     1      12.915  -3.437   5.545  0.00  0.00    +0.004 A 
ATOM     24  C   UNL     1      10.700  -4.569   5.584  0.00  0.00    +0.051 C 
ATOM     25  C   UNL     1       9.233  -4.175   5.765  0.00  0.00    +0.090 C 
ATOM     26  N   UNL     1       8.853  -3.272   4.667  0.00  0.00    -0.292 NA
ATOM     27  C   UNL     1       9.495  -1.965   4.839  0.00  0.00    +0.120 C 
ENDBRANCH  17  26
ENDBRANCH   1  17
BRANCH  13  28
ATOM     28  C   UNL     1      10.176   2.023  -1.265  0.00  0.00    -0.039 C 
BRANCH  28  29
ATOM     29  C   UNL     1       9.498   2.653  -2.455  0.00  0.00    -0.022 A 
ATOM     30  C   UNL     1       8.886   1.857  -3.404  0.00  0.00    +0.005 A 
ATOM     31  C   UNL     1       8.265   2.435  -4.495  0.00  0.00    +0.000 A 
ATOM     32  C   UNL     1       8.255   3.810  -4.640  0.00  0.00    +0.004 A 
ATOM     33  C   UNL     1       8.865   4.610  -3.694  0.00  0.00    +0.045 A 
ATOM     34  C   UNL     1       9.485   4.033  -2.595  0.00  0.00    +0.118 A 
BRANCH  34  35
ATOM     35  O   UNL     1      10.081   4.818  -1.660  0.00  0.00    -0.507 OA
ATOM     36  H   UNL     1      11.012   5.007  -1.841  0.00  0.00    +0.292 HD
ENDBRANCH  34  35
ENDBRANCH  28  29
ENDBRANCH  13  28
TORSDOF 5
