REMARK  Name = ZINC63704820
REMARK  8 active torsions:
REMARK  status: ('A' for Active; 'I' for Inactive)
REMARK    1  A    between atoms: C_1  and  C_2
REMARK    2  A    between atoms: C_2  and  C_3
REMARK    3  A    between atoms: N_9  and  C_10
REMARK    4  A    between atoms: C_10  and  C_11
REMARK    5  A    between atoms: C_11  and  N_12
REMARK    6  A    between atoms: C_13  and  C_15
REMARK    7  A    between atoms: C_26  and  C_31
REMARK    8  A    between atoms: N_33  and  C_34
REMARK                            x       y       z     vdW  Elec       q    Type
REMARK                         _______ _______ _______ _____ _____    ______ ____
ROOT
ATOM      1  C   UNL     1       5.460   4.902  -0.614  0.00  0.00    +0.039 A 
ATOM      2  C   UNL     1       4.346   5.747  -0.628  0.00  0.00    +0.014 A 
ATOM      3  C   UNL     1       4.503   7.102  -0.545  0.00  0.00    +0.016 A 
ATOM      4  C   UNL     1       5.785   7.640  -0.445  0.00  0.00    +0.065 A 
ATOM      5  C   UNL     1       6.906   6.807  -0.429  0.00  0.00    +0.062 A 
ATOM      6  C   UNL     1       6.745   5.430  -0.509  0.00  0.00    +0.040 A 
ATOM      7  N   UNL     1       8.200   7.358  -0.329  0.00  0.00    -0.284 N 
ATOM      8  C   UNL     1       8.326   8.697  -0.248  0.00  0.00    +0.142 A 
ATOM      9  N   UNL     1       7.284   9.511  -0.260  0.00  0.00    -0.193 NA
ATOM     10  C   UNL     1       6.016   9.095  -0.352  0.00  0.00    +0.281 A 
ATOM     11  O   UNL     1       5.089   9.886  -0.359  0.00  0.00    -0.265 OA
ATOM     12  C   UNL     1       9.768   9.212  -0.142  0.00  0.00    +0.205 C 
ATOM     13  S   UNL     1      10.694   7.629  -0.179  0.00  0.00    -0.079 S 
ATOM     14  C   UNL     1       9.295   6.539  -0.314  0.00  0.00    +0.128 C 
ATOM     15  S   UNL     1       9.316   4.829  -0.406  0.00  0.00    -0.025 S 
ENDROOT
BRANCH   1  17
ATOM     16  N   UNL     1       4.033   2.920  -0.808  0.00  0.00    -0.313 N 
ATOM     17  C   UNL     1       5.274   3.436  -0.706  0.00  0.00    +0.244 C 
ATOM     18  O   UNL     1       6.239   2.698  -0.688  0.00  0.00    -0.270 OA
ATOM     19  H   UNL     1       3.262   3.509  -0.821  0.00  0.00    +0.149 HD
BRANCH  16  20
ATOM     20  C   UNL     1       3.848   1.470  -0.898  0.00  0.00    +0.086 C 
BRANCH  20  21
ATOM     21  C   UNL     1       2.355   1.151  -1.004  0.00  0.00    -0.059 C 
BRANCH  21  27
ATOM     22  C   UNL     1       0.735  -0.614  -1.081  0.00  0.00    -0.069 C 
ATOM     23  C   UNL     1       0.538  -2.131  -1.094  0.00  0.00    -0.015 C 
ATOM     24  C   UNL     1       1.176  -2.713  -2.358  0.00  0.00    -0.003 C 
ATOM     25  C   UNL     1       2.656  -2.319  -2.400  0.00  0.00    -0.019 C 
ATOM     26  C   UNL     1       2.774  -0.794  -2.339  0.00  0.00    -0.078 C 
ATOM     27  N   UNL     1       2.170  -0.303  -1.095  0.00  0.00    +0.383 N 
ATOM     28  H   UNL     1       2.616  -0.747  -0.307  0.00  0.00    -0.081 HD
BRANCH  22  30
ATOM     29  C   UNL     1      -1.411  -0.273   0.151  0.00  0.00    +0.002 C 
ATOM     30  C   UNL     1       0.099  -0.028   0.181  0.00  0.00    -0.019 C 
ENDBRANCH  22  30
ENDBRANCH  21  27
ENDBRANCH  20  21
ENDBRANCH  16  20
ENDBRANCH   1  17
BRANCH  12  31
ATOM     31  C   UNL     1      10.125  10.081  -1.320  0.00  0.00    +0.234 C 
ATOM     32  O   UNL     1       9.606   9.883  -2.399  0.00  0.00    -0.274 OA
ATOM     33  N   UNL     1      11.020  11.077  -1.176  0.00  0.00    -0.311 N 
ATOM     34  H   UNL     1      11.435  11.236  -0.314  0.00  0.00    +0.149 HD
BRANCH  33  35
ATOM     35  C   UNL     1      11.367  11.922  -2.322  0.00  0.00    +0.073 C 
ATOM     36  C   UNL     1      12.528  11.286  -3.115  0.00  0.00    +0.022 C 
ATOM     37  C   UNL     1      13.383  12.495  -3.570  0.00  0.00    +0.002 C 
ATOM     38  C   UNL     1      13.314  13.443  -2.348  0.00  0.00    +0.002 C 
ATOM     39  C   UNL     1      11.867  13.293  -1.834  0.00  0.00    +0.022 C 
ENDBRANCH  33  35
ENDBRANCH  12  31
TORSDOF 7
