REMARK  Name = ZINC12734044
REMARK  7 active torsions:
REMARK  status: ('A' for Active; 'I' for Inactive)
REMARK    1  A    between atoms: C_1  and  C_2
REMARK    2  A    between atoms: C_2  and  C_3
REMARK    3  A    between atoms: C_3  and  C_30
REMARK    4  A    between atoms: N_6  and  C_10
REMARK    5  A    between atoms: C_10  and  C_11
REMARK    6  A    between atoms: C_22  and  C_24
REMARK    7  A    between atoms: C_33  and  C_36
REMARK                            x       y       z     vdW  Elec       q    Type
REMARK                         _______ _______ _______ _____ _____    ______ ____
ROOT
ATOM      1  C   UNL     1      -2.539  -0.388   1.138  0.00  0.00    +0.214 C 
ENDROOT
BRANCH   1   2
ATOM      2  C   UNL     1      -2.571   1.090   0.845  0.00  0.00    +0.238 C 
ATOM      3  O   UNL     1      -3.536   1.751   1.165  0.00  0.00    -0.273 OA
ATOM      4  N   UNL     1      -1.527   1.677   0.226  0.00  0.00    -0.261 N 
ATOM      5  C   UNL     1      -0.362   0.931   0.031  0.00  0.00    +0.050 A 
ATOM      6  C   UNL     1      -0.172  -0.205   0.813  0.00  0.00    +0.024 A 
ATOM      7  C   UNL     1       0.953  -0.988   0.647  0.00  0.00    +0.002 A 
ATOM      8  C   UNL     1       1.903  -0.649  -0.299  0.00  0.00    +0.001 A 
ATOM      9  C   UNL     1       1.728   0.477  -1.078  0.00  0.00    +0.016 A 
ATOM     10  C   UNL     1       0.600   1.272  -0.915  0.00  0.00    +0.029 A 
ATOM     11  S   UNL     1       0.416   2.716  -1.913  0.00  0.00    -0.121 S 
ATOM     12  C   UNL     1      -1.338   3.146  -1.708  0.00  0.00    +0.102 C 
ATOM     13  C   UNL     1      -1.666   3.064  -0.209  0.00  0.00    +0.122 C 
BRANCH  13  14
ATOM     14  C   UNL     1      -3.080   3.528   0.026  0.00  0.00    -0.026 A 
ATOM     15  C   UNL     1      -4.114   3.003  -0.727  0.00  0.00    +0.005 A 
ATOM     16  C   UNL     1      -5.412   3.426  -0.509  0.00  0.00    +0.000 A 
ATOM     17  C   UNL     1      -5.675   4.380   0.456  0.00  0.00    +0.000 A 
ATOM     18  C   UNL     1      -4.641   4.909   1.205  0.00  0.00    +0.000 A 
ATOM     19  C   UNL     1      -3.343   4.483   0.990  0.00  0.00    +0.005 A 
ENDBRANCH  13  14
ENDBRANCH   1   2
BRANCH   1  23
ATOM     20  C   UNL     1      -6.013  -1.619   1.592  0.00  0.00    +0.138 C 
ATOM     21  C   UNL     1      -4.736  -1.001   2.125  0.00  0.00    +0.251 C 
ATOM     22  O   UNL     1      -4.515  -0.643   3.263  0.00  0.00    -0.272 OA
ATOM     23  N   UNL     1      -3.899  -0.929   1.072  0.00  0.00    -0.215 N 
ATOM     24  C   UNL     1      -4.460  -1.418  -0.039  0.00  0.00    +0.310 C 
ATOM     25  O   UNL     1      -3.898  -1.464  -1.116  0.00  0.00    -0.252 OA
ATOM     26  N   UNL     1      -5.716  -1.852   0.168  0.00  0.00    -0.281 N 
ATOM     27  H   UNL     1      -6.311  -2.243  -0.492  0.00  0.00    +0.152 HD
BRANCH  20  28
ATOM     28  C   UNL     1      -7.172  -0.667   1.743  0.00  0.00    -0.015 A 
ATOM     29  C   UNL     1      -8.002  -0.758   2.844  0.00  0.00    +0.006 A 
ATOM     30  C   UNL     1      -9.062   0.119   2.985  0.00  0.00    +0.004 A 
ATOM     31  C   UNL     1      -9.297   1.079   2.019  0.00  0.00    -0.050 A 
ATOM     32  C   UNL     1      -8.470   1.166   0.915  0.00  0.00    +0.004 A 
ATOM     33  C   UNL     1      -7.408   0.293   0.777  0.00  0.00    +0.006 A 
ATOM     34  C   UNL     1     -10.456   2.031   2.170  0.00  0.00    +0.044 C 
ENDBRANCH  20  28
BRANCH  20  36
ATOM     35  C   UNL     1      -5.098  -3.868   2.181  0.00  0.00    +0.007 C 
ATOM     36  C   UNL     1      -6.309  -2.941   2.304  0.00  0.00    +0.037 C 
ENDBRANCH  20  36
ENDBRANCH   1  23
TORSDOF 5
