REMARK  Name = ZINC36553286
REMARK  11 active torsions:
REMARK  status: ('A' for Active; 'I' for Inactive)
REMARK    1  A    between atoms: C_1  and  C_2
REMARK    2  A    between atoms: C_5  and  S_8
REMARK    3  A    between atoms: S_8  and  C_11
REMARK    4  A    between atoms: C_11  and  N_12
REMARK    5  A    between atoms: C_13  and  C_15
REMARK    6  A    between atoms: C_15  and  C_17
REMARK    7  A    between atoms: C_15  and  N_24
REMARK    8  A    between atoms: C_22  and  O_23
REMARK    9  A    between atoms: N_24  and  C_25
REMARK   10  A    between atoms: C_32  and  C_34
REMARK   11  A    between atoms: C_34  and  C_36
REMARK                            x       y       z     vdW  Elec       q    Type
REMARK                         _______ _______ _______ _____ _____    ______ ____
ROOT
ATOM      1  C   UNL     1       3.280  -4.471   3.917  0.00  0.00    +0.201 C 
ENDROOT
BRANCH   1   2
ATOM      2  C   UNL     1       2.711  -4.029   5.240  0.00  0.00    +0.024 A 
ATOM      3  C   UNL     1       1.614  -3.191   5.276  0.00  0.00    +0.009 A 
ATOM      4  C   UNL     1       1.092  -2.784   6.490  0.00  0.00    +0.001 A 
ATOM      5  C   UNL     1       1.667  -3.216   7.672  0.00  0.00    +0.004 A 
ATOM      6  C   UNL     1       2.764  -4.054   7.641  0.00  0.00    +0.046 A 
ATOM      7  C   UNL     1       3.286  -4.468   6.424  0.00  0.00    +0.122 A 
BRANCH   7   8
ATOM      8  O   UNL     1       4.362  -5.297   6.391  0.00  0.00    -0.506 OA
ATOM      9  H   UNL     1       5.213  -4.842   6.460  0.00  0.00    +0.292 HD
ENDBRANCH   7   8
ENDBRANCH   1   2
BRANCH   1  11
ATOM     10  N   UNL     1       1.614  -3.400   2.434  0.00  0.00    -0.294 N 
ATOM     11  C   UNL     1       2.176  -4.536   2.893  0.00  0.00    +0.240 C 
ATOM     12  O   UNL     1       1.793  -5.611   2.481  0.00  0.00    -0.273 OA
ATOM     13  H   UNL     1       1.886  -2.543   2.798  0.00  0.00    +0.150 HD
BRANCH  10  14
ATOM     14  C   UNL     1       0.593  -3.459   1.385  0.00  0.00    +0.278 C 
BRANCH  14  15
ATOM     15  S   UNL     1      -1.055  -3.456   2.145  0.00  0.00    +0.013 S 
ATOM     16  O   UNL     1      -1.104  -4.394   3.211  0.00  0.00    -0.168 OA
ATOM     17  O   UNL     1      -2.058  -3.449   1.139  0.00  0.00    -0.168 OA
BRANCH  15  22
ATOM     18  C   UNL     1      -1.521   1.934   4.817  0.00  0.00    +0.044 C 
ATOM     19  C   UNL     1      -1.405   0.588   4.150  0.00  0.00    -0.050 A 
ATOM     20  C   UNL     1      -1.812   0.429   2.838  0.00  0.00    +0.005 A 
ATOM     21  C   UNL     1      -1.705  -0.806   2.226  0.00  0.00    +0.027 A 
ATOM     22  C   UNL     1      -1.190  -1.881   2.925  0.00  0.00    +0.090 A 
ATOM     23  C   UNL     1      -0.781  -1.722   4.236  0.00  0.00    +0.027 A 
ATOM     24  C   UNL     1      -0.884  -0.486   4.847  0.00  0.00    +0.005 A 
ENDBRANCH  15  22
ENDBRANCH  14  15
ENDBRANCH  10  14
ENDBRANCH   1  11
BRANCH   1  25
ATOM     25  N   UNL     1       3.888  -5.796   4.064  0.00  0.00    -0.251 N 
ATOM     26  C   UNL     1       4.946  -6.140   3.303  0.00  0.00    +0.247 C 
ATOM     27  O   UNL     1       5.502  -7.207   3.482  0.00  0.00    -0.270 OA
BRANCH  25  28
ATOM     28  C   UNL     1       3.371  -6.703   4.994  0.00  0.00    +0.039 A 
ATOM     29  C   UNL     1       1.996  -6.845   5.137  0.00  0.00    +0.023 A 
ATOM     30  C   UNL     1       1.488  -7.741   6.056  0.00  0.00    +0.003 A 
ATOM     31  C   UNL     1       2.345  -8.498   6.834  0.00  0.00    +0.020 A 
ATOM     32  C   UNL     1       3.715  -8.359   6.694  0.00  0.00    +0.043 A 
ATOM     33  C   UNL     1       4.230  -7.467   5.772  0.00  0.00    +0.043 A 
ATOM     34 CL   UNL     1       4.788  -9.311   7.673  0.00  0.00    -0.083 Cl
ENDBRANCH  25  28
BRANCH  26  35
ATOM     35  C   UNL     1       5.428  -5.225   2.257  0.00  0.00    +0.005 C 
ATOM     36  C   UNL     1       6.481  -5.559   1.517  0.00  0.00    +0.017 C 
ATOM     37  C   UNL     1       4.729  -3.911   2.025  0.00  0.00    +0.048 C 
ENDBRANCH  26  35
ENDBRANCH   1  25
TORSDOF 9
