REMARK  Name = ZINC04770661
REMARK  7 active torsions:
REMARK  status: ('A' for Active; 'I' for Inactive)
REMARK    1  A    between atoms: C_1  and  C_2
REMARK    2  A    between atoms: C_3  and  N_19
REMARK    3  A    between atoms: C_4  and  C_7
REMARK    4  A    between atoms: C_8  and  C_9
REMARK    5  A    between atoms: C_11  and  O_17
REMARK    6  A    between atoms: C_12  and  O_16
REMARK    7  A    between atoms: O_17  and  C_18
REMARK                            x       y       z     vdW  Elec       q    Type
REMARK                         _______ _______ _______ _____ _____    ______ ____
ROOT
ATOM      1  C   UNL     1      -0.013   1.076   0.008  0.00  0.00    +0.052 C 
ATOM      2  C   UNL     1       1.145   1.765   0.001  0.00  0.00    +0.013 C 
ENDROOT
BRANCH   2   3
ATOM      3  C   UNL     1       2.429   1.047  -0.015  0.00  0.00    -0.007 A 
ATOM      4  C   UNL     1       2.451  -0.352  -0.023  0.00  0.00    +0.058 A 
ATOM      5  C   UNL     1       3.659  -1.021  -0.039  0.00  0.00    +0.162 A 
ATOM      6  C   UNL     1       4.854  -0.303  -0.047  0.00  0.00    +0.160 A 
ATOM      7  C   UNL     1       4.835   1.084  -0.039  0.00  0.00    +0.065 A 
ATOM      8  C   UNL     1       3.632   1.761  -0.029  0.00  0.00    +0.029 A 
ATOM      9 BR   UNL     1       3.611   3.652  -0.026  0.00  0.00    -0.050 Br
BRANCH   6  10
ATOM     10  O   UNL     1       6.041  -0.964  -0.062  0.00  0.00    -0.503 OA
ATOM     11  H   UNL     1       6.376  -1.150  -0.950  0.00  0.00    +0.292 HD
ENDBRANCH   6  10
BRANCH   5  12
ATOM     12  O   UNL     1       3.683  -2.380  -0.046  0.00  0.00    -0.491 OA
ATOM     13  C   UNL     1       2.422  -3.052  -0.036  0.00  0.00    +0.277 C 
ENDBRANCH   5  12
ENDBRANCH   2   3
BRANCH   1  17
ATOM     14  C   UNL     1      -4.921   2.333   0.039  0.00  0.00    +0.071 C 
ATOM     15  C   UNL     1      -3.414   2.353   0.031  0.00  0.00    +0.111 A 
ATOM     16  C   UNL     1      -2.559   1.235   0.021  0.00  0.00    +0.195 A 
ATOM     17  C   UNL     1      -1.291   1.791   0.018  0.00  0.00    +0.190 A 
ATOM     18  O   UNL     1      -1.475   3.125   0.032  0.00  0.00    -0.353 OA
ATOM     19  N   UNL     1      -2.650   3.409   0.033  0.00  0.00    -0.081 NA
BRANCH  16  20
ATOM     20  N   UNL     1      -2.928  -0.200   0.015  0.00  0.00    +0.062 N 
ATOM     21  O   UNL     1      -3.075  -0.795   1.068  0.00  0.00    -0.126 OA
ATOM     22  O   UNL     1      -3.085  -0.784  -1.042  0.00  0.00    -0.126 OA
ENDBRANCH  16  20
ENDBRANCH   1  17
TORSDOF 5
