REMARK  Name = ZINC67129401
REMARK  7 active torsions:
REMARK  status: ('A' for Active; 'I' for Inactive)
REMARK    1  A    between atoms: C_1  and  N_2
REMARK    2  A    between atoms: N_2  and  C_3
REMARK    3  A    between atoms: C_3  and  C_4
REMARK    4  A    between atoms: C_11  and  C_13
REMARK    5  A    between atoms: C_13  and  N_14
REMARK    6  A    between atoms: C_16  and  O_24
REMARK    7  A    between atoms: C_19  and  C_21
REMARK                            x       y       z     vdW  Elec       q    Type
REMARK                         _______ _______ _______ _____ _____    ______ ____
ROOT
ATOM      1  C   UNL     1       0.367   0.142  -2.524  0.00  0.00    +0.020 C 
ENDROOT
BRANCH   1   2
ATOM      2  N   UNL     1       0.166  -0.781  -3.650  0.00  0.00    +0.395 N 
ATOM      3  C   UNL     1       1.423  -1.506  -3.928  0.00  0.00    -0.045 C 
ATOM      4  C   UNL     1       1.458  -1.661  -5.469  0.00  0.00    +0.097 C 
ATOM      5  C   UNL     1       0.850  -0.311  -5.933  0.00  0.00    +0.023 C 
ATOM      6  C   UNL     1      -0.214  -0.019  -4.854  0.00  0.00    +0.022 C 
ATOM      7  H   UNL     1      -0.562  -1.441  -3.422  0.00  0.00    -0.080 HD
BRANCH   6   8
ATOM      8  C   UNL     1      -0.237   1.455  -4.542  0.00  0.00    +0.197 C 
ATOM      9  O   UNL     1       0.751   1.996  -4.092  0.00  0.00    -0.278 OA
ATOM     10  N   UNL     1      -1.357   2.172  -4.763  0.00  0.00    -0.331 N 
ATOM     11  H   UNL     1      -2.147   1.740  -5.123  0.00  0.00    +0.145 HD
ATOM     12  H   UNL     1      -1.372   3.121  -4.563  0.00  0.00    +0.145 HD
ENDBRANCH   6   8
BRANCH   4  13
ATOM     13  O   UNL     1       2.799  -1.808  -5.939  0.00  0.00    -0.394 OA
ATOM     14  H   UNL     1       2.871  -1.907  -6.898  0.00  0.00    +0.210 HD
ENDBRANCH   4  13
ENDBRANCH   1   2
BRANCH   1  17
ATOM     15  C   UNL     1       0.696   1.453  -0.031  0.00  0.00    +0.132 C 
ATOM     16  N   UNL     1       0.797  -0.007  -0.093  0.00  0.00    -0.302 N 
ATOM     17  C   UNL     1       0.589  -0.648  -1.260  0.00  0.00    +0.199 C 
ATOM     18  O   UNL     1       0.582  -1.860  -1.294  0.00  0.00    -0.278 OA
BRANCH  16  19
ATOM     19  C   UNL     1       1.124  -0.771   1.114  0.00  0.00    +0.143 C 
BRANCH  19  20
ATOM     20  C   UNL     1      -0.137  -1.040   1.894  0.00  0.00    -0.016 A 
ATOM     21  C   UNL     1      -1.364  -0.674   1.373  0.00  0.00    +0.006 A 
ATOM     22  C   UNL     1      -2.520  -0.922   2.089  0.00  0.00    +0.000 A 
ATOM     23  C   UNL     1      -2.450  -1.536   3.326  0.00  0.00    +0.001 A 
ATOM     24  C   UNL     1      -1.224  -1.902   3.847  0.00  0.00    +0.015 A 
ATOM     25  C   UNL     1      -0.067  -1.659   3.129  0.00  0.00    +0.023 A 
ATOM     26 BR   UNL     1       1.611  -2.167   3.839  0.00  0.00    -0.050 Br
ENDBRANCH  19  20
ENDBRANCH  16  19
ENDBRANCH   1  17
TORSDOF 6
