REMARK  Name = ZINC02203219
REMARK  17 active torsions:
REMARK  status: ('A' for Active; 'I' for Inactive)
REMARK    1  A    between atoms: C_1  and  C_2
REMARK    2  A    between atoms: C_2  and  O_3
REMARK    3  A    between atoms: O_3  and  C_4
REMARK    4  A    between atoms: C_4  and  C_6
REMARK    5  A    between atoms: C_7  and  C_34
REMARK    6  A    between atoms: C_8  and  C_27
REMARK    7  A    between atoms: C_10  and  N_11
REMARK    8  A    between atoms: N_11  and  C_12
REMARK    9  A    between atoms: C_17  and  O_25
REMARK   10  A    between atoms: C_18  and  O_23
REMARK   11  A    between atoms: O_23  and  C_24
REMARK   12  A    between atoms: O_25  and  C_26
REMARK   13  A    between atoms: C_27  and  O_29
REMARK   14  A    between atoms: O_29  and  C_30
REMARK   15  A    between atoms: C_30  and  C_31
REMARK   16  A    between atoms: C_30  and  C_32
REMARK   17  A    between atoms: C_30  and  C_33
REMARK                            x       y       z     vdW  Elec       q    Type
REMARK                         _______ _______ _______ _____ _____    ______ ____
ROOT
ATOM      1  C   UNL     1       1.497  -2.371   2.468  0.00  0.00    +0.091 A 
ATOM      2  C   UNL     1       0.816  -2.667   3.641  0.00  0.00    -0.014 A 
ATOM      3  C   UNL     1       1.564  -3.183   4.665  0.00  0.00    +0.102 A 
ATOM      4  S   UNL     1       3.201  -3.243   3.964  0.00  0.00    -0.066 S 
ATOM      5  C   UNL     1       2.871  -2.630   2.436  0.00  0.00    +0.083 A 
ATOM      6  C   UNL     1      -0.666  -2.432   3.779  0.00  0.00    +0.046 C 
ENDROOT
BRANCH   1   7
ATOM      7  C   UNL     1       0.801  -1.814   1.304  0.00  0.00    +0.342 C 
ATOM      8  O   UNL     1       0.321  -2.557   0.470  0.00  0.00    -0.245 OA
BRANCH   7   9
ATOM      9  O   UNL     1       0.693  -0.477   1.160  0.00  0.00    -0.461 OA
BRANCH   9  11
ATOM     10  C   UNL     1      -0.019   1.526   0.010  0.00  0.00    +0.048 C 
ATOM     11  C   UNL     1       0.002  -0.004   0.002  0.00  0.00    +0.229 C 
ENDBRANCH   9  11
ENDBRANCH   7   9
ENDBRANCH   1   7
BRANCH   5  12
ATOM     12  N   UNL     1       3.748  -2.427   1.396  0.00  0.00    -0.300 N 
ATOM     13  H   UNL     1       3.428  -2.061   0.557  0.00  0.00    +0.150 HD
BRANCH  12  14
ATOM     14  C   UNL     1       5.165  -2.764   1.556  0.00  0.00    +0.297 C 
ATOM     15  C   UNL     1       5.726  -3.268   0.251  0.00  0.00    +0.029 A 
ATOM     16  C   UNL     1       5.425  -4.335  -0.559  0.00  0.00    +0.013 A 
ATOM     17  C   UNL     1       6.138  -4.545  -1.729  0.00  0.00    +0.050 A 
ATOM     18  C   UNL     1       7.157  -3.680  -2.091  0.00  0.00    +0.162 A 
ATOM     19  C   UNL     1       7.473  -2.594  -1.279  0.00  0.00    +0.176 A 
ATOM     20  C   UNL     1       6.753  -2.382  -0.098  0.00  0.00    +0.112 A 
ATOM     21  C   UNL     1       6.834  -1.357   0.954  0.00  0.00    +0.345 C 
ATOM     22  O   UNL     1       7.622  -0.432   0.965  0.00  0.00    -0.245 OA
ATOM     23  O   UNL     1       5.910  -1.593   1.901  0.00  0.00    -0.435 OA
BRANCH  19  24
ATOM     24  O   UNL     1       8.472  -1.745  -1.632  0.00  0.00    -0.491 OA
ATOM     25  C   UNL     1       8.114  -0.621  -2.438  0.00  0.00    +0.277 C 
ENDBRANCH  19  24
BRANCH  18  26
ATOM     26  O   UNL     1       7.852  -3.893  -3.240  0.00  0.00    -0.491 OA
ATOM     27  C   UNL     1       7.477  -5.026  -4.025  0.00  0.00    +0.277 C 
ENDBRANCH  18  26
ENDBRANCH  12  14
ENDBRANCH   5  12
BRANCH   3  28
ATOM     28  C   UNL     1       1.129  -3.586   6.000  0.00  0.00    +0.347 C 
ATOM     29  O   UNL     1      -0.041  -3.476   6.317  0.00  0.00    -0.244 OA
BRANCH  28  30
ATOM     30  O   UNL     1       2.023  -4.079   6.882  0.00  0.00    -0.455 OA
BRANCH  30  31
ATOM     31  C   UNL     1       1.528  -4.452   8.169  0.00  0.00    +0.106 C 
ATOM     32  C   UNL     1       0.464  -5.540   8.011  0.00  0.00    +0.055 C 
ATOM     33  C   UNL     1       2.679  -4.984   9.024  0.00  0.00    +0.055 C 
ATOM     34  C   UNL     1       0.909  -3.230   8.851  0.00  0.00    +0.055 C 
ENDBRANCH  30  31
ENDBRANCH  28  30
ENDBRANCH   3  28
TORSDOF 10
