REMARK  Name = ZINC15935099
REMARK  4 active torsions:
REMARK  status: ('A' for Active; 'I' for Inactive)
REMARK    1  A    between atoms: C_5  and  C_7
REMARK    2  A    between atoms: C_7  and  O_9
REMARK    3  A    between atoms: O_9  and  C_10
REMARK    4  A    between atoms: C_13  and  C_16
REMARK                            x       y       z     vdW  Elec       q    Type
REMARK                         _______ _______ _______ _____ _____    ______ ____
ROOT
ATOM      1  C   UNL     1      -0.024  -8.446   0.031  0.00  0.00    +0.024 C 
ATOM      2  C   UNL     1      -1.222  -9.108  -0.112  0.00  0.00    +0.081 C 
ATOM      3  C   UNL     1      -2.520  -8.379  -0.180  0.00  0.00    +0.153 C 
ATOM      4  N   UNL     1      -2.651  -7.195  -0.718  0.00  0.00    -0.283 NA
ATOM      5  N   UNL     1      -3.594  -9.091   0.393  0.00  0.00    -0.150 N 
ATOM      6  C   UNL     1      -3.477 -10.460   0.474  0.00  0.00    +0.182 C 
ATOM      7  N   UNL     1      -2.436 -11.193   0.168  0.00  0.00    -0.152 NA
ATOM      8  C   UNL     1      -1.291 -10.588  -0.213  0.00  0.00    +0.273 C 
ATOM      9  O   UNL     1      -0.341 -11.235  -0.624  0.00  0.00    -0.268 OA
ATOM     10  S   UNL     1      -5.064 -10.935   1.108  0.00  0.00    -0.018 S 
ATOM     11  C   UNL     1      -5.735  -9.291   1.317  0.00  0.00    +0.182 C 
ATOM     12  N   UNL     1      -4.762  -8.537   0.872  0.00  0.00    -0.149 NA
ATOM     13  N   UNL     1      -6.969  -8.913   1.821  0.00  0.00    -0.304 N 
ATOM     14  C   UNL     1      -7.348  -7.494   1.910  0.00  0.00    +0.135 C 
ATOM     15  C   UNL     1      -8.727  -7.320   1.264  0.00  0.00    +0.179 C 
ATOM     16  O   UNL     1      -9.639  -8.258   1.841  0.00  0.00    -0.377 OA
ATOM     17  C   UNL     1      -9.290  -9.627   1.618  0.00  0.00    +0.179 C 
ATOM     18  C   UNL     1      -7.942  -9.918   2.277  0.00  0.00    +0.135 C 
ATOM     19  H   UNL     1      -3.503  -6.733  -0.674  0.00  0.00    +0.188 HD
ENDROOT
BRANCH   1  23
ATOM     20  C   UNL     1       0.013  -4.288   0.824  0.00  0.00    +0.132 A 
ATOM     21  C   UNL     1       0.947  -4.835  -0.050  0.00  0.00    +0.047 A 
ATOM     22  C   UNL     1       0.940  -6.181  -0.311  0.00  0.00    +0.011 A 
ATOM     23  C   UNL     1      -0.011  -7.007   0.306  0.00  0.00    -0.024 A 
ATOM     24  C   UNL     1      -0.949  -6.450   1.186  0.00  0.00    +0.011 A 
ATOM     25  C   UNL     1      -0.929  -5.103   1.442  0.00  0.00    +0.047 A 
BRANCH  20  26
ATOM     26  O   UNL     1       0.025  -2.955   1.078  0.00  0.00    -0.422 OA
BRANCH  26  27
ATOM     27  C   UNL     1      -0.506  -2.130   0.154  0.00  0.00    +0.346 C 
ATOM     28  O   UNL     1      -0.895  -2.576  -0.907  0.00  0.00    -0.244 OA
BRANCH  27  33
ATOM     29  C   UNL     1      -0.273   1.184   1.902  0.00  0.00    +0.001 A 
ATOM     30  C   UNL     1      -0.819   2.029   0.951  0.00  0.00    +0.001 A 
ATOM     31  C   UNL     1      -1.263   1.526  -0.258  0.00  0.00    +0.021 A 
ATOM     32  C   UNL     1      -1.164   0.174  -0.525  0.00  0.00    +0.055 A 
ATOM     33  C   UNL     1      -0.614  -0.684   0.431  0.00  0.00    +0.078 A 
ATOM     34  C   UNL     1      -0.168  -0.168   1.650  0.00  0.00    +0.016 A 
ATOM     35 CL   UNL     1      -1.723  -0.456  -2.043  0.00  0.00    -0.083 Cl
ENDBRANCH  27  33
ENDBRANCH  26  27
ENDBRANCH  20  26
ENDBRANCH   1  23
TORSDOF 4
