REMARK  Name = ZINC16807961
REMARK  12 active torsions:
REMARK  status: ('A' for Active; 'I' for Inactive)
REMARK    1  A    between atoms: C_1  and  C_2
REMARK    2  A    between atoms: C_2  and  O_3
REMARK    3  A    between atoms: O_3  and  C_4
REMARK    4  A    between atoms: C_7  and  N_10
REMARK    5  A    between atoms: C_11  and  C_30
REMARK    6  A    between atoms: C_14  and  S_15
REMARK    7  A    between atoms: S_15  and  C_16
REMARK    8  A    between atoms: C_16  and  C_17
REMARK    9  A    between atoms: N_19  and  N_20
REMARK   10  A    between atoms: C_21  and  C_22
REMARK   11  A    between atoms: C_21  and  C_23
REMARK   12  A    between atoms: C_27  and  O_29
REMARK                            x       y       z     vdW  Elec       q    Type
REMARK                         _______ _______ _______ _____ _____    ______ ____
ROOT
ATOM      1  N   UNL     1      -8.915   5.472  -0.596  0.00  0.00    -0.270 N 
ATOM      2  C   UNL     1      -9.593   4.279  -0.480  0.00  0.00    +0.171 A 
ATOM      3  N   UNL     1      -8.695   3.344  -0.272  0.00  0.00    -0.128 NA
ATOM      4  N   UNL     1      -7.519   3.861  -0.254  0.00  0.00    -0.122 NA
ATOM      5  C   UNL     1      -7.591   5.159  -0.449  0.00  0.00    +0.197 A 
ENDROOT
BRANCH   1   9
ATOM      6  C   UNL     1     -10.553   9.251  -1.261  0.00  0.00    +0.121 A 
ATOM      7  C   UNL     1      -9.733   8.672  -2.219  0.00  0.00    +0.047 A 
ATOM      8  C   UNL     1      -9.191   7.421  -1.999  0.00  0.00    +0.030 A 
ATOM      9  C   UNL     1      -9.466   6.743  -0.819  0.00  0.00    +0.051 A 
ATOM     10  C   UNL     1     -10.291   7.320   0.137  0.00  0.00    +0.030 A 
ATOM     11  C   UNL     1     -10.829   8.573  -0.082  0.00  0.00    +0.047 A 
BRANCH   6  12
ATOM     12  O   UNL     1     -11.088  10.482  -1.477  0.00  0.00    -0.492 OA
BRANCH  12  14
ATOM     13  C   UNL     1     -12.427  12.399  -0.869  0.00  0.00    +0.048 C 
ATOM     14  C   UNL     1     -11.922  11.017  -0.449  0.00  0.00    +0.225 C 
ENDBRANCH  12  14
ENDBRANCH   6  12
ENDBRANCH   1   9
BRANCH   2  15
ATOM     15  C   UNL     1     -11.056   4.088  -0.569  0.00  0.00    +0.038 A 
ATOM     16  C   UNL     1     -11.647   2.898  -0.126  0.00  0.00    +0.014 A 
ATOM     17  C   UNL     1     -13.020   2.769  -0.231  0.00  0.00    +0.020 A 
ATOM     18  C   UNL     1     -13.759   3.810  -0.765  0.00  0.00    +0.111 A 
ATOM     19  N   UNL     1     -13.176   4.919  -1.175  0.00  0.00    -0.263 NA
ATOM     20  C   UNL     1     -11.873   5.092  -1.092  0.00  0.00    +0.122 A 
ENDBRANCH   2  15
BRANCH   5  21
ATOM     21  S   UNL     1      -6.238   6.285  -0.505  0.00  0.00    -0.076 S 
BRANCH  21  22
ATOM     22  C   UNL     1      -4.864   5.140  -0.228  0.00  0.00    +0.174 C 
BRANCH  22  23
ATOM     23  C   UNL     1      -3.564   5.903  -0.235  0.00  0.00    +0.242 C 
ATOM     24  O   UNL     1      -3.567   7.103  -0.410  0.00  0.00    -0.273 OA
ATOM     25  N   UNL     1      -2.400   5.252  -0.046  0.00  0.00    -0.206 N 
ATOM     26  H   UNL     1      -2.398   4.292   0.094  0.00  0.00    +0.177 HD
BRANCH  25  27
ATOM     27  N   UNL     1      -1.192   5.961  -0.053  0.00  0.00    -0.185 NA
ATOM     28  C   UNL     1      -0.082   5.356   0.242  0.00  0.00    +0.063 C 
ATOM     29  C   UNL     1       1.234   6.069   0.070  0.00  0.00    +0.068 C 
BRANCH  28  30
ATOM     30  C   UNL     1      -0.110   3.970   0.746  0.00  0.00    +0.001 A 
ATOM     31  C   UNL     1      -1.150   3.546   1.578  0.00  0.00    +0.010 A 
ATOM     32  C   UNL     1      -1.172   2.249   2.047  0.00  0.00    +0.004 A 
ATOM     33  C   UNL     1      -0.168   1.365   1.696  0.00  0.00    +0.045 A 
ATOM     34  C   UNL     1       0.872   1.778   0.875  0.00  0.00    +0.117 A 
ATOM     35  C   UNL     1       0.903   3.076   0.394  0.00  0.00    +0.055 A 
BRANCH  34  36
ATOM     36  O   UNL     1       1.859   0.906   0.538  0.00  0.00    -0.507 OA
ATOM     37  H   UNL     1       1.682   0.405  -0.270  0.00  0.00    +0.292 HD
ENDBRANCH  34  36
ENDBRANCH  28  30
ENDBRANCH  25  27
ENDBRANCH  22  23
ENDBRANCH  21  22
ENDBRANCH   5  21
TORSDOF 10
