REMARK  Name = ZINC09290930
REMARK  2 active torsions:
REMARK  status: ('A' for Active; 'I' for Inactive)
REMARK    1  A    between atoms: C_9  and  C_17
REMARK    2  A    between atoms: C_23  and  C_26
REMARK                            x       y       z     vdW  Elec       q    Type
REMARK                         _______ _______ _______ _____ _____    ______ ____
ROOT
ATOM      1  C   UNL     1      -0.285   0.713   0.248  0.00  0.00    +0.001 A 
ATOM      2  C   UNL     1       0.799   1.570   0.163  0.00  0.00    +0.004 A 
ATOM      3  C   UNL     1       2.083   1.069   0.055  0.00  0.00    +0.046 A 
ATOM      4  C   UNL     1       2.290  -0.299   0.034  0.00  0.00    +0.131 A 
ATOM      5  C   UNL     1       1.193  -1.166   0.123  0.00  0.00    +0.042 A 
ATOM      6  C   UNL     1      -0.094  -0.655   0.229  0.00  0.00    +0.013 A 
ATOM      7  C   UNL     1       1.449  -2.628   0.103  0.00  0.00    +0.083 C 
ATOM      8  C   UNL     1       2.714  -3.042   0.325  0.00  0.00    +0.028 C 
ATOM      9  C   UNL     1       2.990  -4.529   0.299  0.00  0.00    +0.164 C 
ATOM     10  N   UNL     1       1.832  -5.395   0.029  0.00  0.00    -0.182 N 
ATOM     11  C   UNL     1       0.612  -4.817  -0.171  0.00  0.00    +0.209 C 
ATOM     12  N   UNL     1       0.450  -3.513  -0.132  0.00  0.00    -0.216 NA
ATOM     13  N   UNL     1      -0.268  -5.843  -0.395  0.00  0.00    -0.275 N 
ATOM     14  C   UNL     1       0.428  -7.027  -0.330  0.00  0.00    +0.208 C 
ATOM     15  N   UNL     1       1.673  -6.777  -0.080  0.00  0.00    -0.169 NA
ATOM     16  C   UNL     1       3.806  -2.050   0.599  0.00  0.00    +0.235 C 
ATOM     17  O   UNL     1       3.539  -0.818  -0.075  0.00  0.00    -0.479 OA
ATOM     18  H   UNL     1      -1.218  -5.751  -0.569  0.00  0.00    +0.156 HD
ENDROOT
BRANCH  16  19
ATOM     19  C   UNL     1       3.889  -1.796   2.082  0.00  0.00    +0.015 A 
ATOM     20  C   UNL     1       2.749  -1.869   2.860  0.00  0.00    +0.010 A 
ATOM     21  C   UNL     1       2.824  -1.635   4.220  0.00  0.00    +0.020 A 
ATOM     22  C   UNL     1       4.041  -1.329   4.804  0.00  0.00    +0.042 A 
ATOM     23  C   UNL     1       5.182  -1.256   4.025  0.00  0.00    +0.040 A 
ATOM     24  C   UNL     1       5.107  -1.494   2.664  0.00  0.00    +0.049 A 
ATOM     25 CL   UNL     1       6.539  -1.409   1.688  0.00  0.00    -0.083 Cl
ATOM     26 CL   UNL     1       4.135  -1.036   6.512  0.00  0.00    -0.083 Cl
ENDBRANCH  16  19
BRANCH   9  27
ATOM     27  C   UNL     1       3.566  -4.924   1.634  0.00  0.00    -0.003 A 
ATOM     28  C   UNL     1       4.932  -5.109   1.782  0.00  0.00    +0.009 A 
ATOM     29  C   UNL     1       5.418  -5.472   3.029  0.00  0.00    +0.020 A 
ATOM     30  C   UNL     1       4.530  -5.637   4.075  0.00  0.00    +0.111 A 
ATOM     31  N   UNL     1       3.236  -5.452   3.898  0.00  0.00    -0.263 NA
ATOM     32  C   UNL     1       2.740  -5.101   2.728  0.00  0.00    +0.116 A 
ENDBRANCH   9  27
TORSDOF 2
