REMARK  Name = ZINC05044924
REMARK  10 active torsions:
REMARK  status: ('A' for Active; 'I' for Inactive)
REMARK    1  A    between atoms: C_1  and  C_2
REMARK    2  A    between atoms: C_2  and  C_3
REMARK    3  A    between atoms: C_2  and  C_4
REMARK    4  A    between atoms: C_2  and  C_5
REMARK    5  A    between atoms: C_12  and  N_32
REMARK    6  A    between atoms: C_13  and  C_30
REMARK    7  A    between atoms: C_14  and  C_16
REMARK    8  A    between atoms: C_20  and  O_22
REMARK    9  A    between atoms: O_22  and  C_23
REMARK   10  A    between atoms: C_23  and  C_24
REMARK                            x       y       z     vdW  Elec       q    Type
REMARK                         _______ _______ _______ _____ _____    ______ ____
ROOT
ATOM      1  C   UNL     1       1.397  -0.944  -1.968  0.00  0.00    +0.076 A 
ATOM      2  C   UNL     1       1.026  -2.268  -2.166  0.00  0.00    +0.050 A 
ATOM      3  C   UNL     1       1.397  -2.627  -3.432  0.00  0.00    +0.222 A 
ATOM      4  N   UNL     1       1.980  -1.560  -4.002  0.00  0.00    -0.246 N 
ATOM      5  H   UNL     1       2.344  -1.520  -4.900  0.00  0.00    +0.192 HD
ATOM      6  N   UNL     1       1.966  -0.512  -3.068  0.00  0.00    -0.175 NA
ATOM      7  O   UNL     1       1.171  -3.865  -3.937  0.00  0.00    -0.423 OA
ATOM      8  C   UNL     1       0.323  -4.669  -3.264  0.00  0.00    +0.200 C 
ATOM      9  C   UNL     1      -0.104  -4.426  -2.006  0.00  0.00    +0.098 C 
ATOM     10  C   UNL     1       0.338  -3.217  -1.220  0.00  0.00    +0.101 C 
ENDROOT
BRANCH  10  11
ATOM     11  C   UNL     1       1.296  -3.638  -0.135  0.00  0.00    -0.031 A 
ATOM     12  C   UNL     1       2.623  -3.880  -0.441  0.00  0.00    +0.005 A 
ATOM     13  C   UNL     1       3.504  -4.266   0.552  0.00  0.00    +0.004 A 
ATOM     14  C   UNL     1       3.060  -4.411   1.853  0.00  0.00    +0.045 A 
ATOM     15  C   UNL     1       1.730  -4.170   2.162  0.00  0.00    +0.121 A 
ATOM     16  C   UNL     1       0.849  -3.776   1.165  0.00  0.00    +0.050 A 
BRANCH  15  17
ATOM     17  O   UNL     1       1.291  -4.312   3.440  0.00  0.00    -0.487 OA
BRANCH  17  18
ATOM     18  C   UNL     1       2.255  -4.714   4.416  0.00  0.00    +0.264 C 
BRANCH  18  19
ATOM     19  C   UNL     1       1.591  -4.819   5.764  0.00  0.00    -0.010 A 
ATOM     20  C   UNL     1       1.541  -3.717   6.598  0.00  0.00    +0.007 A 
ATOM     21  C   UNL     1       0.932  -3.814   7.835  0.00  0.00    +0.000 A 
ATOM     22  C   UNL     1       0.372  -5.012   8.239  0.00  0.00    +0.000 A 
ATOM     23  C   UNL     1       0.422  -6.113   7.405  0.00  0.00    +0.000 A 
ATOM     24  C   UNL     1       1.027  -6.016   6.166  0.00  0.00    +0.007 A 
ENDBRANCH  18  19
ENDBRANCH  17  18
ENDBRANCH  15  17
ENDBRANCH  10  11
BRANCH   1  26
ATOM     25  C   UNL     1       1.591   1.310  -0.954  0.00  0.00    +0.017 C 
ATOM     26  C   UNL     1       1.179  -0.143  -0.711  0.00  0.00    +0.007 C 
ATOM     27  C   UNL     1       2.025  -0.730   0.421  0.00  0.00    +0.017 C 
ATOM     28  C   UNL     1      -0.299  -0.195  -0.322  0.00  0.00    +0.017 C 
ENDBRANCH   1  26
BRANCH   8  29
ATOM     29  N   UNL     1      -0.133  -5.800  -3.895  0.00  0.00    -0.328 N 
ATOM     30  H   UNL     1       0.155  -6.000  -4.799  0.00  0.00    +0.145 HD
ATOM     31  H   UNL     1      -0.744  -6.397  -3.437  0.00  0.00    +0.145 HD
ENDBRANCH   8  29
BRANCH   9  32
ATOM     32  C   UNL     1      -1.010  -5.352  -1.395  0.00  0.00    +0.101 C 
ATOM     33  N   UNL     1      -1.729  -6.086  -0.910  0.00  0.00    -0.191 NA
ENDBRANCH   9  32
TORSDOF 7
