REMARK  Name = ZINC52945512
REMARK  4 active torsions:
REMARK  status: ('A' for Active; 'I' for Inactive)
REMARK    1  A    between atoms: C_3  and  C_8
REMARK    2  A    between atoms: C_8  and  C_9
REMARK    3  A    between atoms: C_9  and  C_11
REMARK    4  A    between atoms: C_9  and  O_24
REMARK                            x       y       z     vdW  Elec       q    Type
REMARK                         _______ _______ _______ _____ _____    ______ ____
ROOT
ATOM      1  C   UNL     1       5.350   3.313   1.413  0.00  0.00    -0.003 A 
ATOM      2  C   UNL     1       6.605   2.740   1.463  0.00  0.00    +0.035 A 
ATOM      3  C   UNL     1       7.733   3.545   1.458  0.00  0.00    +0.067 A 
ATOM      4  C   UNL     1       7.596   4.934   1.403  0.00  0.00    +0.068 A 
ATOM      5  C   UNL     1       6.332   5.502   1.353  0.00  0.00    +0.043 A 
ATOM      6  C   UNL     1       5.213   4.690   1.353  0.00  0.00    +0.026 A 
ATOM      7 BR   UNL     1       3.489   5.463   1.277  0.00  0.00    -0.050 Br
ATOM      8  N   UNL     1       8.883   5.466   1.412  0.00  0.00    -0.306 N 
ATOM      9  H   UNL     1       9.108   6.409   1.382  0.00  0.00    +0.170 HD
ATOM     10  C   UNL     1       9.763   4.449   1.470  0.00  0.00    +0.325 A 
ATOM     11  O   UNL     1      10.973   4.569   1.494  0.00  0.00    -0.247 OA
ATOM     12  N   UNL     1       9.100   3.277   1.499  0.00  0.00    -0.306 N 
ATOM     13  H   UNL     1       9.505   2.397   1.542  0.00  0.00    +0.170 HD
ENDROOT
BRANCH   1  14
ATOM     14  C   UNL     1       4.123   2.438   1.418  0.00  0.00    +0.150 C 
BRANCH  14  15
ATOM     15  O   UNL     1       4.431   1.192   2.048  0.00  0.00    -0.387 OA
ATOM     16  H   UNL     1       5.135   0.694   1.611  0.00  0.00    +0.210 HD
ENDBRANCH  14  15
BRANCH  14  17
ATOM     17  C   UNL     1       3.672   2.184  -0.021  0.00  0.00    +0.071 C 
BRANCH  17  20
ATOM     18  C   UNL     1      -0.017   1.378   0.010  0.00  0.00    +0.002 A 
ATOM     19  C   UNL     1       1.171   2.086   0.002  0.00  0.00    +0.004 A 
ATOM     20  C   UNL     1       2.378   1.412  -0.013  0.00  0.00    -0.043 A 
ATOM     21  C   UNL     1       2.398   0.029  -0.021  0.00  0.00    +0.023 A 
ATOM     22  C   UNL     1       1.210  -0.679  -0.013  0.00  0.00    +0.041 A 
ATOM     23  C   UNL     1       0.002  -0.004   0.002  0.00  0.00    +0.020 A 
ATOM     24 CL   UNL     1       1.234  -2.415  -0.024  0.00  0.00    -0.084 Cl
ENDBRANCH  17  20
ENDBRANCH  14  17
ENDBRANCH   1  14
TORSDOF 4
