REMARK  Name = ZINC58900071
REMARK  8 active torsions:
REMARK  status: ('A' for Active; 'I' for Inactive)
REMARK    1  A    between atoms: C_1  and  C_2
REMARK    2  A    between atoms: C_2  and  O_3
REMARK    3  A    between atoms: O_3  and  C_4
REMARK    4  A    between atoms: C_4  and  C_6
REMARK    5  A    between atoms: C_7  and  C_30
REMARK    6  A    between atoms: C_9  and  N_29
REMARK    7  A    between atoms: C_10  and  C_27
REMARK    8  A    between atoms: C_11  and  C_13
REMARK                            x       y       z     vdW  Elec       q    Type
REMARK                         _______ _______ _______ _____ _____    ______ ____
ROOT
ATOM      1  C   UNL     1      -2.788  -2.419  -0.128  0.00  0.00    +0.087 C 
ATOM      2  C   UNL     1      -2.995  -3.731  -0.297  0.00  0.00    +0.115 C 
ATOM      3  O   UNL     1      -4.222  -4.271  -0.233  0.00  0.00    -0.445 OA
ATOM      4  C   UNL     1      -5.307  -3.487  -0.371  0.00  0.00    +0.198 C 
ATOM      5  C   UNL     1      -5.236  -2.144  -0.204  0.00  0.00    +0.098 C 
ATOM      6  C   UNL     1      -3.931  -1.481   0.149  0.00  0.00    +0.106 C 
ATOM      7  C   UNL     1      -1.814  -4.628  -0.567  0.00  0.00    +0.087 C 
ENDROOT
BRANCH   6   8
ATOM      8  C   UNL     1      -3.931  -1.111   1.611  0.00  0.00    -0.019 A 
ATOM      9  C   UNL     1      -3.916   0.228   1.995  0.00  0.00    -0.013 A 
ATOM     10  C   UNL     1      -3.900   1.262   1.034  0.00  0.00    +0.009 A 
ATOM     11  C   UNL     1      -3.885   2.557   1.444  0.00  0.00    +0.001 A 
ATOM     12  C   UNL     1      -3.885   2.898   2.796  0.00  0.00    +0.001 A 
ATOM     13  C   UNL     1      -3.900   1.954   3.771  0.00  0.00    +0.008 A 
ATOM     14  C   UNL     1      -3.916   0.588   3.417  0.00  0.00    -0.017 A 
ATOM     15  C   UNL     1      -3.932  -0.408   4.392  0.00  0.00    +0.017 A 
ATOM     16  C   UNL     1      -3.946  -1.747   4.007  0.00  0.00    -0.017 A 
ATOM     17  C   UNL     1      -3.953  -2.107   2.586  0.00  0.00    -0.013 A 
ATOM     18  C   UNL     1      -3.975  -3.473   2.232  0.00  0.00    +0.009 A 
ATOM     19  C   UNL     1      -3.997  -4.417   3.207  0.00  0.00    +0.001 A 
ATOM     20  C   UNL     1      -3.997  -4.075   4.560  0.00  0.00    +0.001 A 
ATOM     21  C   UNL     1      -3.962  -2.781   4.969  0.00  0.00    +0.008 A 
ENDBRANCH   6   8
BRANCH   4  22
ATOM     22  N   UNL     1      -6.514  -4.061  -0.687  0.00  0.00    -0.328 N 
ATOM     23  H   UNL     1      -6.577  -5.021  -0.809  0.00  0.00    +0.145 HD
ATOM     24  H   UNL     1      -7.303  -3.506  -0.788  0.00  0.00    +0.145 HD
ENDBRANCH   4  22
BRANCH   1  25
ATOM     25  C   UNL     1      -1.470  -1.906  -0.206  0.00  0.00    +0.339 C 
ATOM     26  O   UNL     1      -1.089  -1.362  -1.225  0.00  0.00    -0.245 OA
BRANCH  25  27
ATOM     27  O   UNL     1      -0.638  -2.022   0.850  0.00  0.00    -0.462 OA
BRANCH  27  29
ATOM     28  C   UNL     1       1.468  -1.705   1.992  0.00  0.00    +0.048 C 
ATOM     29  C   UNL     1       0.677  -1.482   0.701  0.00  0.00    +0.229 C 
ENDBRANCH  27  29
ENDBRANCH  25  27
ENDBRANCH   1  25
BRANCH   5  30
ATOM     30  C   UNL     1      -6.415  -1.348  -0.361  0.00  0.00    +0.101 C 
ATOM     31  N   UNL     1      -7.351  -0.717  -0.486  0.00  0.00    -0.191 NA
ENDBRANCH   5  30
TORSDOF 6
