REMARK  Name = ZINC37900646
REMARK  10 active torsions:
REMARK  status: ('A' for Active; 'I' for Inactive)
REMARK    1  A    between atoms: C_1  and  C_2
REMARK    2  A    between atoms: C_2  and  N_3
REMARK    3  A    between atoms: N_3  and  C_4
REMARK    4  A    between atoms: N_3  and  S_7
REMARK    5  A    between atoms: C_4  and  C_5
REMARK    6  A    between atoms: C_5  and  O_6
REMARK    7  A    between atoms: S_7  and  C_10
REMARK    8  A    between atoms: C_13  and  C_17
REMARK    9  A    between atoms: C_18  and  C_19
REMARK   10  A    between atoms: C_19  and  N_20
REMARK                            x       y       z     vdW  Elec       q    Type
REMARK                         _______ _______ _______ _____ _____    ______ ____
ROOT
ATOM      1  C   UNL     1       3.218   0.606   1.484  0.00  0.00    +0.142 A 
ATOM      2  C   UNL     1       3.567   1.487   0.474  0.00  0.00    +0.070 A 
ATOM      3  C   UNL     1       4.269   2.639   0.771  0.00  0.00    +0.039 A 
ATOM      4  C   UNL     1       4.626   2.914   2.092  0.00  0.00    +0.028 A 
ATOM      5  C   UNL     1       4.271   2.023   3.105  0.00  0.00    +0.039 A 
ATOM      6  C   UNL     1       3.564   0.877   2.796  0.00  0.00    +0.070 A 
ATOM      7 CL   UNL     1       3.115  -0.230   4.057  0.00  0.00    -0.081 Cl
ATOM      8 CL   UNL     1       3.122   1.143  -1.168  0.00  0.00    -0.081 Cl
ENDROOT
BRANCH   1   9
ATOM      9  S   UNL     1       2.322  -0.861   1.097  0.00  0.00    +0.064 S 
ATOM     10  O   UNL     1       2.586  -1.786   2.143  0.00  0.00    -0.153 OA
ATOM     11  O   UNL     1       2.594  -1.155  -0.266  0.00  0.00    -0.153 OA
BRANCH   9  12
ATOM     12  N   UNL     1       0.711  -0.489   1.189  0.00  0.00    -0.175 NA
BRANCH  12  14
ATOM     13  C   UNL     1      -0.019   1.526   0.010  0.00  0.00    +0.022 C 
ATOM     14  C   UNL     1       0.002  -0.004   0.002  0.00  0.00    +0.106 C 
ENDBRANCH  12  14
BRANCH  12  15
ATOM     15  C   UNL     1      -0.006  -0.646   2.457  0.00  0.00    +0.137 C 
BRANCH  15  16
ATOM     16  C   UNL     1      -0.694  -2.013   2.489  0.00  0.00    +0.173 C 
BRANCH  16  17
ATOM     17  O   UNL     1       0.296  -3.044   2.484  0.00  0.00    -0.394 OA
ATOM     18  H   UNL     1      -0.069  -3.939   2.503  0.00  0.00    +0.209 HD
ENDBRANCH  16  17
ENDBRANCH  15  16
ENDBRANCH  12  15
ENDBRANCH   9  12
ENDBRANCH   1   9
BRANCH   4  19
ATOM     19  C   UNL     1       5.354   4.106   2.406  0.00  0.00    -0.068 C 
ATOM     20  C   UNL     1       5.952   5.083   2.664  0.00  0.00    -0.117 C 
BRANCH  20  21
ATOM     21  C   UNL     1       6.700   6.309   2.987  0.00  0.00    +0.005 C 
BRANCH  21  22
ATOM     22  N   UNL     1       6.950   6.363   4.433  0.00  0.00    +0.385 N 
ATOM     23  H   UNL     1       7.463   7.203   4.654  0.00  0.00    -0.089 HD
ATOM     24  H   UNL     1       6.070   6.367   4.926  0.00  0.00    -0.089 HD
ATOM     25  H   UNL     1       7.488   5.557   4.712  0.00  0.00    -0.089 HD
ENDBRANCH  21  22
ENDBRANCH  20  21
ENDBRANCH   4  19
TORSDOF 9
