REMARK  Name = ZINC48365014
REMARK  5 active torsions:
REMARK  status: ('A' for Active; 'I' for Inactive)
REMARK    1  A    between atoms: C_4  and  C_7
REMARK    2  A    between atoms: C_7  and  C_8
REMARK    3  A    between atoms: C_10  and  C_13
REMARK    4  A    between atoms: C_13  and  N_14
REMARK    5  A    between atoms: C_22  and  C_24
REMARK                            x       y       z     vdW  Elec       q    Type
REMARK                         _______ _______ _______ _____ _____    ______ ____
ROOT
ATOM      1  N   UNL     1       5.070   0.807   5.230  0.00  0.00    +0.395 N 
ATOM      2  C   UNL     1       4.552   1.926   4.431  0.00  0.00    -0.055 C 
ATOM      3  C   UNL     1       3.406   2.615   5.182  0.00  0.00    +0.103 C 
ATOM      4  N   UNL     1       3.869   2.915   6.543  0.00  0.00    -0.353 N 
ATOM      5  C   UNL     1       3.324   3.767   7.447  0.00  0.00    +0.086 A 
ATOM      6  C   UNL     1       4.081   3.734   8.565  0.00  0.00    +0.019 A 
ATOM      7  C   UNL     1       5.134   2.822   8.338  0.00  0.00    +0.021 A 
ATOM      8  C   UNL     1       4.980   2.335   7.098  0.00  0.00    +0.009 A 
ATOM      9  C   UNL     1       5.835   1.322   6.378  0.00  0.00    +0.011 C 
ATOM     10  H   UNL     1       4.298   0.251   5.565  0.00  0.00    -0.080 HD
ENDROOT
BRANCH   9  11
ATOM     11  C   UNL     1       6.176   0.189   7.311  0.00  0.00    -0.055 A 
ATOM     12  C   UNL     1       5.247  -0.803   7.564  0.00  0.00    +0.002 A 
ATOM     13  C   UNL     1       5.559  -1.842   8.420  0.00  0.00    +0.000 A 
ATOM     14  C   UNL     1       6.802  -1.890   9.023  0.00  0.00    +0.000 A 
ATOM     15  C   UNL     1       7.732  -0.899   8.770  0.00  0.00    +0.000 A 
ATOM     16  C   UNL     1       7.421   0.138   7.911  0.00  0.00    +0.002 A 
ENDBRANCH   9  11
BRANCH   1  17
ATOM     17  C   UNL     1       5.945  -0.026   4.394  0.00  0.00    +0.023 C 
BRANCH  17  20
ATOM     18  C   UNL     1       4.164  -0.959   1.377  0.00  0.00    +0.176 A 
ATOM     19  N   UNL     1       4.925  -0.137   2.109  0.00  0.00    -0.197 NA
ATOM     20  C   UNL     1       5.135  -0.652   3.288  0.00  0.00    +0.211 A 
ATOM     21  O   UNL     1       4.507  -1.833   3.348  0.00  0.00    -0.340 OA
ATOM     22  N   UNL     1       3.875  -2.010   2.089  0.00  0.00    -0.061 NA
BRANCH  18  23
ATOM     23  C   UNL     1       3.711  -0.707  -0.038  0.00  0.00    +0.114 C 
BRANCH  23  27
ATOM     24  C   UNL     1      -0.017   1.378   0.010  0.00  0.00    +0.000 A 
ATOM     25  C   UNL     1       1.171   2.086   0.002  0.00  0.00    +0.000 A 
ATOM     26  C   UNL     1       2.377   1.411  -0.013  0.00  0.00    +0.004 A 
ATOM     27  C   UNL     1       2.396   0.029  -0.020  0.00  0.00    -0.040 A 
ATOM     28  C   UNL     1       1.208  -0.679  -0.012  0.00  0.00    +0.004 A 
ATOM     29  C   UNL     1       0.002  -0.004   0.002  0.00  0.00    +0.000 A 
ENDBRANCH  23  27
ENDBRANCH  18  23
ENDBRANCH  17  20
ENDBRANCH   1  17
TORSDOF 5
