REMARK  Name = ZINC13211642
REMARK  11 active torsions:
REMARK  status: ('A' for Active; 'I' for Inactive)
REMARK    1  A    between atoms: C_1  and  N_59
REMARK    2  A    between atoms: C_2  and  N_59
REMARK    3  A    between atoms: C_3  and  C_9
REMARK    4  A    between atoms: C_3  and  N_59
REMARK    5  A    between atoms: C_9  and  N_10
REMARK    6  A    between atoms: N_10  and  C_11
REMARK    7  A    between atoms: C_14  and  S_20
REMARK    8  A    between atoms: C_16  and  N_17
REMARK    9  A    between atoms: S_20  and  N_23
REMARK   10  A    between atoms: N_23  and  C_24
REMARK   11  A    between atoms: C_27  and  C_30
REMARK                            x       y       z     vdW  Elec       q    Type
REMARK                         _______ _______ _______ _____ _____    ______ ____
ROOT
ATOM      1  C   UNL     1       2.956  -1.394   3.493  0.00  0.00    +0.058 A 
ATOM      2  C   UNL     1       3.483  -0.912   2.301  0.00  0.00    +0.027 A 
ATOM      3  C   UNL     1       2.649  -0.666   1.229  0.00  0.00    +0.031 A 
ATOM      4  C   UNL     1       1.289  -0.887   1.343  0.00  0.00    +0.111 A 
ATOM      5  C   UNL     1       0.761  -1.367   2.527  0.00  0.00    +0.063 A 
ATOM      6  C   UNL     1       1.590  -1.621   3.602  0.00  0.00    +0.149 A 
ENDROOT
BRANCH   6   7
ATOM      7  N   UNL     1       1.024  -2.135   4.870  0.00  0.00    +0.058 N 
ATOM      8  O   UNL     1      -0.183  -2.227   5.004  0.00  0.00    -0.126 OA
ATOM      9  O   UNL     1       1.765  -2.465   5.778  0.00  0.00    -0.126 OA
ENDBRANCH   6   7
BRANCH   4  10
ATOM     10  S   UNL     1       0.228  -0.565  -0.026  0.00  0.00    +0.072 S 
ATOM     11  O   UNL     1      -0.977  -1.278   0.217  0.00  0.00    -0.150 OA
ATOM     12  O   UNL     1       1.006  -0.760  -1.198  0.00  0.00    -0.150 OA
BRANCH  10  13
ATOM     13  N   UNL     1      -0.158   1.045   0.023  0.00  0.00    -0.216 N 
ATOM     14  H   UNL     1       0.091   1.626  -0.713  0.00  0.00    +0.174 HD
BRANCH  13  15
ATOM     15  C   UNL     1      -0.835   1.565   1.120  0.00  0.00    +0.048 A 
ATOM     16  C   UNL     1      -1.949   0.901   1.627  0.00  0.00    +0.025 A 
ATOM     17  C   UNL     1      -2.616   1.408   2.713  0.00  0.00    +0.017 A 
ATOM     18  C   UNL     1      -2.183   2.599   3.304  0.00  0.00    +0.063 A 
ATOM     19  C   UNL     1      -1.067   3.267   2.788  0.00  0.00    +0.017 A 
ATOM     20  C   UNL     1      -0.401   2.751   1.706  0.00  0.00    +0.025 A 
BRANCH  18  21
ATOM     21  C   UNL     1      -2.901   3.150   4.467  0.00  0.00    +0.387 C 
ATOM     22  O   UNL     1      -2.523   4.185   4.979  0.00  0.00    -0.241 OA
ATOM     23  O   UNL     1      -3.976   2.506   4.962  0.00  0.00    -0.241 OA
ENDBRANCH  18  21
ENDBRANCH  13  15
ENDBRANCH  10  13
ENDBRANCH   4  10
BRANCH   1  24
ATOM     24  N   UNL     1       3.797  -1.650   4.578  0.00  0.00    -0.343 N 
ATOM     25  H   UNL     1       3.444  -2.071   5.377  0.00  0.00    +0.146 HD
BRANCH  24  26
ATOM     26  C   UNL     1       5.214  -1.282   4.509  0.00  0.00    +0.089 C 
BRANCH  26  27
ATOM     27  C   UNL     1       5.930  -1.775   5.768  0.00  0.00    -0.050 C 
ATOM     28  C   UNL     1       7.396  -1.339   5.724  0.00  0.00    -0.010 C 
ATOM     29  C   UNL     1       8.070  -1.936   4.487  0.00  0.00    -0.001 C 
ATOM     30  C   UNL     1       7.994  -3.463   4.552  0.00  0.00    -0.000 C 
ATOM     31  C   UNL     1       6.528  -3.899   4.596  0.00  0.00    -0.001 C 
ATOM     32  C   UNL     1       5.855  -3.302   5.833  0.00  0.00    -0.010 C 
BRANCH  27  35
ATOM     33  C   UNL     1       5.990  -1.596   8.182  0.00  0.00    -0.096 C 
ATOM     34  C   UNL     1       5.191   0.261   6.849  0.00  0.00    -0.096 C 
ATOM     35  N   UNL     1       5.257  -1.212   6.957  0.00  0.00    +0.381 N 
ATOM     36  H   UNL     1       4.303  -1.586   7.008  0.00  0.00    -0.082 HD
ENDBRANCH  27  35
ENDBRANCH  26  27
ENDBRANCH  24  26
ENDBRANCH   1  24
TORSDOF 9
