REMARK  Name = ZINC10847062
REMARK  6 active torsions:
REMARK  status: ('A' for Active; 'I' for Inactive)
REMARK    1  A    between atoms: C_4  and  C_7
REMARK    2  A    between atoms: C_7  and  C_9
REMARK    3  A    between atoms: C_7  and  O_12
REMARK    4  A    between atoms: O_12  and  C_13
REMARK    5  A    between atoms: C_13  and  C_15
REMARK    6  A    between atoms: C_16  and  C_17
REMARK                            x       y       z     vdW  Elec       q    Type
REMARK                         _______ _______ _______ _____ _____    ______ ____
ROOT
ATOM      1  C   UNL     1       1.666   8.198  -4.465  0.00  0.00    +0.333 C 
ATOM      2  O   UNL     1       1.356   9.162  -3.792  0.00  0.00    -0.246 OA
ENDROOT
BRANCH   1   3
ATOM      3  C   UNL     1       1.326   6.892  -4.032  0.00  0.00    +0.092 C 
ATOM      4  C   UNL     1       0.657   6.718  -2.871  0.00  0.00    +0.015 C 
BRANCH   4   5
ATOM      5  C   UNL     1       0.304   5.364  -2.422  0.00  0.00    -0.020 A 
ATOM      6  C   UNL     1      -0.390   5.182  -1.219  0.00  0.00    +0.057 A 
ATOM      7  C   UNL     1      -0.717   3.907  -0.806  0.00  0.00    +0.164 A 
ATOM      8  C   UNL     1      -0.361   2.807  -1.580  0.00  0.00    +0.180 A 
ATOM      9  C   UNL     1       0.327   2.983  -2.773  0.00  0.00    +0.087 A 
ATOM     10  C   UNL     1       0.659   4.254  -3.196  0.00  0.00    +0.031 A 
ATOM     11 CL   UNL     1       0.769   1.605  -3.733  0.00  0.00    -0.080 Cl
ATOM     12  O   UNL     1      -0.692   1.553  -1.159  0.00  0.00    -0.487 OA
ATOM     13  C   UNL     1      -0.013   1.086   0.008  0.00  0.00    +0.232 C 
ATOM     14  C   UNL     1      -0.712   1.570   1.269  0.00  0.00    +0.082 C 
ATOM     15  C   UNL     1      -0.661   3.083   1.414  0.00  0.00    +0.232 C 
ATOM     16  O   UNL     1      -1.394   3.716   0.364  0.00  0.00    -0.488 OA
ENDBRANCH   4   5
ENDBRANCH   1   3
BRANCH   1  17
ATOM     17  O   UNL     1       2.334   8.371  -5.625  0.00  0.00    -0.444 OA
BRANCH  17  18
ATOM     18  C   UNL     1       2.645   9.715  -6.000  0.00  0.00    +0.292 C 
BRANCH  18  22
ATOM     19  C   UNL     1       2.758  10.014 -10.260  0.00  0.00    +0.000 A 
ATOM     20  C   UNL     1       2.286  11.072  -9.505  0.00  0.00    +0.000 A 
ATOM     21  C   UNL     1       2.250  10.975  -8.127  0.00  0.00    +0.008 A 
ATOM     22  C   UNL     1       2.684   9.820  -7.503  0.00  0.00    +0.002 A 
ATOM     23  C   UNL     1       3.161   8.764  -8.257  0.00  0.00    +0.008 A 
ATOM     24  C   UNL     1       3.193   8.859  -9.636  0.00  0.00    +0.000 A 
ENDBRANCH  18  22
BRANCH  18  25
ATOM     25  C   UNL     1       3.988  10.097  -5.434  0.00  0.00    +0.256 C 
ATOM     26  O   UNL     1       4.658   9.271  -4.852  0.00  0.00    -0.272 OA
ATOM     27  N   UNL     1       4.445  11.357  -5.575  0.00  0.00    -0.326 N 
ATOM     28  H   UNL     1       3.909  12.018  -6.040  0.00  0.00    +0.145 HD
ATOM     29  H   UNL     1       5.310  11.603  -5.210  0.00  0.00    +0.145 HD
ENDBRANCH  18  25
ENDBRANCH  17  18
ENDBRANCH   1  17
TORSDOF 6
