REMARK  Name = ZINC21228087
REMARK  10 active torsions:
REMARK  status: ('A' for Active; 'I' for Inactive)
REMARK    1  A    between atoms: C_1  and  C_2
REMARK    2  A    between atoms: C_2  and  C_3
REMARK    3  A    between atoms: C_2  and  O_4
REMARK    4  A    between atoms: O_4  and  C_5
REMARK    5  A    between atoms: C_10  and  C_11
REMARK    6  A    between atoms: C_16  and  C_21
REMARK    7  A    between atoms: C_23  and  O_29
REMARK    8  A    between atoms: C_26  and  O_27
REMARK    9  A    between atoms: O_27  and  C_28
REMARK   10  A    between atoms: O_29  and  C_30
REMARK                            x       y       z     vdW  Elec       q    Type
REMARK                         _______ _______ _______ _____ _____    ______ ____
ROOT
ATOM      1  C   UNL     1      -2.938   3.652  -1.060  0.00  0.00    +0.139 C 
ATOM      2  C   UNL     1      -3.328   2.194  -1.037  0.00  0.00    +0.037 C 
ATOM      3  C   UNL     1      -2.617   1.196  -0.484  0.00  0.00    +0.017 C 
ATOM      4  C   UNL     1      -3.131  -0.233  -0.523  0.00  0.00    +0.060 C 
ATOM      5  C   UNL     1      -3.945  -0.460  -1.796  0.00  0.00    +0.036 C 
ATOM      6  C   UNL     1      -5.114   0.531  -1.785  0.00  0.00    +0.088 C 
ATOM      7  C   UNL     1      -4.561   1.920  -1.675  0.00  0.00    +0.163 C 
ATOM      8  O   UNL     1      -5.193   2.843  -2.150  0.00  0.00    -0.292 OA
ATOM      9  N   UNL     1      -1.427   1.356   0.149  0.00  0.00    -0.316 N 
ATOM     10  C   UNL     1      -0.366   2.109  -0.340  0.00  0.00    +0.052 A 
ATOM     11  C   UNL     1       0.860   1.544  -0.644  0.00  0.00    +0.025 A 
ATOM     12  C   UNL     1       1.911   2.364  -1.018  0.00  0.00    +0.002 A 
ATOM     13  C   UNL     1       1.736   3.735  -1.085  0.00  0.00    +0.002 A 
ATOM     14  C   UNL     1       0.505   4.299  -0.801  0.00  0.00    +0.025 A 
ATOM     15  C   UNL     1      -0.551   3.479  -0.436  0.00  0.00    +0.049 A 
ATOM     16  N   UNL     1      -1.825   3.993  -0.199  0.00  0.00    -0.331 N 
ATOM     17  H   UNL     1      -1.252   0.872   1.121  0.00  0.00    +0.152 HD
ATOM     18  H   UNL     1      -1.979   4.666   0.658  0.00  0.00    +0.147 HD
ENDROOT
BRANCH   1  24
ATOM     19  C   UNL     1      -2.613   5.352  -2.874  0.00  0.00    +0.126 A 
ATOM     20  C   UNL     1      -2.280   5.691  -4.178  0.00  0.00    +0.046 A 
ATOM     21  C   UNL     1      -1.913   4.706  -5.074  0.00  0.00    +0.004 A 
ATOM     22  C   UNL     1      -1.879   3.383  -4.674  0.00  0.00    +0.001 A 
ATOM     23  C   UNL     1      -2.205   3.043  -3.374  0.00  0.00    +0.009 A 
ATOM     24  C   UNL     1      -2.577   4.024  -2.475  0.00  0.00    +0.019 A 
BRANCH  19  25
ATOM     25  O   UNL     1      -2.973   6.319  -1.990  0.00  0.00    -0.489 OA
BRANCH  25  27
ATOM     26  C   UNL     1      -4.157   8.050  -3.191  0.00  0.00    +0.051 C 
ATOM     27  C   UNL     1      -2.880   7.673  -2.437  0.00  0.00    +0.167 C 
ATOM     28  C   UNL     1      -2.710   8.598  -1.230  0.00  0.00    +0.051 C 
ENDBRANCH  25  27
ENDBRANCH  19  25
ENDBRANCH   1  24
BRANCH   5  29
ATOM     29  C   UNL     1      -4.472  -1.872  -1.820  0.00  0.00    +0.002 A 
ATOM     30  C   UNL     1      -5.302  -2.317  -0.809  0.00  0.00    +0.053 A 
ATOM     31  C   UNL     1      -5.791  -3.614  -0.834  0.00  0.00    +0.121 A 
ATOM     32  C   UNL     1      -5.437  -4.469  -1.867  0.00  0.00    +0.049 A 
ATOM     33  C   UNL     1      -4.603  -4.027  -2.875  0.00  0.00    +0.049 A 
ATOM     34  C   UNL     1      -4.118  -2.727  -2.853  0.00  0.00    +0.124 A 
BRANCH  34  35
ATOM     35  O   UNL     1      -3.297  -2.291  -3.845  0.00  0.00    -0.495 OA
ATOM     36  C   UNL     1      -2.974  -3.225  -4.878  0.00  0.00    +0.277 C 
ENDBRANCH  34  35
BRANCH  31  37
ATOM     37  O   UNL     1      -6.613  -4.050   0.158  0.00  0.00    -0.495 OA
ATOM     38  C   UNL     1      -7.074  -5.400   0.072  0.00  0.00    +0.277 C 
ENDBRANCH  31  37
ENDBRANCH   5  29
TORSDOF 6
