REMARK  Name = ZINC23144576
REMARK  3 active torsions:
REMARK  status: ('A' for Active; 'I' for Inactive)
REMARK    1  A    between atoms: C_3  and  C_6
REMARK    2  A    between atoms: C_10  and  C_16
REMARK    3  A    between atoms: C_16  and  C_17
REMARK                            x       y       z     vdW  Elec       q    Type
REMARK                         _______ _______ _______ _____ _____    ______ ____
ROOT
ATOM      1  C   UNL     1       3.574   0.619  -0.029  0.00  0.00    +0.219 A 
ATOM      2  N   UNL     1       4.373   1.690  -0.026  0.00  0.00    -0.186 NA
ATOM      3  C   UNL     1       5.641   1.302  -0.042  0.00  0.00    +0.257 A 
ATOM      4  N   UNL     1       6.793   1.985  -0.046  0.00  0.00    -0.215 NA
ATOM      5  C   UNL     1       7.952   1.361  -0.063  0.00  0.00    +0.051 A 
ATOM      6  C   UNL     1       8.003  -0.032  -0.078  0.00  0.00    +0.095 A 
ATOM      7  C   UNL     1       6.834  -0.743  -0.075  0.00  0.00    +0.276 A 
ATOM      8  O   UNL     1       6.852  -2.095  -0.089  0.00  0.00    -0.266 OA
ATOM      9  N   UNL     1       5.651  -0.066  -0.057  0.00  0.00    -0.159 N 
ATOM     10  N   UNL     1       4.311  -0.476  -0.042  0.00  0.00    -0.137 NA
ENDROOT
BRANCH   1  13
ATOM     11  C   UNL     1      -0.016   1.343   0.009  0.00  0.00    +0.042 A 
ATOM     12  C   UNL     1       1.325   1.774  -0.001  0.00  0.00    +0.053 A 
ATOM     13  C   UNL     1       2.096   0.655  -0.014  0.00  0.00    +0.173 A 
ATOM     14  O   UNL     1       1.280  -0.417  -0.012  0.00  0.00    -0.460 OA
ATOM     15  C   UNL     1       0.002  -0.004   0.002  0.00  0.00    +0.196 A 
ENDBRANCH   1  13
BRANCH   5  16
ATOM     16  C   UNL     1       9.231   2.158  -0.067  0.00  0.00    +0.061 C 
BRANCH  16  17
ATOM     17  C   UNL     1       8.901   3.652  -0.049  0.00  0.00    +0.017 C 
ATOM     18  C   UNL     1       8.216   4.007   1.281  0.00  0.00    +0.028 C 
ATOM     19  C   UNL     1       8.178   5.557   1.407  0.00  0.00    +0.166 C 
ATOM     20  S   UNL     1       9.851   5.989   0.767  0.00  0.00    -0.031 S 
ATOM     21  O   UNL     1       9.735   7.090  -0.124  0.00  0.00    -0.174 OA
ATOM     22  O   UNL     1      10.759   6.064   1.857  0.00  0.00    -0.174 OA
ATOM     23  C   UNL     1      10.207   4.468  -0.203  0.00  0.00    +0.169 C 
ENDBRANCH  16  17
ENDBRANCH   5  16
TORSDOF 3
