REMARK  Name = ZINC60154854
REMARK  11 active torsions:
REMARK  status: ('A' for Active; 'I' for Inactive)
REMARK    1  A    between atoms: C_1  and  C_2
REMARK    2  A    between atoms: C_2  and  C_3
REMARK    3  A    between atoms: C_2  and  C_4
REMARK    4  A    between atoms: C_2  and  O_5
REMARK    5  A    between atoms: O_5  and  C_6
REMARK    6  A    between atoms: C_11  and  C_14
REMARK    7  A    between atoms: C_14  and  C_15
REMARK    8  A    between atoms: N_17  and  C_18
REMARK    9  A    between atoms: C_18  and  C_19
REMARK   10  A    between atoms: C_19  and  C_21
REMARK   11  A    between atoms: C_19  and  N_28
REMARK                            x       y       z     vdW  Elec       q    Type
REMARK                         _______ _______ _______ _____ _____    ______ ____
ROOT
ATOM      1  C   UNL     1       6.539  -2.994  -4.611  0.00  0.00    +0.213 C 
ATOM      2  O   UNL     1       6.826  -1.817  -4.564  0.00  0.00    -0.276 OA
ATOM      3  N   UNL     1       7.468  -3.899  -4.979  0.00  0.00    -0.317 N 
ATOM      4  H   UNL     1       7.239  -4.841  -5.016  0.00  0.00    +0.149 HD
ENDROOT
BRANCH   1   5
ATOM      5  C   UNL     1       5.145  -3.445  -4.258  0.00  0.00    +0.099 C 
BRANCH   5  11
ATOM      6  C   UNL     1       1.887  -0.472  -1.054  0.00  0.00    +0.403 C 
ATOM      7  O   UNL     1       2.404   0.109  -0.121  0.00  0.00    -0.226 OA
ATOM      8  N   UNL     1       2.609  -0.750  -2.158  0.00  0.00    -0.267 N 
ATOM      9  C   UNL     1       1.997  -1.447  -3.297  0.00  0.00    +0.111 C 
ATOM     10  C   UNL     1       2.851  -2.671  -3.642  0.00  0.00    +0.023 C 
ATOM     11  C   UNL     1       4.297  -2.230  -3.879  0.00  0.00    +0.001 C 
ATOM     12  C   UNL     1       4.854  -1.597  -2.602  0.00  0.00    +0.023 C 
ATOM     13  C   UNL     1       4.022  -0.355  -2.247  0.00  0.00    +0.111 C 
BRANCH   6  14
ATOM     14  O   UNL     1       0.594  -0.840  -0.986  0.00  0.00    -0.445 OA
BRANCH  14  16
ATOM     15  C   UNL     1      -0.103   1.003   0.413  0.00  0.00    +0.055 C 
ATOM     16  C   UNL     1      -0.111  -0.514   0.214  0.00  0.00    +0.107 C 
ATOM     17  C   UNL     1       0.572  -1.188   1.406  0.00  0.00    +0.055 C 
ATOM     18  C   UNL     1      -1.555  -1.007   0.107  0.00  0.00    +0.055 C 
ENDBRANCH  14  16
ENDBRANCH   6  14
ENDBRANCH   5  11
ENDBRANCH   1   5
BRANCH   3  19
ATOM     19  C   UNL     1       8.823  -3.461  -5.321  0.00  0.00    +0.093 C 
BRANCH  19  20
ATOM     20  C   UNL     1       9.700  -4.684  -5.596  0.00  0.00    -0.020 C 
BRANCH  20  21
ATOM     21  C   UNL     1       9.201  -5.393  -6.829  0.00  0.00    -0.058 A 
ATOM     22  C   UNL     1       9.537  -4.919  -8.083  0.00  0.00    +0.002 A 
ATOM     23  C   UNL     1       9.079  -5.570  -9.214  0.00  0.00    +0.002 A 
ATOM     24  C   UNL     1       8.284  -6.694  -9.091  0.00  0.00    +0.020 A 
ATOM     25  C   UNL     1       7.948  -7.169  -7.836  0.00  0.00    +0.041 A 
ATOM     26  C   UNL     1       8.411  -6.521  -6.704  0.00  0.00    +0.022 A 
ATOM     27 CL   UNL     1       6.950  -8.581  -7.680  0.00  0.00    -0.084 Cl
ENDBRANCH  20  21
BRANCH  20  28
ATOM     28  N   UNL     1      11.088  -4.253  -5.809  0.00  0.00    +0.385 N 
ATOM     29  C   UNL     1      11.621  -3.616  -4.577  0.00  0.00    -0.078 C 
ATOM     30  C   UNL     1      13.156  -3.743  -4.747  0.00  0.00    -0.020 C 
ATOM     31  C   UNL     1      13.316  -5.131  -5.408  0.00  0.00    -0.020 C 
ATOM     32  C   UNL     1      11.953  -5.425  -6.062  0.00  0.00    -0.078 C 
ATOM     33  H   UNL     1      11.139  -3.609  -6.584  0.00  0.00    -0.081 HD
ENDBRANCH  20  28
ENDBRANCH  19  20
ENDBRANCH   3  19
TORSDOF 8
