REMARK  Name = ZINC59104574
REMARK  7 active torsions:
REMARK  status: ('A' for Active; 'I' for Inactive)
REMARK    1  A    between atoms: C_1  and  C_2
REMARK    2  A    between atoms: C_5  and  C_30
REMARK    3  A    between atoms: N_6  and  C_7
REMARK    4  A    between atoms: C_11  and  C_13
REMARK    5  A    between atoms: N_15  and  N_16
REMARK    6  A    between atoms: C_17  and  C_18
REMARK    7  A    between atoms: C_21  and  N_24
REMARK                            x       y       z     vdW  Elec       q    Type
REMARK                         _______ _______ _______ _____ _____    ______ ____
ROOT
ATOM      1  C   UNL     1      -2.174  -0.525   5.478  0.00  0.00    +0.265 C 
ATOM      2  O   UNL     1      -2.162  -0.144   6.633  0.00  0.00    -0.268 OA
ATOM      3  N   UNL     1      -3.228  -1.222   5.009  0.00  0.00    -0.203 N 
ATOM      4  H   UNL     1      -3.237  -1.526   4.088  0.00  0.00    +0.178 HD
ENDROOT
BRANCH   1   9
ATOM      5  C   UNL     1       0.030  -0.374   2.437  0.00  0.00    +0.047 A 
ATOM      6  C   UNL     1       1.114   0.345   2.926  0.00  0.00    +0.027 A 
ATOM      7  C   UNL     1       1.126   0.778   4.239  0.00  0.00    +0.023 A 
ATOM      8  C   UNL     1       0.061   0.499   5.073  0.00  0.00    +0.053 A 
ATOM      9  C   UNL     1      -1.033  -0.224   4.590  0.00  0.00    +0.059 A 
ATOM     10  C   UNL     1      -1.046  -0.656   3.262  0.00  0.00    +0.040 A 
ATOM     11 CL   UNL     1       0.082   1.045   6.721  0.00  0.00    -0.083 Cl
BRANCH   5  17
ATOM     12  C   UNL     1      -0.018   1.503   0.010  0.00  0.00    +0.064 C 
ATOM     13  C   UNL     1       0.002  -0.004   0.002  0.00  0.00    +0.021 A 
ATOM     14  C   UNL     1       0.008  -0.789  -1.095  0.00  0.00    +0.023 A 
ATOM     15  C   UNL     1       0.028  -2.128  -0.656  0.00  0.00    +0.023 A 
ATOM     16  C   UNL     1       0.034  -2.113   0.692  0.00  0.00    +0.021 A 
ATOM     17  N   UNL     1       0.024  -0.811   1.104  0.00  0.00    -0.318 N 
ATOM     18  C   UNL     1       0.054  -3.323   1.589  0.00  0.00    +0.064 C 
ENDBRANCH   5  17
ENDBRANCH   1   9
BRANCH   3  19
ATOM     19  N   UNL     1      -4.309  -1.508   5.852  0.00  0.00    -0.187 NA
ATOM     20  C   UNL     1      -5.325  -2.179   5.400  0.00  0.00    +0.138 C 
BRANCH  20  21
ATOM     21  C   UNL     1      -6.463  -2.480   6.287  0.00  0.00    -0.005 A 
ATOM     22  C   UNL     1      -6.454  -2.038   7.613  0.00  0.00    +0.011 A 
ATOM     23  C   UNL     1      -7.520  -2.320   8.439  0.00  0.00    +0.024 A 
ATOM     24  C   UNL     1      -8.604  -3.044   7.954  0.00  0.00    +0.030 A 
ATOM     25  C   UNL     1      -8.616  -3.486   6.636  0.00  0.00    +0.024 A 
ATOM     26  C   UNL     1      -7.557  -3.203   5.802  0.00  0.00    +0.011 A 
BRANCH  24  27
ATOM     27  N   UNL     1      -9.681  -3.328   8.793  0.00  0.00    -0.330 N 
ATOM     28  C   UNL     1      -9.803  -2.920  10.200  0.00  0.00    +0.105 C 
ATOM     29  C   UNL     1     -11.142  -3.478  10.726  0.00  0.00    +0.020 C 
ATOM     30  C   UNL     1     -11.437  -4.648   9.751  0.00  0.00    +0.020 C 
ATOM     31  C   UNL     1     -10.890  -4.082   8.414  0.00  0.00    +0.105 C 
ENDBRANCH  24  27
ENDBRANCH  20  21
ENDBRANCH   3  19
TORSDOF 5
