REMARK  Name = ZINC15787748
REMARK  9 active torsions:
REMARK  status: ('A' for Active; 'I' for Inactive)
REMARK    1  A    between atoms: C_1  and  N_2
REMARK    2  A    between atoms: N_2  and  C_3
REMARK    3  A    between atoms: N_2  and  S_21
REMARK    4  A    between atoms: C_3  and  C_4
REMARK    5  A    between atoms: N_6  and  C_7
REMARK    6  A    between atoms: C_7  and  C_8
REMARK    7  A    between atoms: C_8  and  C_10
REMARK    8  A    between atoms: C_8  and  N_55
REMARK    9  A    between atoms: S_21  and  C_24
REMARK                            x       y       z     vdW  Elec       q    Type
REMARK                         _______ _______ _______ _____ _____    ______ ____
ROOT
ATOM      1  C   UNL     1       0.854   2.939  -2.951  0.00  0.00    +0.229 C 
ATOM      2  O   UNL     1       1.322   1.905  -3.378  0.00  0.00    -0.274 OA
ATOM      3  N   UNL     1       1.025   4.089  -3.633  0.00  0.00    -0.315 N 
ATOM      4  H   UNL     1       0.651   4.916  -3.291  0.00  0.00    +0.149 HD
ENDROOT
BRANCH   1   5
ATOM      5  C   UNL     1       0.081   2.938  -1.657  0.00  0.00    +0.204 C 
BRANCH   5   7
ATOM      6  C   UNL     1      -0.994   0.642  -1.569  0.00  0.00    +0.132 C 
ATOM      7  N   UNL     1       0.037   1.578  -1.115  0.00  0.00    -0.171 NA
BRANCH   7   8
ATOM      8  S   UNL     1       1.153   1.099   0.010  0.00  0.00    +0.061 S 
ATOM      9  O   UNL     1       1.233  -0.317  -0.074  0.00  0.00    -0.153 OA
ATOM     10  O   UNL     1       2.288   1.937  -0.161  0.00  0.00    -0.153 OA
BRANCH   8  11
ATOM     11  C   UNL     1       0.486   1.472   1.598  0.00  0.00    +0.106 A 
ATOM     12  C   UNL     1       0.737   2.701   2.181  0.00  0.00    +0.030 A 
ATOM     13  C   UNL     1       0.209   2.996   3.424  0.00  0.00    +0.022 A 
ATOM     14  C   UNL     1      -0.561   2.059   4.089  0.00  0.00    +0.041 A 
ATOM     15  C   UNL     1      -0.807   0.828   3.507  0.00  0.00    +0.022 A 
ATOM     16  C   UNL     1      -0.283   0.535   2.262  0.00  0.00    +0.030 A 
ATOM     17 CL   UNL     1      -1.219   2.427   5.653  0.00  0.00    -0.084 Cl
ENDBRANCH   8  11
ENDBRANCH   7   8
ENDBRANCH   5   7
ENDBRANCH   1   5
BRANCH   3  18
ATOM     18  C   UNL     1       1.777   4.089  -4.891  0.00  0.00    +0.093 C 
BRANCH  18  19
ATOM     19  C   UNL     1       1.713   5.481  -5.522  0.00  0.00    -0.019 C 
BRANCH  19  20
ATOM     20  C   UNL     1       0.290   5.791  -5.912  0.00  0.00    -0.041 A 
ATOM     21  C   UNL     1      -0.492   6.588  -5.096  0.00  0.00    +0.003 A 
ATOM     22  C   UNL     1      -1.795   6.876  -5.455  0.00  0.00    +0.000 A 
ATOM     23  C   UNL     1      -2.321   6.360  -6.625  0.00  0.00    +0.001 A 
ATOM     24  C   UNL     1      -1.542   5.559  -7.438  0.00  0.00    +0.020 A 
ATOM     25  C   UNL     1      -0.235   5.274  -7.082  0.00  0.00    +0.043 A 
ATOM     26 CL   UNL     1       0.743   4.267  -8.103  0.00  0.00    -0.083 Cl
ENDBRANCH  19  20
BRANCH  19  31
ATOM     27  C   UNL     1       3.539   6.137  -4.053  0.00  0.00    -0.078 C 
ATOM     28  C   UNL     1       4.068   7.487  -3.507  0.00  0.00    -0.020 C 
ATOM     29  C   UNL     1       3.514   8.512  -4.524  0.00  0.00    -0.020 C 
ATOM     30  C   UNL     1       2.314   7.811  -5.187  0.00  0.00    -0.078 C 
ATOM     31  N   UNL     1       2.202   6.500  -4.546  0.00  0.00    +0.385 N 
ATOM     32  H   UNL     1       1.545   6.555  -3.759  0.00  0.00    -0.081 HD
ENDBRANCH  19  31
ENDBRANCH  18  19
ENDBRANCH   3  18
TORSDOF 8
