REMARK  Name = ZINC46248619
REMARK  8 active torsions:
REMARK  status: ('A' for Active; 'I' for Inactive)
REMARK    1  A    between atoms: C_1  and  C_2
REMARK    2  A    between atoms: C_2  and  C_3
REMARK    3  A    between atoms: C_2  and  C_4
REMARK    4  A    between atoms: C_4  and  C_6
REMARK    5  A    between atoms: C_4  and  N_13
REMARK    6  A    between atoms: C_14  and  C_16
REMARK    7  A    between atoms: C_16  and  C_17
REMARK    8  A    between atoms: C_17  and  C_18
REMARK                            x       y       z     vdW  Elec       q    Type
REMARK                         _______ _______ _______ _____ _____    ______ ____
ROOT
ATOM      1  C   UNL     1       3.887   1.553   1.956  0.00  0.00    +0.103 C 
ENDROOT
BRANCH   1   3
ATOM      2  N   UNL     1       2.143  -0.097   1.361  0.00  0.00    -0.304 N 
ATOM      3  C   UNL     1       2.446   1.127   1.835  0.00  0.00    +0.214 C 
ATOM      4  O   UNL     1       1.560   1.887   2.164  0.00  0.00    -0.276 OA
ATOM      5  H   UNL     1       2.852  -0.705   1.097  0.00  0.00    +0.149 HD
BRANCH   2   6
ATOM      6  C   UNL     1       0.743  -0.511   1.243  0.00  0.00    +0.162 C 
BRANCH   6   7
ATOM      7  C   UNL     1       0.657  -2.014   1.298  0.00  0.00    +0.236 C 
ATOM      8  O   UNL     1       1.623  -2.688   1.010  0.00  0.00    -0.274 OA
ATOM      9  N   UNL     1      -0.494  -2.611   1.667  0.00  0.00    -0.300 N 
ATOM     10  C   UNL     1      -1.768  -1.925   1.933  0.00  0.00    +0.108 C 
ATOM     11  C   UNL     1      -2.791  -3.004   2.346  0.00  0.00    +0.020 C 
ATOM     12  C   UNL     1      -1.890  -4.168   2.838  0.00  0.00    +0.020 C 
ATOM     13  C   UNL     1      -0.687  -4.059   1.865  0.00  0.00    +0.108 C 
ENDBRANCH   6   7
BRANCH   6  15
ATOM     14  C   UNL     1       0.144   1.514  -0.092  0.00  0.00    +0.009 C 
ATOM     15  C   UNL     1       0.175  -0.015  -0.088  0.00  0.00    +0.012 C 
ATOM     16  C   UNL     1       1.058  -0.511  -1.235  0.00  0.00    +0.009 C 
ENDBRANCH   6  15
ENDBRANCH   2   6
ENDBRANCH   1   3
BRANCH   1  17
ATOM     17  C   UNL     1       3.953   2.975   2.516  0.00  0.00    +0.083 C 
BRANCH  17  18
ATOM     18  C   UNL     1       5.394   3.401   2.637  0.00  0.00    +0.111 A 
ATOM     19  N   UNL     1       5.686   4.635   3.121  0.00  0.00    -0.310 N 
ATOM     20  H   UNL     1       4.963   5.226   3.383  0.00  0.00    +0.170 HD
ATOM     21  C   UNL     1       6.959   5.055   3.246  0.00  0.00    +0.260 A 
ATOM     22  O   UNL     1       7.205   6.166   3.684  0.00  0.00    -0.267 OA
ATOM     23  C   UNL     1       8.021   4.174   2.857  0.00  0.00    +0.075 A 
ATOM     24  C   UNL     1       9.463   4.413   2.902  0.00  0.00    -0.023 A 
ATOM     25  C   UNL     1      10.262   3.414   2.475  0.00  0.00    -0.004 A 
ATOM     26  S   UNL     1       9.157   2.114   1.994  0.00  0.00    -0.073 S 
ATOM     27  C   UNL     1       7.621   2.920   2.369  0.00  0.00    +0.116 A 
ATOM     28  N   UNL     1       6.340   2.574   2.279  0.00  0.00    -0.227 NA
ATOM     29  C   UNL     1      11.760   3.410   2.420  0.00  0.00    +0.043 C 
ATOM     30  C   UNL     1      12.254   4.855   2.574  0.00  0.00    +0.005 C 
ATOM     31  C   UNL     1      11.527   5.498   3.759  0.00  0.00    +0.005 C 
ATOM     32  C   UNL     1      10.057   5.726   3.406  0.00  0.00    +0.037 C 
ENDBRANCH  17  18
ENDBRANCH   1  17
TORSDOF 6
