REMARK  Name = ZINC42429508
REMARK  6 active torsions:
REMARK  status: ('A' for Active; 'I' for Inactive)
REMARK    1  A    between atoms: C_1  and  C_2
REMARK    2  A    between atoms: C_3  and  C_20
REMARK    3  A    between atoms: C_4  and  N_8
REMARK    4  A    between atoms: N_5  and  C_7
REMARK    5  A    between atoms: C_10  and  C_17
REMARK    6  A    between atoms: C_14  and  C_16
REMARK                            x       y       z     vdW  Elec       q    Type
REMARK                         _______ _______ _______ _____ _____    ______ ____
ROOT
ATOM      1  N   UNL     1       0.024  -3.279  -1.492  0.00  0.00    -0.311 N 
ATOM      2  C   UNL     1       0.125  -3.166  -2.953  0.00  0.00    +0.119 C 
ATOM      3  C   UNL     1      -1.058  -3.904  -3.588  0.00  0.00    +0.092 C 
ATOM      4  C   UNL     1      -1.094  -5.344  -3.070  0.00  0.00    +0.016 C 
ATOM      5  C   UNL     1      -1.288  -5.336  -1.552  0.00  0.00    +0.023 C 
ATOM      6  C   UNL     1      -0.102  -4.615  -0.893  0.00  0.00    +0.072 C 
ATOM      7  C   UNL     1      -0.350  -4.482   0.611  0.00  0.00    +0.028 C 
ENDROOT
BRANCH   1  11
ATOM      8  C   UNL     1       1.614   0.531   1.355  0.00  0.00    +0.068 C 
ATOM      9  C   UNL     1       0.739  -0.428   0.589  0.00  0.00    +0.076 A 
ATOM     10  C   UNL     1       1.186  -1.550  -0.153  0.00  0.00    +0.125 A 
ATOM     11  C   UNL     1       0.051  -2.154  -0.697  0.00  0.00    +0.134 A 
ATOM     12  N   UNL     1      -1.013  -1.428  -0.299  0.00  0.00    -0.253 N 
ATOM     13  N   UNL     1      -0.559  -0.372   0.498  0.00  0.00    -0.174 NA
ATOM     14  C   UNL     1      -2.411  -1.702  -0.640  0.00  0.00    +0.174 C 
BRANCH  10  15
ATOM     15  C   UNL     1       2.571  -1.990  -0.317  0.00  0.00    +0.392 C 
ATOM     16  O   UNL     1       3.486  -1.313   0.135  0.00  0.00    -0.240 OA
ATOM     17  O   UNL     1       2.815  -3.036  -0.905  0.00  0.00    -0.240 OA
ENDBRANCH  10  15
ENDBRANCH   1  11
BRANCH   3  18
ATOM     18  C   UNL     1      -0.900  -3.912  -5.087  0.00  0.00    +0.215 C 
ATOM     19  O   UNL     1       0.063  -3.381  -5.598  0.00  0.00    -0.276 OA
ATOM     20  N   UNL     1      -1.829  -4.510  -5.859  0.00  0.00    -0.329 N 
ATOM     21  H   UNL     1      -2.599  -4.935  -5.450  0.00  0.00    +0.145 HD
ATOM     22  H   UNL     1      -1.727  -4.515  -6.824  0.00  0.00    +0.145 HD
ENDBRANCH   3  18
TORSDOF 3
