REMARK  Name = ZINC65404463
REMARK  3 active torsions:
REMARK  status: ('A' for Active; 'I' for Inactive)
REMARK    1  A    between atoms: C_3  and  C_6
REMARK    2  A    between atoms: C_8  and  C_11
REMARK    3  A    between atoms: C_21  and  C_24
REMARK                            x       y       z     vdW  Elec       q    Type
REMARK                         _______ _______ _______ _____ _____    ______ ____
ROOT
ATOM      1  C   UNL     1       6.746  -1.075  -0.078  0.00  0.00    +0.180 A 
ATOM      2  N   UNL     1       8.067  -0.734  -0.083  0.00  0.00    -0.338 N 
ATOM      3  H   UNL     1       8.426   0.167  -0.069  0.00  0.00    +0.167 HD
ATOM      4  C   UNL     1       8.787  -1.884  -0.109  0.00  0.00    +0.049 A 
ATOM      5  C   UNL     1       7.899  -2.917  -0.107  0.00  0.00    +0.147 A 
ATOM      6  N   UNL     1       6.653  -2.378  -0.089  0.00  0.00    -0.220 NA
ATOM      7  C   UNL     1       8.157  -4.356  -0.101  0.00  0.00    +0.264 C 
ATOM      8  O   UNL     1       7.170  -5.066  -0.097  0.00  0.00    -0.268 OA
ATOM      9  N   UNL     1       9.308  -4.986  -0.098  0.00  0.00    -0.309 N 
ATOM     10  C   UNL     1      10.638  -4.446  -0.182  0.00  0.00    +0.113 C 
ATOM     11  C   UNL     1      10.835  -3.156   0.567  0.00  0.00    +0.042 C 
ATOM     12  C   UNL     1      10.281  -1.950  -0.145  0.00  0.00    +0.065 C 
ATOM     13  H   UNL     1       9.254  -5.952  -0.030  0.00  0.00    +0.149 HD
ENDROOT
BRANCH  11  14
ATOM     14  C   UNL     1      12.312  -2.946   0.784  0.00  0.00    -0.042 A 
ATOM     15  C   UNL     1      13.162  -2.845  -0.301  0.00  0.00    +0.007 A 
ATOM     16  C   UNL     1      14.516  -2.652  -0.102  0.00  0.00    +0.038 A 
ATOM     17  C   UNL     1      15.021  -2.560   1.184  0.00  0.00    +0.123 A 
ATOM     18  C   UNL     1      14.168  -2.662   2.270  0.00  0.00    +0.038 A 
ATOM     19  C   UNL     1      12.814  -2.849   2.069  0.00  0.00    +0.007 A 
ATOM     20  F   UNL     1      16.345  -2.372   1.379  0.00  0.00    -0.205 F 
ENDBRANCH  11  14
BRANCH   1  23
ATOM     21  C   UNL     1       3.564   0.619  -0.029  0.00  0.00    +0.294 A 
ATOM     22  N   UNL     1       4.310  -0.466  -0.048  0.00  0.00    -0.182 NA
ATOM     23  C   UNL     1       5.608  -0.127  -0.058  0.00  0.00    +0.238 A 
ATOM     24  N   UNL     1       5.705   1.182  -0.046  0.00  0.00    -0.052 NA
ATOM     25  O   UNL     1       4.380   1.690  -0.033  0.00  0.00    -0.329 OA
BRANCH  21  28
ATOM     26  C   UNL     1      -0.016   1.346   0.009  0.00  0.00    +0.042 A 
ATOM     27  C   UNL     1       1.321   1.777  -0.001  0.00  0.00    +0.055 A 
ATOM     28  C   UNL     1       2.096   0.654  -0.014  0.00  0.00    +0.192 A 
ATOM     29  O   UNL     1       1.278  -0.418  -0.012  0.00  0.00    -0.458 OA
ATOM     30  C   UNL     1       0.002  -0.004   0.002  0.00  0.00    +0.196 A 
ENDBRANCH  21  28
ENDBRANCH   1  23
TORSDOF 3
