REMARK  Name = ZINC11917006
REMARK  11 active torsions:
REMARK  status: ('A' for Active; 'I' for Inactive)
REMARK    1  A    between atoms: C_1  and  C_2
REMARK    2  A    between atoms: C_2  and  C_3
REMARK    3  A    between atoms: C_6  and  C_9
REMARK    4  A    between atoms: C_9  and  N_10
REMARK    5  A    between atoms: N_10  and  C_11
REMARK    6  A    between atoms: N_10  and  C_17
REMARK    7  A    between atoms: C_11  and  C_12
REMARK    8  A    between atoms: C_20  and  S_33
REMARK    9  A    between atoms: C_22  and  C_23
REMARK   10  A    between atoms: N_25  and  C_26
REMARK   11  A    between atoms: S_33  and  C_36
REMARK                            x       y       z     vdW  Elec       q    Type
REMARK                         _______ _______ _______ _____ _____    ______ ____
ROOT
ATOM      1  C   UNL     1      -2.445  -4.211  -0.310  0.00  0.00    +0.080 A 
ATOM      2  C   UNL     1      -3.680  -4.858  -0.415  0.00  0.00    +0.140 A 
ATOM      3  N   UNL     1      -4.785  -4.137  -0.391  0.00  0.00    -0.218 NA
ATOM      4  C   UNL     1      -4.741  -2.823  -0.268  0.00  0.00    +0.271 A 
ATOM      5  N   UNL     1      -3.607  -2.168  -0.160  0.00  0.00    -0.205 NA
ATOM      6  C   UNL     1      -2.441  -2.814  -0.181  0.00  0.00    +0.152 A 
ENDROOT
BRANCH   6   7
ATOM      7  C   UNL     1      -1.166  -2.072  -0.064  0.00  0.00    +0.269 C 
ATOM      8  O   UNL     1      -0.110  -2.672  -0.079  0.00  0.00    -0.268 OA
ATOM      9  N   UNL     1      -1.177  -0.730   0.059  0.00  0.00    -0.278 N 
ATOM     10  H   UNL     1      -2.019  -0.258   0.152  0.00  0.00    +0.155 HD
BRANCH   9  11
ATOM     11  C   UNL     1       0.027  -0.017   0.051  0.00  0.00    +0.069 A 
ATOM     12  C   UNL     1       1.148  -0.550  -0.571  0.00  0.00    +0.026 A 
ATOM     13  C   UNL     1       2.335   0.156  -0.577  0.00  0.00    +0.002 A 
ATOM     14  C   UNL     1       2.410   1.393   0.036  0.00  0.00    +0.003 A 
ATOM     15  C   UNL     1       1.297   1.929   0.657  0.00  0.00    +0.040 A 
ATOM     16  C   UNL     1       0.105   1.228   0.667  0.00  0.00    +0.144 A 
ATOM     17  F   UNL     1      -0.984   1.753   1.270  0.00  0.00    -0.204 F 
ENDBRANCH   9  11
ENDBRANCH   6   7
BRANCH   4  18
ATOM     18  S   UNL     1      -6.253  -1.919  -0.242  0.00  0.00    +0.029 S 
ATOM     19  O   UNL     1      -5.909  -0.624  -0.716  0.00  0.00    -0.167 OA
ATOM     20  O   UNL     1      -7.174  -2.731  -0.957  0.00  0.00    -0.167 OA
ATOM     21  C   UNL     1      -6.718  -1.840   1.509  0.00  0.00    +0.204 C 
ENDBRANCH   4  18
BRANCH   1  22
ATOM     22  N   UNL     1      -1.258  -4.931  -0.332  0.00  0.00    -0.315 N 
BRANCH  22  23
ATOM     23  C   UNL     1      -1.206  -5.895   0.775  0.00  0.00    +0.140 C 
BRANCH  23  27
ATOM     24  C   UNL     1      -1.113  -3.793   4.493  0.00  0.00    -0.048 A 
ATOM     25  C   UNL     1      -2.317  -4.243   3.983  0.00  0.00    +0.004 A 
ATOM     26  C   UNL     1      -2.346  -4.923   2.780  0.00  0.00    +0.005 A 
ATOM     27  C   UNL     1      -1.173  -5.153   2.087  0.00  0.00    -0.030 A 
ATOM     28  C   UNL     1       0.031  -4.708   2.599  0.00  0.00    +0.005 A 
ATOM     29  C   UNL     1       0.061  -4.024   3.800  0.00  0.00    +0.004 A 
BRANCH  24  31
ATOM     30  C   UNL     1      -0.900  -4.048   6.950  0.00  0.00    +0.009 C 
ATOM     31  C   UNL     1      -1.080  -3.051   5.804  0.00  0.00    +0.032 C 
ENDBRANCH  24  31
ENDBRANCH  23  27
ENDBRANCH  22  23
BRANCH  22  32
ATOM     32  C   UNL     1      -1.073  -5.603  -1.625  0.00  0.00    +0.179 C 
BRANCH  32  33
ATOM     33  C   UNL     1       0.359  -6.054  -1.756  0.00  0.00    +0.122 A 
ATOM     34  C   UNL     1       0.829  -7.278  -1.454  0.00  0.00    +0.046 A 
ATOM     35  C   UNL     1       2.216  -7.262  -1.727  0.00  0.00    +0.041 A 
ATOM     36  C   UNL     1       2.511  -6.030  -2.179  0.00  0.00    +0.195 A 
ATOM     37  O   UNL     1       1.381  -5.304  -2.200  0.00  0.00    -0.466 OA
ENDBRANCH  32  33
ENDBRANCH  22  32
ENDBRANCH   1  22
TORSDOF 9
