REMARK  Name = ZINC13595579
REMARK  7 active torsions:
REMARK  status: ('A' for Active; 'I' for Inactive)
REMARK    1  A    between atoms: C_5  and  C_7
REMARK    2  A    between atoms: C_7  and  C_8
REMARK    3  A    between atoms: C_10  and  C_13
REMARK    4  A    between atoms: C_13  and  N_53
REMARK    5  A    between atoms: C_18  and  C_20
REMARK    6  A    between atoms: C_20  and  C_21
REMARK    7  A    between atoms: C_21  and  C_22
REMARK                            x       y       z     vdW  Elec       q    Type
REMARK                         _______ _______ _______ _____ _____    ______ ____
ROOT
ATOM      1  C   UNL     1       7.207   3.800  -1.383  0.00  0.00    -0.078 C 
ATOM      2  C   UNL     1       7.261   4.928  -2.417  0.00  0.00    -0.019 C 
ATOM      3  C   UNL     1       6.111   5.905  -2.158  0.00  0.00    -0.003 C 
ATOM      4  C   UNL     1       4.783   5.146  -2.219  0.00  0.00    -0.015 C 
ATOM      5  C   UNL     1       4.801   4.012  -1.191  0.00  0.00    -0.068 C 
ATOM      6  N   UNL     1       5.915   3.094  -1.510  0.00  0.00    +0.387 N 
ATOM      7  H   UNL     1       5.809   2.764  -2.477  0.00  0.00    -0.081 HD
ENDROOT
BRANCH   6   8
ATOM      8  C   UNL     1       5.885   1.929  -0.601  0.00  0.00    +0.022 C 
BRANCH   8  11
ATOM      9  C   UNL     1       8.740  -0.138  -1.282  0.00  0.00    +0.176 A 
ATOM     10  N   UNL     1       8.182   0.897  -0.628  0.00  0.00    -0.197 NA
ATOM     11  C   UNL     1       6.938   0.944  -1.038  0.00  0.00    +0.211 A 
ATOM     12  O   UNL     1       6.782  -0.047  -1.922  0.00  0.00    -0.340 OA
ATOM     13  N   UNL     1       7.825  -0.653  -2.047  0.00  0.00    -0.061 NA
BRANCH   9  14
ATOM     14  C   UNL     1      10.166  -0.610  -1.154  0.00  0.00    +0.116 C 
BRANCH  14  19
ATOM     15  C   UNL     1      12.078   0.186  -4.310  0.00  0.00    +0.000 A 
ATOM     16  C   UNL     1      12.603   1.429  -4.010  0.00  0.00    +0.001 A 
ATOM     17  C   UNL     1      12.339   2.014  -2.786  0.00  0.00    +0.020 A 
ATOM     18  C   UNL     1      11.549   1.354  -1.861  0.00  0.00    +0.045 A 
ATOM     19  C   UNL     1      11.025   0.110  -2.162  0.00  0.00    -0.022 A 
ATOM     20  C   UNL     1      11.294  -0.476  -3.384  0.00  0.00    +0.005 A 
ATOM     21 CL   UNL     1      11.218   2.087  -0.322  0.00  0.00    -0.083 Cl
ENDBRANCH  14  19
ENDBRANCH   9  14
ENDBRANCH   8  11
ENDBRANCH   6   8
BRANCH   5  22
ATOM     22  C   UNL     1       3.483   3.238  -1.262  0.00  0.00    -0.009 C 
BRANCH  22  23
ATOM     23  C   UNL     1       3.347   2.589  -2.642  0.00  0.00    +0.054 C 
BRANCH  23  24
ATOM     24  C   UNL     1       2.116   1.720  -2.668  0.00  0.00    +0.041 A 
ATOM     25  C   UNL     1       1.157   1.923  -3.642  0.00  0.00    +0.023 A 
ATOM     26  C   UNL     1       0.028   1.118  -3.657  0.00  0.00    +0.003 A 
ATOM     27  C   UNL     1      -0.094   0.134  -2.688  0.00  0.00    +0.020 A 
ATOM     28  C   UNL     1       0.906  -0.010  -1.745  0.00  0.00    +0.111 A 
ATOM     29  N   UNL     1       1.967   0.774  -1.761  0.00  0.00    -0.260 NA
ENDBRANCH  23  24
ENDBRANCH  22  23
ENDBRANCH   5  22
TORSDOF 7
