REMARK  Name = ZINC42652445
REMARK  3 active torsions:
REMARK  status: ('A' for Active; 'I' for Inactive)
REMARK    1  A    between atoms: C_2  and  C_10
REMARK    2  A    between atoms: C_6  and  C_7
REMARK    3  A    between atoms: C_16  and  C_18
REMARK                            x       y       z     vdW  Elec       q    Type
REMARK                         _______ _______ _______ _____ _____    ______ ____
ROOT
ATOM      1  C   UNL     1       1.789   3.207   0.002  0.00  0.00    +0.082 A 
ATOM      2  C   UNL     1       3.118   3.524  -0.014  0.00  0.00    +0.077 A 
ATOM      3  S   UNL     1       3.035   5.307  -0.002  0.00  0.00    -0.060 S 
ATOM      4  C   UNL     1       1.360   5.467   0.022  0.00  0.00    +0.165 A 
ATOM      5  N   UNL     1       0.935   4.223   0.014  0.00  0.00    -0.225 NA
ATOM      6  N   UNL     1       0.607   6.634   0.040  0.00  0.00    -0.264 N 
ATOM      7  C   UNL     1       1.222   7.833   0.039  0.00  0.00    +0.222 C 
ATOM      8  O   UNL     1       2.433   7.894   0.022  0.00  0.00    -0.275 OA
ATOM      9  H   UNL     1      -0.362   6.586   0.053  0.00  0.00    +0.157 HD
ENDROOT
BRANCH   7  10
ATOM     10  C   UNL     1       0.405   9.099   0.058  0.00  0.00    +0.079 C 
ATOM     11  C   UNL     1      -0.458   9.204  -1.220  0.00  0.00    +0.016 C 
ATOM     12  C   UNL     1       0.034  10.506  -1.922  0.00  0.00    -0.010 C 
ATOM     13  C   UNL     1      -0.495  11.661  -1.018  0.00  0.00    +0.004 C 
ATOM     14  C   UNL     1       0.352  11.568   0.271  0.00  0.00    +0.004 C 
ATOM     15  C   UNL     1       1.336  10.349   0.011  0.00  0.00    +0.001 C 
ATOM     16  C   UNL     1       1.556  10.485  -1.540  0.00  0.00    +0.008 C 
ENDBRANCH   7  10
BRANCH   1  18
ATOM     17  C   UNL     1      -0.017   1.363   0.009  0.00  0.00    +0.042 A 
ATOM     18  C   UNL     1       1.322   1.797  -0.001  0.00  0.00    +0.019 A 
ATOM     19  C   UNL     1       2.114   0.685  -0.015  0.00  0.00    +0.093 A 
ATOM     20  N   UNL     1       1.317  -0.411  -0.013  0.00  0.00    -0.356 N 
ATOM     21  H   UNL     1       1.623  -1.332  -0.020  0.00  0.00    +0.165 HD
ATOM     22  C   UNL     1       0.002  -0.004   0.002  0.00  0.00    +0.102 A 
BRANCH  22  23
ATOM     23  C   UNL     1      -1.173  -0.883   0.009  0.00  0.00    +0.258 C 
ATOM     24  O   UNL     1      -2.291  -0.403   0.023  0.00  0.00    -0.269 OA
ATOM     25  N   UNL     1      -1.014  -2.221   0.001  0.00  0.00    -0.324 N 
ATOM     26  H   UNL     1      -0.122  -2.603  -0.011  0.00  0.00    +0.145 HD
ATOM     27  H   UNL     1      -1.790  -2.802   0.005  0.00  0.00    +0.145 HD
ENDBRANCH  22  23
ENDBRANCH   1  18
TORSDOF 3
