REMARK  Name = ZINC12156548
REMARK  9 active torsions:
REMARK  status: ('A' for Active; 'I' for Inactive)
REMARK    1  A    between atoms: C_3  and  O_28
REMARK    2  A    between atoms: C_6  and  C_7
REMARK    3  A    between atoms: C_7  and  N_8
REMARK    4  A    between atoms: C_9  and  C_15
REMARK    5  A    between atoms: C_15  and  C_16
REMARK    6  A    between atoms: C_16  and  N_53
REMARK    7  A    between atoms: C_17  and  C_18
REMARK    8  A    between atoms: C_17  and  N_53
REMARK    9  A    between atoms: O_28  and  C_29
REMARK                            x       y       z     vdW  Elec       q    Type
REMARK                         _______ _______ _______ _____ _____    ______ ____
ROOT
ATOM      1  N   UNL     1       5.362  -2.141   1.803  0.00  0.00    -0.294 N 
ATOM      2  C   UNL     1       5.518  -1.014   2.730  0.00  0.00    +0.075 C 
ATOM      3  C   UNL     1       5.748  -1.650   4.119  0.00  0.00    +0.031 C 
ATOM      4  C   UNL     1       5.059  -3.024   3.955  0.00  0.00    +0.098 C 
ATOM      5  C   UNL     1       5.098  -3.283   2.465  0.00  0.00    +0.216 C 
ATOM      6  O   UNL     1       4.917  -4.362   1.943  0.00  0.00    -0.276 OA
ENDROOT
BRANCH   1   7
ATOM      7  C   UNL     1       5.480  -2.036   0.346  0.00  0.00    +0.143 C 
BRANCH   7  13
ATOM      8  C   UNL     1       7.851  -1.413  -0.158  0.00  0.00    +0.009 A 
ATOM      9  C   UNL     1       9.139  -1.741  -0.535  0.00  0.00    +0.046 A 
ATOM     10  C   UNL     1       9.457  -3.057  -0.838  0.00  0.00    +0.130 A 
ATOM     11  C   UNL     1       8.483  -4.041  -0.755  0.00  0.00    +0.046 A 
ATOM     12  C   UNL     1       7.198  -3.708  -0.372  0.00  0.00    +0.009 A 
ATOM     13  C   UNL     1       6.883  -2.396  -0.071  0.00  0.00    -0.030 A 
BRANCH  10  14
ATOM     14  O   UNL     1      10.722  -3.382  -1.214  0.00  0.00    -0.406 OA
BRANCH  14  15
ATOM     15  C   UNL     1      11.674  -2.317  -1.278  0.00  0.00    +0.575 C 
ATOM     16  F   UNL     1      11.797  -1.727  -0.015  0.00  0.00    -0.133 F 
ATOM     17  F   UNL     1      12.914  -2.825  -1.679  0.00  0.00    -0.133 F 
ATOM     18  F   UNL     1      11.241  -1.359  -2.200  0.00  0.00    -0.133 F 
ENDBRANCH  14  15
ENDBRANCH  10  14
ENDBRANCH   7  13
ENDBRANCH   1   7
BRANCH   2  19
ATOM     19  C   UNL     1       4.248  -0.160   2.743  0.00  0.00    +0.003 C 
BRANCH  19  20
ATOM     20  C   UNL     1       4.114   0.573   1.406  0.00  0.00    -0.080 C 
BRANCH  20  21
ATOM     21  N   UNL     1       2.968   1.499   1.476  0.00  0.00    +0.382 N 
ATOM     22  H   UNL     1       3.124   2.176   2.231  0.00  0.00    -0.085 HD
ATOM     23  H   UNL     1       2.112   0.964   1.668  0.00  0.00    -0.085 HD
BRANCH  21  24
ATOM     24  C   UNL     1       2.814   2.221   0.199  0.00  0.00    -0.045 C 
BRANCH  24  25
ATOM     25  C   UNL     1       1.637   3.157   0.299  0.00  0.00    -0.042 A 
ATOM     26  C   UNL     1       1.847   4.516   0.443  0.00  0.00    +0.052 A 
ATOM     27  C   UNL     1       0.767   5.378   0.536  0.00  0.00    +0.167 A 
ATOM     28  C   UNL     1      -0.530   4.873   0.484  0.00  0.00    +0.168 A 
ATOM     29  C   UNL     1      -0.734   3.511   0.334  0.00  0.00    +0.069 A 
ATOM     30  C   UNL     1       0.349   2.654   0.247  0.00  0.00    +0.046 A 
ATOM     31 CL   UNL     1       0.092   0.947   0.066  0.00  0.00    -0.083 Cl
ATOM     32  O   UNL     1      -1.408   5.912   0.595  0.00  0.00    -0.453 OA
ATOM     33  C   UNL     1      -0.640   7.009   1.125  0.00  0.00    +0.466 C 
ATOM     34  O   UNL     1       0.701   6.734   0.680  0.00  0.00    -0.453 OA
ENDBRANCH  24  25
ENDBRANCH  21  24
ENDBRANCH  20  21
ENDBRANCH  19  20
ENDBRANCH   2  19
TORSDOF 9
