REMARK  Name = ZINC62957635
REMARK  11 active torsions:
REMARK  status: ('A' for Active; 'I' for Inactive)
REMARK    1  A    between atoms: C_1  and  C_2
REMARK    2  A    between atoms: C_2  and  N_3
REMARK    3  A    between atoms: N_3  and  C_4
REMARK    4  A    between atoms: N_3  and  C_6
REMARK    5  A    between atoms: C_4  and  C_5
REMARK    6  A    between atoms: C_9  and  C_12
REMARK    7  A    between atoms: C_17  and  C_33
REMARK    8  A    between atoms: C_19  and  O_32
REMARK    9  A    between atoms: C_20  and  C_23
REMARK   10  A    between atoms: C_23  and  N_24
REMARK   11  A    between atoms: C_29  and  C_31
REMARK                            x       y       z     vdW  Elec       q    Type
REMARK                         _______ _______ _______ _____ _____    ______ ____
ROOT
ATOM      1  C   UNL     1       0.366  -6.101  -1.471  0.00  0.00    +0.058 C 
ATOM      2  C   UNL     1      -0.321  -6.694  -2.479  0.00  0.00    +0.176 C 
ATOM      3  C   UNL     1      -0.585  -8.135  -2.622  0.00  0.00    +0.232 C 
ATOM      4  O   UNL     1      -0.240  -9.034  -1.875  0.00  0.00    -0.283 OA
ATOM      5  C   UNL     1      -1.361  -8.246  -3.870  0.00  0.00    +0.071 A 
ATOM      6  C   UNL     1      -1.912  -9.328  -4.558  0.00  0.00    -0.033 A 
ATOM      7  C   UNL     1      -2.596  -9.117  -5.721  0.00  0.00    +0.050 A 
ATOM      8  C   UNL     1      -2.744  -7.827  -6.223  0.00  0.00    +0.122 A 
ATOM      9  C   UNL     1      -2.201  -6.744  -5.551  0.00  0.00    +0.020 A 
ATOM     10  C   UNL     1      -1.503  -6.940  -4.366  0.00  0.00    +0.145 A 
ATOM     11  O   UNL     1      -0.894  -6.067  -3.534  0.00  0.00    -0.451 OA
ATOM     12  C   UNL     1      -1.754 -10.726  -4.018  0.00  0.00    +0.045 C 
ENDROOT
BRANCH   1  16
ATOM     13  C   UNL     1       0.606  -1.872  -1.270  0.00  0.00    +0.013 A 
ATOM     14  C   UNL     1       1.119  -2.640  -0.239  0.00  0.00    +0.022 A 
ATOM     15  C   UNL     1       1.045  -4.016  -0.297  0.00  0.00    +0.010 A 
ATOM     16  C   UNL     1       0.449  -4.635  -1.401  0.00  0.00    -0.021 A 
ATOM     17  C   UNL     1      -0.067  -3.850  -2.439  0.00  0.00    +0.010 A 
ATOM     18  C   UNL     1       0.010  -2.476  -2.363  0.00  0.00    +0.022 A 
BRANCH  13  19
ATOM     19  N   UNL     1       0.685  -0.478  -1.204  0.00  0.00    -0.394 NA
ATOM     20  H   UNL     1       0.263  -0.077  -2.028  0.00  0.00    +0.126 HD
BRANCH  19  22
ATOM     21  C   UNL     1      -0.047   1.527  -0.002  0.00  0.00    +0.022 C 
ATOM     22  C   UNL     1      -0.026  -0.003  -0.009  0.00  0.00    +0.081 C 
ENDBRANCH  19  22
BRANCH  19  23
ATOM     23  C   UNL     1       2.095  -0.070  -1.129  0.00  0.00    +0.081 C 
ATOM     24  C   UNL     1       2.807  -0.455  -2.427  0.00  0.00    +0.022 C 
ENDBRANCH  19  23
ENDBRANCH  13  19
ENDBRANCH   1  16
BRANCH   8  25
ATOM     25  O   UNL     1      -3.425  -7.628  -7.380  0.00  0.00    -0.506 OA
ATOM     26  H   UNL     1      -4.373  -7.479  -7.258  0.00  0.00    +0.292 HD
ENDBRANCH   8  25
BRANCH   9  27
ATOM     27  C   UNL     1      -2.369  -5.352  -6.105  0.00  0.00    -0.035 C 
BRANCH  27  28
ATOM     28  N   UNL     1      -3.599  -4.756  -5.568  0.00  0.00    +0.384 N 
ATOM     29  C   UNL     1      -3.468  -4.591  -4.116  0.00  0.00    -0.078 C 
ATOM     30  C   UNL     1      -4.776  -4.045  -3.540  0.00  0.00    -0.019 C 
ATOM     31  C   UNL     1      -5.085  -2.690  -4.184  0.00  0.00    -0.003 C 
ATOM     32  C   UNL     1      -5.146  -2.860  -5.704  0.00  0.00    -0.016 C 
ATOM     33  C   UNL     1      -3.824  -3.450  -6.200  0.00  0.00    -0.071 C 
ATOM     34  C   UNL     1      -3.880  -3.622  -7.719  0.00  0.00    -0.013 C 
ATOM     35  H   UNL     1      -4.380  -5.363  -5.767  0.00  0.00    -0.081 HD
ENDBRANCH  27  28
ENDBRANCH   9  27
TORSDOF 7
