REMARK  Name = ZINC39449278
REMARK  6 active torsions:
REMARK  status: ('A' for Active; 'I' for Inactive)
REMARK    1  A    between atoms: C_4  and  C_7
REMARK    2  A    between atoms: C_7  and  N_8
REMARK    3  A    between atoms: C_16  and  C_19
REMARK    4  A    between atoms: C_24  and  O_25
REMARK    5  A    between atoms: C_27  and  C_32
REMARK    6  A    between atoms: C_37  and  O_38
REMARK                            x       y       z     vdW  Elec       q    Type
REMARK                         _______ _______ _______ _____ _____    ______ ____
ROOT
ATOM      1  N   UNL     1       4.162  -0.284   0.600  0.00  0.00    -0.299 N 
ATOM      2  C   UNL     1       4.905   0.576   1.399  0.00  0.00    +0.111 A 
ATOM      3  C   UNL     1       5.233   0.233   2.699  0.00  0.00    +0.081 A 
ATOM      4  C   UNL     1       4.784  -1.052   3.250  0.00  0.00    +0.099 A 
ATOM      5  C   UNL     1       4.028  -1.907   2.417  0.00  0.00    +0.067 A 
ATOM      6  C   UNL     1       3.720  -1.474   1.046  0.00  0.00    +0.261 A 
ATOM      7  O   UNL     1       3.067  -2.194   0.313  0.00  0.00    -0.267 OA
ATOM      8  C   UNL     1       3.589  -3.132   2.914  0.00  0.00    +0.025 A 
ATOM      9  C   UNL     1       3.922  -3.460   4.230  0.00  0.00    +0.004 A 
ATOM     10  C   UNL     1       4.674  -2.559   4.992  0.00  0.00    +0.120 A 
ATOM     11  N   UNL     1       5.074  -1.411   4.495  0.00  0.00    -0.252 NA
ATOM     12  N   UNL     1       5.986   1.098   3.470  0.00  0.00    -0.333 N 
ATOM     13  C   UNL     1       6.894   2.032   2.786  0.00  0.00    +0.112 C 
ATOM     14  C   UNL     1       6.088   2.796   1.729  0.00  0.00    +0.108 C 
ATOM     15  C   UNL     1       5.332   1.815   0.871  0.00  0.00    +0.183 C 
ATOM     16  O   UNL     1       5.088   2.092  -0.286  0.00  0.00    -0.290 OA
ATOM     17  H   UNL     1       5.917   1.090   4.438  0.00  0.00    +0.147 HD
ENDROOT
BRANCH   9  18
ATOM     18  C   UNL     1       3.483  -4.749   4.814  0.00  0.00    +0.025 A 
ATOM     19  C   UNL     1       2.150  -5.146   4.714  0.00  0.00    +0.012 A 
ATOM     20  C   UNL     1       1.747  -6.347   5.258  0.00  0.00    +0.001 A 
ATOM     21  C   UNL     1       2.660  -7.162   5.905  0.00  0.00    +0.004 A 
ATOM     22  C   UNL     1       3.984  -6.779   6.010  0.00  0.00    +0.046 A 
ATOM     23  C   UNL     1       4.405  -5.577   5.463  0.00  0.00    +0.125 A 
BRANCH  23  24
ATOM     24  O   UNL     1       5.707  -5.202   5.561  0.00  0.00    -0.506 OA
ATOM     25  H   UNL     1       5.909  -4.688   6.355  0.00  0.00    +0.292 HD
ENDBRANCH  23  24
ENDBRANCH   9  18
BRANCH  13  26
ATOM     26  C   UNL     1       8.006   1.264   2.121  0.00  0.00    +0.014 A 
ATOM     27  C   UNL     1       7.875  -0.094   1.903  0.00  0.00    +0.009 A 
ATOM     28  C   UNL     1       8.895  -0.800   1.293  0.00  0.00    +0.001 A 
ATOM     29  C   UNL     1      10.050  -0.149   0.900  0.00  0.00    +0.004 A 
ATOM     30  C   UNL     1      10.186   1.209   1.115  0.00  0.00    +0.046 A 
ATOM     31  C   UNL     1       9.161   1.920   1.722  0.00  0.00    +0.122 A 
BRANCH  31  32
ATOM     32  O   UNL     1       9.291   3.257   1.930  0.00  0.00    -0.506 OA
ATOM     33  H   UNL     1       9.691   3.486   2.780  0.00  0.00    +0.292 HD
ENDBRANCH  31  32
ENDBRANCH  13  26
BRANCH   1  34
ATOM     34  C   UNL     1       3.845   0.121  -0.771  0.00  0.00    +0.160 C 
BRANCH  34  38
ATOM     35  C   UNL     1       0.112   2.199  -0.817  0.00  0.00    +0.000 A 
ATOM     36  C   UNL     1       1.298   2.908  -0.777  0.00  0.00    +0.000 A 
ATOM     37  C   UNL     1       2.506   2.236  -0.762  0.00  0.00    +0.005 A 
ATOM     38  C   UNL     1       2.528   0.854  -0.787  0.00  0.00    -0.028 A 
ATOM     39  C   UNL     1       1.342   0.144  -0.825  0.00  0.00    +0.005 A 
ATOM     40  C   UNL     1       0.135   0.817  -0.842  0.00  0.00    +0.000 A 
ENDBRANCH  34  38
ENDBRANCH   1  34
TORSDOF 6
