REMARK  Name = ZINC55359053
REMARK  8 active torsions:
REMARK  status: ('A' for Active; 'I' for Inactive)
REMARK    1  A    between atoms: C_1  and  C_2
REMARK    2  A    between atoms: C_3  and  C_15
REMARK    3  A    between atoms: N_10  and  C_11
REMARK    4  A    between atoms: C_11  and  C_12
REMARK    5  A    between atoms: C_15  and  N_16
REMARK    6  A    between atoms: N_16  and  C_17
REMARK    7  A    between atoms: C_17  and  C_18
REMARK    8  A    between atoms: C_23  and  N_24
REMARK                            x       y       z     vdW  Elec       q    Type
REMARK                         _______ _______ _______ _____ _____    ______ ____
ROOT
ATOM      1  C   UNL     1       0.349   0.873   0.505  0.00  0.00    +0.064 C 
ATOM      2  C   UNL     1       0.752  -0.579   0.467  0.00  0.00    +0.019 A 
ATOM      3  C   UNL     1       0.854  -1.321  -0.647  0.00  0.00    -0.036 A 
ATOM      4  C   UNL     1       1.269  -2.663  -0.231  0.00  0.00    +0.001 A 
ATOM      5  C   UNL     1       1.538  -3.851  -0.913  0.00  0.00    +0.010 A 
ATOM      6  C   UNL     1       1.915  -4.963  -0.215  0.00  0.00    +0.001 A 
ATOM      7  C   UNL     1       2.035  -4.922   1.167  0.00  0.00    +0.002 A 
ATOM      8  C   UNL     1       1.775  -3.760   1.860  0.00  0.00    +0.026 A 
ATOM      9  C   UNL     1       1.389  -2.615   1.170  0.00  0.00    +0.050 A 
ATOM     10  N   UNL     1       1.072  -1.334   1.562  0.00  0.00    -0.335 N 
ENDROOT
BRANCH  10  11
ATOM     11  C   UNL     1       1.076  -0.851   2.945  0.00  0.00    +0.217 C 
BRANCH  11  12
ATOM     12  C   UNL     1      -0.285  -1.067   3.556  0.00  0.00    +0.230 C 
ATOM     13  O   UNL     1      -1.171  -1.574   2.900  0.00  0.00    -0.274 OA
ATOM     14  N   UNL     1      -0.518  -0.697   4.830  0.00  0.00    -0.328 N 
ATOM     15  H   UNL     1       0.190  -0.292   5.355  0.00  0.00    +0.145 HD
ATOM     16  H   UNL     1      -1.394  -0.836   5.223  0.00  0.00    +0.145 HD
ENDBRANCH  11  12
ENDBRANCH  10  11
BRANCH   3  17
ATOM     17  C   UNL     1       0.592  -0.861  -2.058  0.00  0.00    -0.044 C 
BRANCH  17  18
ATOM     18  N   UNL     1       1.834  -0.340  -2.642  0.00  0.00    +0.384 N 
ATOM     19  H   UNL     1       2.165   0.438  -2.091  0.00  0.00    -0.085 HD
ATOM     20  H   UNL     1       2.533  -1.067  -2.650  0.00  0.00    -0.085 HD
BRANCH  18  21
ATOM     21  C   UNL     1       1.578   0.108  -4.018  0.00  0.00    -0.044 C 
BRANCH  21  22
ATOM     22  C   UNL     1       2.874   0.541  -4.654  0.00  0.00    -0.041 A 
ATOM     23  C   UNL     1       3.491  -0.269  -5.587  0.00  0.00    +0.004 A 
ATOM     24  C   UNL     1       4.680   0.127  -6.171  0.00  0.00    +0.000 A 
ATOM     25  C   UNL     1       5.254   1.336  -5.823  0.00  0.00    +0.002 A 
ATOM     26  C   UNL     1       4.642   2.151  -4.892  0.00  0.00    +0.026 A 
ATOM     27  C   UNL     1       3.445   1.758  -4.308  0.00  0.00    +0.049 A 
BRANCH  27  28
ATOM     28  N   UNL     1       2.818   2.586  -3.366  0.00  0.00    -0.306 N 
ATOM     29  C   UNL     1       3.371   3.068  -2.207  0.00  0.00    +0.112 A 
ATOM     30  C   UNL     1       2.427   3.816  -1.606  0.00  0.00    +0.130 A 
ATOM     31  N   UNL     1       1.326   3.796  -2.371  0.00  0.00    -0.244 NA
ATOM     32  C   UNL     1       1.549   3.067  -3.431  0.00  0.00    +0.204 A 
ENDBRANCH  27  28
ENDBRANCH  21  22
ENDBRANCH  18  21
ENDBRANCH  17  18
ENDBRANCH   3  17
TORSDOF 7
