REMARK  Name = ZINC57551917
REMARK  9 active torsions:
REMARK  status: ('A' for Active; 'I' for Inactive)
REMARK    1  A    between atoms: C_1  and  C_2
REMARK    2  A    between atoms: C_2  and  N_3
REMARK    3  A    between atoms: C_7  and  C_9
REMARK    4  A    between atoms: C_9  and  C_11
REMARK    5  A    between atoms: C_9  and  N_12
REMARK    6  A    between atoms: N_12  and  C_13
REMARK    7  A    between atoms: N_12  and  C_14
REMARK    8  A    between atoms: C_14  and  C_15
REMARK    9  A    between atoms: C_18  and  C_20
REMARK                            x       y       z     vdW  Elec       q    Type
REMARK                         _______ _______ _______ _____ _____    ______ ____
ROOT
ATOM      1  C   UNL     1      -4.390  -4.168   0.100  0.00  0.00    +0.017 C 
ATOM      2  C   UNL     1      -5.205  -3.770   1.332  0.00  0.00    -0.004 C 
ENDROOT
BRANCH   1   7
ATOM      3  N   UNL     1      -0.804  -0.976  -0.151  0.00  0.00    -0.299 N 
ATOM      4  C   UNL     1      -1.230  -2.213   0.173  0.00  0.00    +0.306 C 
ATOM      5  O   UNL     1      -0.449  -3.023   0.633  0.00  0.00    -0.252 OA
ATOM      6  N   UNL     1      -2.521  -2.552  -0.014  0.00  0.00    -0.242 N 
ATOM      7  C   UNL     1      -2.946  -3.789   0.309  0.00  0.00    +0.207 C 
ATOM      8  O   UNL     1      -2.168  -4.597   0.769  0.00  0.00    -0.277 OA
ATOM      9  H   UNL     1      -1.427  -0.330  -0.519  0.00  0.00    +0.150 HD
ATOM     10  H   UNL     1      -3.143  -1.906  -0.382  0.00  0.00    +0.159 HD
BRANCH   3  12
ATOM     11  C   UNL     1       0.816   0.840  -0.393  0.00  0.00    +0.024 C 
ATOM     12  C   UNL     1       0.599  -0.608   0.052  0.00  0.00    +0.102 C 
ENDBRANCH   3  12
ENDBRANCH   1   7
BRANCH   1  13
ATOM     13  N   UNL     1      -4.490  -5.619  -0.106  0.00  0.00    +0.390 N 
ATOM     14  C   UNL     1      -5.901  -5.993  -0.275  0.00  0.00    -0.095 C 
ATOM     15  H   UNL     1      -4.109  -6.100   0.695  0.00  0.00    -0.081 HD
BRANCH  13  16
ATOM     16  C   UNL     1      -3.736  -5.996  -1.309  0.00  0.00    -0.003 C 
BRANCH  16  17
ATOM     17  C   UNL     1      -3.718  -7.497  -1.441  0.00  0.00    +0.089 A 
ATOM     18  C   UNL     1      -4.624  -8.239  -2.103  0.00  0.00    +0.043 A 
ATOM     19  C   UNL     1      -4.224  -9.589  -1.970  0.00  0.00    +0.044 A 
ATOM     20  C   UNL     1      -3.097  -9.591  -1.236  0.00  0.00    +0.102 A 
ATOM     21  O   UNL     1      -2.793  -8.321  -0.922  0.00  0.00    -0.467 OA
ATOM     22  C   UNL     1      -2.308 -10.810  -0.836  0.00  0.00    +0.086 C 
ENDBRANCH  16  17
ENDBRANCH  13  16
ENDBRANCH   1  13
TORSDOF 5
