REMARK  Name = ZINC40321281
REMARK  7 active torsions:
REMARK  status: ('A' for Active; 'I' for Inactive)
REMARK    1  A    between atoms: C_4  and  S_7
REMARK    2  A    between atoms: S_7  and  C_10
REMARK    3  A    between atoms: C_13  and  C_15
REMARK    4  A    between atoms: N_17  and  C_18
REMARK    5  A    between atoms: C_19  and  C_27
REMARK    6  A    between atoms: N_29  and  C_30
REMARK    7  A    between atoms: C_30  and  C_31
REMARK                            x       y       z     vdW  Elec       q    Type
REMARK                         _______ _______ _______ _____ _____    ______ ____
ROOT
ATOM      1  C   UNL     1       7.355   1.606   5.585  0.00  0.00    +0.085 A 
ATOM      2  C   UNL     1       8.023   2.821   5.592  0.00  0.00    +0.069 A 
ATOM      3  C   UNL     1       8.690   3.206   6.824  0.00  0.00    -0.023 A 
ATOM      4  C   UNL     1       8.568   2.305   7.822  0.00  0.00    -0.004 A 
ATOM      5  S   UNL     1       7.590   1.002   7.134  0.00  0.00    -0.077 S 
ATOM      6  C   UNL     1       9.139   2.410   9.203  0.00  0.00    +0.043 C 
ATOM      7  C   UNL     1      10.203   3.517   9.201  0.00  0.00    +0.005 C 
ATOM      8  C   UNL     1       9.625   4.759   8.516  0.00  0.00    +0.005 C 
ATOM      9  C   UNL     1       9.468   4.499   7.016  0.00  0.00    +0.037 C 
ENDROOT
BRANCH   1  12
ATOM     10  C   UNL     1       6.053  -0.168   4.716  0.00  0.00    +0.284 C 
ATOM     11  O   UNL     1       6.132  -0.739   5.788  0.00  0.00    -0.266 OA
ATOM     12  N   UNL     1       6.651   1.027   4.543  0.00  0.00    -0.273 N 
ATOM     13  H   UNL     1       6.588   1.482   3.688  0.00  0.00    +0.156 HD
BRANCH  10  17
ATOM     14  C   UNL     1       4.406  -1.094   1.637  0.00  0.00    +0.246 A 
ATOM     15  C   UNL     1       4.085  -2.173   2.385  0.00  0.00    +0.070 A 
ATOM     16  C   UNL     1       4.658  -1.982   3.652  0.00  0.00    +0.056 A 
ATOM     17  C   UNL     1       5.308  -0.781   3.612  0.00  0.00    +0.192 A 
ATOM     18  O   UNL     1       5.147  -0.261   2.378  0.00  0.00    -0.433 OA
BRANCH  14  19
ATOM     19  S   UNL     1       3.934  -0.832  -0.041  0.00  0.00    +0.058 S 
ATOM     20  O   UNL     1       3.674  -2.114  -0.595  0.00  0.00    -0.161 OA
ATOM     21  O   UNL     1       4.890   0.060  -0.597  0.00  0.00    -0.161 OA
BRANCH  19  25
ATOM     22  C   UNL     1      -0.017   1.378   0.010  0.00  0.00    +0.000 A 
ATOM     23  C   UNL     1       1.171   2.086   0.002  0.00  0.00    +0.002 A 
ATOM     24  C   UNL     1       2.377   1.411  -0.013  0.00  0.00    +0.027 A 
ATOM     25  C   UNL     1       2.396   0.029  -0.020  0.00  0.00    +0.097 A 
ATOM     26  C   UNL     1       1.208  -0.679  -0.012  0.00  0.00    +0.027 A 
ATOM     27  C   UNL     1       0.002  -0.004   0.002  0.00  0.00    +0.002 A 
ENDBRANCH  19  25
ENDBRANCH  14  19
ENDBRANCH  10  17
ENDBRANCH   1  12
BRANCH   2  28
ATOM     28  C   UNL     1       8.054   3.682   4.405  0.00  0.00    +0.247 C 
ATOM     29  O   UNL     1       7.188   4.521   4.239  0.00  0.00    -0.270 OA
ATOM     30  N   UNL     1       9.042   3.544   3.499  0.00  0.00    -0.309 N 
ATOM     31  H   UNL     1       9.732   2.875   3.632  0.00  0.00    +0.149 HD
BRANCH  30  32
ATOM     32  C   UNL     1       9.073   4.404   2.313  0.00  0.00    +0.136 C 
BRANCH  32  33
ATOM     33  C   UNL     1      10.287   4.044   1.454  0.00  0.00    +0.135 C 
ATOM     34  C   UNL     1      10.359   4.966   0.211  0.00  0.00    +0.035 C 
ATOM     35  C   UNL     1      11.876   4.903  -0.116  0.00  0.00    +0.031 C 
ATOM     36  C   UNL     1      12.509   4.789   1.288  0.00  0.00    +0.160 C 
ATOM     37  O   UNL     1      11.502   4.293   2.179  0.00  0.00    -0.375 OA
ENDBRANCH  32  33
ENDBRANCH  30  32
ENDBRANCH   2  28
TORSDOF 7
