REMARK  Name = ZINC10042063
REMARK  11 active torsions:
REMARK  status: ('A' for Active; 'I' for Inactive)
REMARK    1  A    between atoms: C_1  and  C_2
REMARK    2  A    between atoms: C_2  and  C_3
REMARK    3  A    between atoms: C_2  and  C_4
REMARK    4  A    between atoms: C_4  and  C_6
REMARK    5  A    between atoms: C_4  and  N_23
REMARK    6  A    between atoms: N_8  and  N_9
REMARK    7  A    between atoms: C_10  and  C_11
REMARK    8  A    between atoms: C_16  and  O_17
REMARK    9  A    between atoms: O_17  and  C_18
REMARK   10  A    between atoms: C_18  and  C_19
REMARK   11  A    between atoms: C_24  and  C_26
REMARK                            x       y       z     vdW  Elec       q    Type
REMARK                         _______ _______ _______ _____ _____    ______ ____
ROOT
ATOM      1  C   UNL     1      -1.319   1.770   0.068  0.00  0.00    +0.253 C 
ATOM      2  O   UNL     1      -1.464   2.891   0.508  0.00  0.00    -0.272 OA
ATOM      3  N   UNL     1      -0.090   1.331  -0.267  0.00  0.00    -0.205 N 
ATOM      4  H   UNL     1       0.036   0.412  -0.551  0.00  0.00    +0.177 HD
ENDROOT
BRANCH   3   5
ATOM      5  N   UNL     1       1.005   2.203  -0.210  0.00  0.00    -0.188 NA
ATOM      6  C   UNL     1       2.188   1.781  -0.538  0.00  0.00    +0.142 C 
BRANCH   6   7
ATOM      7  C   UNL     1       3.340   2.698  -0.478  0.00  0.00    +0.038 A 
ATOM      8  C   UNL     1       4.616   2.247  -0.824  0.00  0.00    +0.033 A 
ATOM      9  C   UNL     1       5.689   3.113  -0.771  0.00  0.00    +0.042 A 
ATOM     10  C   UNL     1       5.508   4.425  -0.366  0.00  0.00    +0.023 A 
ATOM     11  C   UNL     1       4.251   4.881  -0.016  0.00  0.00    +0.048 A 
ATOM     12  C   UNL     1       3.162   4.027  -0.069  0.00  0.00    +0.130 A 
ATOM     13 CL   UNL     1       7.273   2.553  -1.209  0.00  0.00    -0.084 Cl
BRANCH  12  14
ATOM     14  O   UNL     1       1.927   4.475   0.274  0.00  0.00    -0.482 OA
BRANCH  14  15
ATOM     15  C   UNL     1       1.822   5.841   0.682  0.00  0.00    +0.324 C 
BRANCH  15  16
ATOM     16  C   UNL     1       0.388   6.155   1.022  0.00  0.00    +0.248 C 
ATOM     17  O   UNL     1      -0.461   5.294   0.924  0.00  0.00    -0.272 OA
ATOM     18  N   UNL     1       0.049   7.393   1.433  0.00  0.00    -0.327 N 
ATOM     19  H   UNL     1       0.728   8.081   1.511  0.00  0.00    +0.145 HD
ATOM     20  H   UNL     1      -0.874   7.595   1.652  0.00  0.00    +0.145 HD
ENDBRANCH  15  16
ENDBRANCH  14  15
ENDBRANCH  12  14
ENDBRANCH   6   7
ENDBRANCH   3   5
BRANCH   1  21
ATOM     21  C   UNL     1      -2.515   0.869  -0.105  0.00  0.00    +0.163 C 
BRANCH  21  22
ATOM     22  N   UNL     1      -3.715   1.683  -0.311  0.00  0.00    -0.300 N 
ATOM     23  C   UNL     1      -4.773   1.169  -0.970  0.00  0.00    +0.245 C 
ATOM     24  O   UNL     1      -4.731   0.030  -1.392  0.00  0.00    -0.270 OA
ATOM     25  H   UNL     1      -3.748   2.592   0.025  0.00  0.00    +0.150 HD
BRANCH  23  26
ATOM     26  C   UNL     1      -5.984   1.992  -1.178  0.00  0.00    +0.038 A 
ATOM     27  C   UNL     1      -7.082   1.462  -1.859  0.00  0.00    +0.013 A 
ATOM     28  C   UNL     1      -8.209   2.234  -2.050  0.00  0.00    +0.002 A 
ATOM     29  C   UNL     1      -8.254   3.530  -1.568  0.00  0.00    +0.020 A 
ATOM     30  C   UNL     1      -7.170   4.061  -0.891  0.00  0.00    +0.042 A 
ATOM     31  C   UNL     1      -6.037   3.298  -0.690  0.00  0.00    +0.033 A 
ATOM     32 CL   UNL     1      -7.236   5.688  -0.289  0.00  0.00    -0.084 Cl
ENDBRANCH  23  26
ENDBRANCH  21  22
BRANCH  21  34
ATOM     33  C   UNL     1      -1.485  -0.919   1.305  0.00  0.00    +0.009 C 
ATOM     34  C   UNL     1      -2.691   0.009   1.149  0.00  0.00    +0.012 C 
ATOM     35  C   UNL     1      -2.800   0.915   2.377  0.00  0.00    +0.009 C 
ENDBRANCH  21  34
ENDBRANCH   1  21
TORSDOF 9
