REMARK  Name = ZINC44170267
REMARK  15 active torsions:
REMARK  status: ('A' for Active; 'I' for Inactive)
REMARK    1  A    between atoms: C_1  and  C_2
REMARK    2  A    between atoms: C_2  and  C_3
REMARK    3  A    between atoms: C_2  and  C_4
REMARK    4  A    between atoms: C_4  and  N_5
REMARK    5  A    between atoms: C_6  and  C_8
REMARK    6  A    between atoms: C_13  and  C_16
REMARK    7  A    between atoms: C_18  and  C_27
REMARK    8  A    between atoms: C_19  and  O_26
REMARK    9  A    between atoms: C_20  and  C_22
REMARK   10  A    between atoms: C_22  and  C_23
REMARK   11  A    between atoms: C_22  and  C_24
REMARK   12  A    between atoms: C_22  and  C_25
REMARK   13  A    between atoms: C_27  and  C_28
REMARK   14  A    between atoms: C_27  and  C_29
REMARK   15  A    between atoms: C_27  and  C_30
REMARK                            x       y       z     vdW  Elec       q    Type
REMARK                         _______ _______ _______ _____ _____    ______ ____
ROOT
ATOM      1  C   UNL     1      -4.078  -0.112  -2.723  0.00  0.00    +0.027 C 
ATOM      2  C   UNL     1      -4.205   1.415  -2.781  0.00  0.00    +0.062 C 
ATOM      3  S   UNL     1      -5.131   1.967  -1.314  0.00  0.00    -0.163 S 
ATOM      4  C   UNL     1      -6.588   0.877  -1.329  0.00  0.00    +0.058 C 
ATOM      5  C   UNL     1      -6.105  -0.570  -1.488  0.00  0.00    -0.030 C 
ATOM      6  N   UNL     1      -5.408  -0.722  -2.766  0.00  0.00    +0.392 N 
ATOM      7  H   UNL     1      -5.951  -0.281  -3.493  0.00  0.00    -0.084 HD
ATOM      8  H   UNL     1      -5.315  -1.705  -2.974  0.00  0.00    -0.084 HD
ENDROOT
BRANCH   5   9
ATOM      9  C   UNL     1      -7.289  -1.500  -1.450  0.00  0.00    -0.060 A 
ATOM     10  C   UNL     1      -8.065  -1.677  -2.581  0.00  0.00    +0.009 A 
ATOM     11  C   UNL     1      -9.152  -2.529  -2.548  0.00  0.00    -0.000 A 
ATOM     12  C   UNL     1      -9.464  -3.209  -1.380  0.00  0.00    +0.124 A 
ATOM     13  C   UNL     1      -8.683  -3.031  -0.247  0.00  0.00    -0.000 A 
ATOM     14  C   UNL     1      -7.595  -2.181  -0.286  0.00  0.00    +0.009 A 
BRANCH  13  15
ATOM     15  C   UNL     1      -9.019  -3.768   1.024  0.00  0.00    -0.009 C 
ATOM     16  C   UNL     1      -8.010  -3.396   2.112  0.00  0.00    +0.015 C 
ATOM     17  C   UNL     1     -10.427  -3.381   1.481  0.00  0.00    +0.015 C 
ATOM     18  C   UNL     1      -8.962  -5.276   0.769  0.00  0.00    +0.015 C 
ENDBRANCH  13  15
BRANCH  11  19
ATOM     19  C   UNL     1      -9.998  -2.720  -3.780  0.00  0.00    -0.009 C 
ATOM     20  C   UNL     1      -9.442  -1.861  -4.919  0.00  0.00    +0.015 C 
ATOM     21  C   UNL     1      -9.973  -4.193  -4.193  0.00  0.00    +0.015 C 
ATOM     22  C   UNL     1     -11.438  -2.298  -3.481  0.00  0.00    +0.015 C 
ENDBRANCH  11  19
BRANCH  12  23
ATOM     23  O   UNL     1     -10.532  -4.048  -1.345  0.00  0.00    -0.506 OA
ATOM     24  H   UNL     1     -10.324  -4.961  -1.587  0.00  0.00    +0.292 HD
ENDBRANCH  12  23
ENDBRANCH   5   9
BRANCH   1  26
ATOM     25  N   UNL     1      -3.601  -1.728  -0.912  0.00  0.00    -0.316 N 
ATOM     26  C   UNL     1      -3.387  -0.508  -1.443  0.00  0.00    +0.200 C 
ATOM     27  O   UNL     1      -2.638   0.271  -0.893  0.00  0.00    -0.278 OA
ATOM     28  H   UNL     1      -4.200  -2.351  -1.352  0.00  0.00    +0.149 HD
BRANCH  25  29
ATOM     29  C   UNL     1      -2.929  -2.113   0.332  0.00  0.00    +0.107 C 
BRANCH  29  31
ATOM     30  C   UNL     1      -2.831  -4.517  -0.342  0.00  0.00    +0.009 C 
ATOM     31  C   UNL     1      -3.342  -3.536   0.715  0.00  0.00    -0.000 C 
ATOM     32  C   UNL     1      -2.739  -3.893   2.075  0.00  0.00    +0.009 C 
ENDBRANCH  29  31
ENDBRANCH  25  29
ENDBRANCH   1  26
TORSDOF 7
