REMARK  Name = ZINC64923175
REMARK  10 active torsions:
REMARK  status: ('A' for Active; 'I' for Inactive)
REMARK    1  A    between atoms: C_1  and  C_2
REMARK    2  A    between atoms: C_3  and  S_13
REMARK    3  A    between atoms: C_5  and  C_9
REMARK    4  A    between atoms: N_7  and  C_8
REMARK    5  A    between atoms: C_9  and  O_11
REMARK    6  A    between atoms: O_11  and  C_12
REMARK    7  A    between atoms: S_13  and  N_16
REMARK    8  A    between atoms: N_16  and  C_17
REMARK    9  A    between atoms: C_17  and  C_18
REMARK   10  A    between atoms: C_18  and  C_19
REMARK                            x       y       z     vdW  Elec       q    Type
REMARK                         _______ _______ _______ _____ _____    ______ ____
ROOT
ATOM      1  N   UNL     1      -3.329  -0.330   1.547  0.00  0.00    -0.190 NA
ATOM      2  H   UNL     1      -4.073  -0.934   1.696  0.00  0.00    +0.148 HD
ENDROOT
BRANCH   1   3
ATOM      3  S   UNL     1      -2.735  -0.111   0.017  0.00  0.00    +0.056 S 
ATOM      4  O   UNL     1      -2.640   1.293  -0.185  0.00  0.00    -0.153 OA
ATOM      5  O   UNL     1      -3.495  -0.953  -0.839  0.00  0.00    -0.153 OA
BRANCH   3   8
ATOM      6  C   UNL     1      -0.018   1.503   0.010  0.00  0.00    +0.062 C 
ATOM      7  C   UNL     1       0.002  -0.004   0.002  0.00  0.00    +0.026 C 
ATOM      8  C   UNL     1      -1.087  -0.734   0.003  0.00  0.00    +0.101 C 
ATOM      9  C   UNL     1      -0.703  -2.197  -0.007  0.00  0.00    +0.091 C 
ATOM     10  C   UNL     1       0.838  -2.174  -0.015  0.00  0.00    +0.188 C 
ATOM     11  N   UNL     1       1.170  -0.741  -0.014  0.00  0.00    -0.322 N 
ATOM     12  C   UNL     1       2.525  -0.184  -0.024  0.00  0.00    +0.130 C 
BRANCH  10  13
ATOM     13  C   UNL     1       1.371  -2.837  -1.259  0.00  0.00    +0.328 C 
ATOM     14  O   UNL     1       1.738  -2.164  -2.193  0.00  0.00    -0.249 OA
BRANCH  13  15
ATOM     15  O   UNL     1       1.437  -4.176  -1.330  0.00  0.00    -0.467 OA
ATOM     16  C   UNL     1       1.952  -4.737  -2.540  0.00  0.00    +0.280 C 
ENDBRANCH  13  15
ENDBRANCH  10  13
ENDBRANCH   3   8
ENDBRANCH   1   3
BRANCH   1  17
ATOM     17  C   UNL     1      -2.732   0.390   2.674  0.00  0.00    +0.109 C 
BRANCH  17  18
ATOM     18  C   UNL     1      -3.669   0.314   3.882  0.00  0.00    +0.063 C 
BRANCH  18  19
ATOM     19  C   UNL     1      -3.045   1.066   5.059  0.00  0.00    +0.175 C 
ATOM     20  N   UNL     1      -1.778   0.433   5.447  0.00  0.00    -0.363 N 
ATOM     21  C   UNL     1      -1.901   0.035   6.679  0.00  0.00    +0.060 A 
ATOM     22  C   UNL     1      -0.986  -0.654   7.602  0.00  0.00    +0.030 A 
ATOM     23  C   UNL     1      -1.397  -0.946   8.851  0.00  0.00    +0.040 A 
ATOM     24  C   UNL     1      -2.683  -0.617   9.323  0.00  0.00    +0.125 A 
ATOM     25  C   UNL     1      -3.599   0.017   8.557  0.00  0.00    +0.065 A 
ATOM     26  C   UNL     1      -3.260   0.383   7.178  0.00  0.00    +0.063 A 
ATOM     27  N   UNL     1      -3.925   0.985   6.232  0.00  0.00    -0.363 N 
ATOM     28  F   UNL     1      -3.014  -0.947  10.591  0.00  0.00    -0.205 F 
ATOM     29  H   UNL     1      -0.993   0.330   4.886  0.00  0.00    +0.162 HD
ATOM     30  H   UNL     1      -4.834   1.318   6.291  0.00  0.00    +0.162 HD
ENDBRANCH  18  19
ENDBRANCH  17  18
ENDBRANCH   1  17
TORSDOF 7
