REMARK  Name = ZINC03056698
REMARK  7 active torsions:
REMARK  status: ('A' for Active; 'I' for Inactive)
REMARK    1  A    between atoms: C_2  and  C_3
REMARK    2  A    between atoms: C_3  and  C_4
REMARK    3  A    between atoms: C_8  and  C_11
REMARK    4  A    between atoms: C_9  and  O_10
REMARK    5  A    between atoms: N_12  and  N_13
REMARK    6  A    between atoms: C_14  and  C_16
REMARK    7  A    between atoms: C_16  and  C_17
REMARK                            x       y       z     vdW  Elec       q    Type
REMARK                         _______ _______ _______ _____ _____    ______ ____
ROOT
ATOM      1  N   UNL     1       1.188   2.011   0.002  0.00  0.00    -0.207 N 
ATOM      2  C   UNL     1       1.170   3.358   0.009  0.00  0.00    +0.231 C 
ATOM      3  O   UNL     1       0.111   3.950   0.022  0.00  0.00    -0.274 OA
ATOM      4  H   UNL     1       2.035   1.537  -0.009  0.00  0.00    +0.177 HD
ENDROOT
BRANCH   1   6
ATOM      5  C   UNL     1       0.002  -0.004   0.002  0.00  0.00    +0.142 C 
ATOM      6  N   UNL     1      -0.015   1.294   0.009  0.00  0.00    -0.188 NA
BRANCH   5  11
ATOM      7  C   UNL     1      -3.674  -0.796   0.033  0.00  0.00    -0.002 A 
ATOM      8  C   UNL     1      -3.646  -2.179   0.026  0.00  0.00    +0.007 A 
ATOM      9  C   UNL     1      -2.438  -2.854   0.011  0.00  0.00    +0.001 A 
ATOM     10  C   UNL     1      -1.250  -2.155   0.002  0.00  0.00    +0.013 A 
ATOM     11  C   UNL     1      -1.264  -0.758   0.010  0.00  0.00    +0.036 A 
ATOM     12  C   UNL     1      -2.490  -0.078   0.031  0.00  0.00    +0.129 A 
BRANCH  12  13
ATOM     13  O   UNL     1      -2.516   1.280   0.045  0.00  0.00    -0.506 OA
ATOM     14  H   UNL     1      -2.534   1.681  -0.835  0.00  0.00    +0.292 HD
ENDBRANCH  12  13
BRANCH   7  15
ATOM     15  C   UNL     1      -4.994  -0.070   0.050  0.00  0.00    +0.065 C 
BRANCH  15  17
ATOM     16  C   UNL     1      -6.551  -0.089  -1.831  0.00  0.00    +0.004 C 
ATOM     17  C   UNL     1      -5.388   0.288  -1.360  0.00  0.00    -0.030 C 
ENDBRANCH  15  17
ENDBRANCH   7  15
ENDBRANCH   5  11
ENDBRANCH   1   6
BRANCH   2  18
ATOM     18  C   UNL     1       2.465   4.130   0.001  0.00  0.00    +0.091 C 
BRANCH  18  19
ATOM     19  C   UNL     1       2.165   5.630   0.012  0.00  0.00    +0.025 C 
ATOM     20  C   UNL     1       3.449   6.396  -0.133  0.00  0.00    +0.199 C 
ATOM     21  O   UNL     1       4.269   6.009  -0.938  0.00  0.00    -0.278 OA
ATOM     22  N   UNL     1       3.725   7.487   0.590  0.00  0.00    -0.318 N 
ATOM     23  C   UNL     1       2.823   8.014   1.609  0.00  0.00    +0.085 C 
ATOM     24  C   UNL     1       1.415   7.450   1.405  0.00  0.00    -0.063 C 
ATOM     25  H   UNL     1       4.563   7.949   0.429  0.00  0.00    +0.149 HD
ATOM     26  N   UNL     1       1.505   5.983   1.279  0.00  0.00    +0.388 N 
ATOM     27  H   UNL     1       2.050   5.606   2.063  0.00  0.00    -0.085 HD
ATOM     28  H   UNL     1       0.560   5.581   1.295  0.00  0.00    -0.085 HD
ENDBRANCH  18  19
ENDBRANCH   2  18
TORSDOF 7
