REMARK  Name = ZINC39443124
REMARK  8 active torsions:
REMARK  status: ('A' for Active; 'I' for Inactive)
REMARK    1  A    between atoms: C_1  and  C_2
REMARK    2  A    between atoms: C_3  and  S_8
REMARK    3  A    between atoms: N_6  and  C_7
REMARK    4  A    between atoms: S_8  and  N_11
REMARK    5  A    between atoms: N_14  and  S_17
REMARK    6  A    between atoms: S_17  and  C_20
REMARK    7  A    between atoms: C_21  and  C_27
REMARK    8  A    between atoms: C_24  and  C_26
REMARK                            x       y       z     vdW  Elec       q    Type
REMARK                         _______ _______ _______ _____ _____    ______ ____
ROOT
ATOM      1  N   UNL     1      -1.187   0.498  -3.147  0.00  0.00    -0.174 NA
ATOM      2  C   UNL     1      -2.471  -0.134  -3.483  0.00  0.00    +0.126 C 
ATOM      3  C   UNL     1      -3.542   0.388  -2.517  0.00  0.00    +0.126 C 
ATOM      4  N   UNL     1      -3.464   1.855  -2.477  0.00  0.00    -0.174 NA
ATOM      5  C   UNL     1      -2.180   2.487  -2.142  0.00  0.00    +0.126 C 
ATOM      6  C   UNL     1      -1.111   1.965  -3.102  0.00  0.00    +0.126 C 
ENDROOT
BRANCH   1   7
ATOM      7  S   UNL     1       0.147  -0.426  -2.819  0.00  0.00    +0.064 S 
ATOM      8  O   UNL     1       1.278   0.342  -3.206  0.00  0.00    -0.153 OA
ATOM      9  O   UNL     1      -0.114  -1.718  -3.349  0.00  0.00    -0.153 OA
BRANCH   7  12
ATOM     10  C   UNL     1      -1.855  -2.038  -0.773  0.00  0.00    +0.067 C 
ATOM     11  C   UNL     1      -0.635  -1.294  -0.294  0.00  0.00    +0.062 A 
ATOM     12  C   UNL     1       0.237  -0.608  -1.069  0.00  0.00    +0.146 A 
ATOM     13  C   UNL     1       1.222  -0.069  -0.235  0.00  0.00    +0.163 A 
ATOM     14  N   UNL     1       0.951  -0.419   0.996  0.00  0.00    -0.178 NA
ATOM     15  N   UNL     1      -0.219  -1.189   0.985  0.00  0.00    -0.270 N 
ATOM     16  C   UNL     1      -0.874  -1.778   2.156  0.00  0.00    +0.172 C 
ENDBRANCH   7  12
ENDBRANCH   1   7
BRANCH   4  17
ATOM     17  S   UNL     1      -4.798   2.779  -2.806  0.00  0.00    +0.061 S 
ATOM     18  O   UNL     1      -4.319   4.046  -3.235  0.00  0.00    -0.153 OA
ATOM     19  O   UNL     1      -5.659   1.980  -3.605  0.00  0.00    -0.153 OA
BRANCH  17  20
ATOM     20  C   UNL     1      -5.634   3.048  -1.278  0.00  0.00    +0.131 C 
ATOM     21  C   UNL     1      -6.757   2.473  -0.843  0.00  0.00    +0.084 C 
ATOM     22  N   UNL     1      -7.091   2.937   0.382  0.00  0.00    -0.157 NA
ATOM     23  N   UNL     1      -6.312   3.776   0.841  0.00  0.00    -0.178 NA
ATOM     24  C   UNL     1      -5.241   3.983  -0.148  0.00  0.00    +0.176 C 
ATOM     25  C   UNL     1      -3.881   3.589   0.432  0.00  0.00    +0.041 C 
ATOM     26  C   UNL     1      -7.546   1.446  -1.613  0.00  0.00    +0.069 C 
ENDBRANCH  17  20
ENDBRANCH   4  17
TORSDOF 4
