REMARK  Name = ZINC09714248
REMARK  8 active torsions:
REMARK  status: ('A' for Active; 'I' for Inactive)
REMARK    1  A    between atoms: C_4  and  C_7
REMARK    2  A    between atoms: C_7  and  C_8
REMARK    3  A    between atoms: C_8  and  N_9
REMARK    4  A    between atoms: C_10  and  C_12
REMARK    5  A    between atoms: C_17  and  N_18
REMARK    6  A    between atoms: C_19  and  C_21
REMARK    7  A    between atoms: C_21  and  N_58
REMARK    8  A    between atoms: C_25  and  C_27
REMARK                            x       y       z     vdW  Elec       q    Type
REMARK                         _______ _______ _______ _____ _____    ______ ____
ROOT
ATOM      1  C   UNL     1       3.728   6.446  -6.602  0.00  0.00    +0.058 A 
ATOM      2  C   UNL     1       4.829   6.451  -7.461  0.00  0.00    +0.015 A 
ATOM      3  C   UNL     1       6.048   5.984  -7.020  0.00  0.00    +0.001 A 
ATOM      4  C   UNL     1       6.189   5.513  -5.724  0.00  0.00    +0.002 A 
ATOM      5  C   UNL     1       5.112   5.505  -4.862  0.00  0.00    +0.024 A 
ATOM      6  C   UNL     1       3.876   5.972  -5.290  0.00  0.00    +0.045 A 
ENDROOT
BRANCH   1   8
ATOM      7  N   UNL     1       2.254   7.292  -8.360  0.00  0.00    -0.311 N 
ATOM      8  C   UNL     1       2.419   6.939  -7.069  0.00  0.00    +0.246 C 
ATOM      9  O   UNL     1       1.489   7.028  -6.291  0.00  0.00    -0.270 OA
ATOM     10  H   UNL     1       2.995   7.221  -8.981  0.00  0.00    +0.149 HD
BRANCH   7  11
ATOM     11  C   UNL     1       0.954   7.782  -8.824  0.00  0.00    +0.109 C 
BRANCH  11  12
ATOM     12  C   UNL     1       1.036   8.110 -10.317  0.00  0.00    +0.054 C 
BRANCH  12  16
ATOM     13  C   UNL     1      -2.755   9.539 -11.672  0.00  0.00    +0.000 A 
ATOM     14  C   UNL     1      -1.813  10.429 -11.188  0.00  0.00    +0.000 A 
ATOM     15  C   UNL     1      -0.587   9.966 -10.750  0.00  0.00    +0.004 A 
ATOM     16  C   UNL     1      -0.302   8.614 -10.794  0.00  0.00    -0.046 A 
ATOM     17  C   UNL     1      -1.241   7.725 -11.283  0.00  0.00    +0.004 A 
ATOM     18  C   UNL     1      -2.470   8.187 -11.716  0.00  0.00    +0.000 A 
ENDBRANCH  12  16
ENDBRANCH  11  12
ENDBRANCH   7  11
ENDBRANCH   1   8
BRANCH   6  19
ATOM     19  N   UNL     1       2.787   5.965  -4.421  0.00  0.00    -0.286 N 
ATOM     20  C   UNL     1       2.970   6.208  -3.108  0.00  0.00    +0.201 C 
ATOM     21  O   UNL     1       4.091   6.351  -2.669  0.00  0.00    -0.278 OA
ATOM     22  H   UNL     1       1.896   5.786  -4.761  0.00  0.00    +0.155 HD
BRANCH  20  23
ATOM     23  C   UNL     1       1.782   6.301  -2.186  0.00  0.00    +0.020 C 
BRANCH  23  28
ATOM     24  C   UNL     1       2.800   7.930  -0.705  0.00  0.00    -0.077 C 
ATOM     25  C   UNL     1       2.011   8.656   0.405  0.00  0.00    -0.020 C 
ATOM     26  C   UNL     1       1.432   7.487   1.247  0.00  0.00    -0.012 C 
ATOM     27  C   UNL     1       1.137   6.432   0.152  0.00  0.00    -0.030 C 
ATOM     28  N   UNL     1       2.255   6.567  -0.802  0.00  0.00    +0.390 N 
ATOM     29  H   UNL     1       2.989   5.890  -0.563  0.00  0.00    -0.080 HD
BRANCH  27  30
ATOM     30  C   UNL     1       1.129   5.047   0.747  0.00  0.00    -0.024 A 
ATOM     31  C   UNL     1       0.072   4.258   1.060  0.00  0.00    +0.009 A 
ATOM     32  C   UNL     1       0.306   3.006   1.597  0.00  0.00    +0.008 A 
ATOM     33  C   UNL     1       1.585   2.609   1.805  0.00  0.00    +0.045 A 
ATOM     34  S   UNL     1       2.510   4.020   1.222  0.00  0.00    -0.103 S 
ENDBRANCH  27  30
ENDBRANCH  23  28
ENDBRANCH  20  23
ENDBRANCH   6  19
TORSDOF 8
