REMARK  Name = ZINC39667158
REMARK  8 active torsions:
REMARK  status: ('A' for Active; 'I' for Inactive)
REMARK    1  A    between atoms: C_1  and  C_2
REMARK    2  A    between atoms: C_5  and  C_9
REMARK    3  A    between atoms: C_6  and  C_8
REMARK    4  A    between atoms: C_9  and  C_10
REMARK    5  A    between atoms: C_10  and  N_11
REMARK    6  A    between atoms: C_12  and  C_14
REMARK    7  A    between atoms: C_25  and  C_27
REMARK    8  A    between atoms: C_30  and  C_32
REMARK                            x       y       z     vdW  Elec       q    Type
REMARK                         _______ _______ _______ _____ _____    ______ ____
ROOT
ATOM      1  C   UNL     1      -2.485  -8.466   0.197  0.00  0.00    +0.100 C 
ATOM      2  C   UNL     1      -2.062  -8.991  -1.193  0.00  0.00    +0.121 C 
ATOM      3  N   UNL     1      -2.893 -10.198  -1.406  0.00  0.00    -0.294 N 
ATOM      4  C   UNL     1      -4.221  -9.834  -0.857  0.00  0.00    +0.115 C 
ATOM      5  C   UNL     1      -3.903  -9.021   0.414  0.00  0.00    -0.004 C 
ATOM      6  C   UNL     1      -3.934  -9.926   1.641  0.00  0.00    -0.010 C 
ATOM      7  C   UNL     1      -5.366 -10.420   1.869  0.00  0.00    -0.082 C 
ATOM      8  N   UNL     1      -6.257  -9.270   2.061  0.00  0.00    +0.379 N 
ATOM      9  C   UNL     1      -6.293  -8.454   0.842  0.00  0.00    -0.082 C 
ATOM     10  C   UNL     1      -4.900  -7.877   0.571  0.00  0.00    -0.010 C 
ATOM     11  C   UNL     1      -2.526 -11.365  -1.972  0.00  0.00    +0.282 C 
ATOM     12  O   UNL     1      -3.331 -12.271  -2.077  0.00  0.00    -0.267 OA
ATOM     13  H   UNL     1      -7.188  -9.599   2.272  0.00  0.00    -0.086 HD
ATOM     14  H   UNL     1      -5.920  -8.710   2.830  0.00  0.00    -0.086 HD
ENDROOT
BRANCH  11  15
ATOM     15  C   UNL     1      -1.156 -11.542  -2.461  0.00  0.00    +0.190 A 
ATOM     16  C   UNL     1      -0.652 -12.675  -3.062  0.00  0.00    +0.055 A 
ATOM     17  C   UNL     1       0.686 -12.409  -3.367  0.00  0.00    +0.051 A 
ATOM     18  C   UNL     1       0.949 -11.136  -2.946  0.00  0.00    +0.139 A 
ATOM     19  O   UNL     1      -0.170 -10.622  -2.407  0.00  0.00    -0.450 OA
BRANCH  18  20
ATOM     20  C   UNL     1       2.244 -10.439  -3.068  0.00  0.00    +0.052 A 
ATOM     21  C   UNL     1       3.420 -11.063  -2.644  0.00  0.00    +0.014 A 
ATOM     22  C   UNL     1       4.627 -10.406  -2.761  0.00  0.00    +0.001 A 
ATOM     23  C   UNL     1       4.676  -9.131  -3.297  0.00  0.00    +0.003 A 
ATOM     24  C   UNL     1       3.518  -8.505  -3.719  0.00  0.00    +0.039 A 
ATOM     25  C   UNL     1       2.301  -9.153  -3.614  0.00  0.00    +0.134 A 
ATOM     26  F   UNL     1       1.170  -8.543  -4.032  0.00  0.00    -0.205 F 
ENDBRANCH  18  20
ENDBRANCH  11  15
BRANCH   1  28
ATOM     27  N   UNL     1      -2.275  -6.288   1.352  0.00  0.00    -0.315 N 
ATOM     28  C   UNL     1      -2.505  -6.959   0.206  0.00  0.00    +0.218 C 
ATOM     29  O   UNL     1      -2.727  -6.349  -0.819  0.00  0.00    -0.275 OA
ATOM     30  H   UNL     1      -2.097  -6.775   2.172  0.00  0.00    +0.149 HD
BRANCH  27  31
ATOM     31  C   UNL     1      -2.294  -4.823   1.360  0.00  0.00    +0.109 C 
BRANCH  31  32
ATOM     32  C   UNL     1      -2.006  -4.317   2.775  0.00  0.00    +0.054 C 
BRANCH  32  37
ATOM     33  C   UNL     1      -2.080   1.461   2.803  0.00  0.00    +0.044 C 
ATOM     34  C   UNL     1      -2.061  -0.046   2.796  0.00  0.00    -0.050 A 
ATOM     35  C   UNL     1      -0.863  -0.721   2.652  0.00  0.00    +0.003 A 
ATOM     36  C   UNL     1      -0.845  -2.103   2.646  0.00  0.00    +0.004 A 
ATOM     37  C   UNL     1      -2.025  -2.811   2.783  0.00  0.00    -0.043 A 
ATOM     38  C   UNL     1      -3.223  -2.136   2.928  0.00  0.00    -0.047 A 
ATOM     39  C   UNL     1      -3.240  -0.753   2.939  0.00  0.00    +0.007 A 
ATOM     40  C   UNL     1      -4.509  -2.907   3.078  0.00  0.00    +0.044 C 
ENDBRANCH  32  37
ENDBRANCH  31  32
ENDBRANCH  27  31
ENDBRANCH   1  28
TORSDOF 6
