REMARK  Name = ZINC67299819
REMARK  9 active torsions:
REMARK  status: ('A' for Active; 'I' for Inactive)
REMARK    1  A    between atoms: C_1  and  C_2
REMARK    2  A    between atoms: C_7  and  C_8
REMARK    3  A    between atoms: C_11  and  N_13
REMARK    4  A    between atoms: C_14  and  C_16
REMARK    5  A    between atoms: C_16  and  C_17
REMARK    6  A    between atoms: C_17  and  N_18
REMARK    7  A    between atoms: N_21  and  C_22
REMARK    8  A    between atoms: N_21  and  C_23
REMARK    9  A    between atoms: C_23  and  C_24
REMARK                            x       y       z     vdW  Elec       q    Type
REMARK                         _______ _______ _______ _____ _____    ______ ____
ROOT
ATOM      1  N   UNL     1      -0.956  -4.956  -0.511  0.00  0.00    -0.305 N 
ATOM      2  C   UNL     1      -0.797  -6.267  -0.777  0.00  0.00    +0.215 C 
ATOM      3  O   UNL     1       0.171  -6.860  -0.349  0.00  0.00    -0.276 OA
ATOM      4  H   UNL     1      -1.730  -4.482  -0.853  0.00  0.00    +0.149 HD
ENDROOT
BRANCH   1  15
ATOM      5  C   UNL     1      -0.018   1.503   0.010  0.00  0.00    +0.044 C 
ATOM      6  C   UNL     1       0.002  -0.004   0.002  0.00  0.00    -0.044 A 
ATOM      7  C   UNL     1       0.006  -0.685  -1.201  0.00  0.00    +0.004 A 
ATOM      8  C   UNL     1       0.021  -2.069  -1.208  0.00  0.00    +0.009 A 
ATOM      9  C   UNL     1       0.033  -2.762  -0.018  0.00  0.00    +0.018 A 
ATOM     10  C   UNL     1       0.037  -2.089   1.197  0.00  0.00    +0.129 A 
ATOM     11  C   UNL     1       0.023  -0.696   1.195  0.00  0.00    -0.006 A 
ATOM     12  C   UNL     1       0.024   0.057   2.500  0.00  0.00    +0.048 C 
ATOM     13  O   UNL     1       0.073  -2.960   2.243  0.00  0.00    -0.489 OA
ATOM     14  C   UNL     1      -0.351  -4.258   1.793  0.00  0.00    +0.256 C 
ATOM     15  C   UNL     1       0.040  -4.246   0.296  0.00  0.00    +0.144 C 
ENDBRANCH   1  15
BRANCH   2  16
ATOM     16  C   UNL     1      -1.821  -6.998  -1.607  0.00  0.00    +0.114 C 
BRANCH  16  17
ATOM     17  C   UNL     1      -1.404  -8.462  -1.758  0.00  0.00    +0.115 C 
BRANCH  17  18
ATOM     18  N   UNL     1      -2.400  -9.172  -2.565  0.00  0.00    -0.299 N 
ATOM     19  C   UNL     1      -2.241 -10.484  -2.831  0.00  0.00    +0.302 C 
ATOM     20  O   UNL     1      -1.271 -11.078  -2.402  0.00  0.00    -0.253 OA
ATOM     21  N   UNL     1      -3.157 -11.137  -3.573  0.00  0.00    -0.284 N 
ATOM     22  C   UNL     1      -4.325 -10.421  -4.091  0.00  0.00    +0.134 C 
ATOM     23  H   UNL     1      -3.174  -8.698  -2.907  0.00  0.00    +0.150 HD
BRANCH  21  24
ATOM     24  C   UNL     1      -2.983 -12.562  -3.863  0.00  0.00    +0.144 C 
BRANCH  24  25
ATOM     25  C   UNL     1      -3.646 -13.378  -2.783  0.00  0.00    -0.030 A 
ATOM     26  C   UNL     1      -2.931 -13.750  -1.660  0.00  0.00    +0.005 A 
ATOM     27  C   UNL     1      -3.539 -14.499  -0.670  0.00  0.00    +0.000 A 
ATOM     28  C   UNL     1      -4.862 -14.875  -0.801  0.00  0.00    +0.000 A 
ATOM     29  C   UNL     1      -5.578 -14.502  -1.924  0.00  0.00    +0.000 A 
ATOM     30  C   UNL     1      -4.971 -13.750  -2.912  0.00  0.00    +0.005 A 
ENDBRANCH  24  25
ENDBRANCH  21  24
ENDBRANCH  17  18
ENDBRANCH  16  17
ENDBRANCH   2  16
TORSDOF 6
