REMARK  Name = ZINC39657697
REMARK  10 active torsions:
REMARK  status: ('A' for Active; 'I' for Inactive)
REMARK    1  A    between atoms: C_4  and  S_31
REMARK    2  A    between atoms: C_5  and  C_7
REMARK    3  A    between atoms: C_7  and  N_8
REMARK    4  A    between atoms: C_9  and  C_11
REMARK    5  A    between atoms: C_22  and  C_24
REMARK    6  A    between atoms: C_24  and  C_25
REMARK    7  A    between atoms: C_25  and  C_26
REMARK    8  A    between atoms: S_31  and  C_32
REMARK    9  A    between atoms: C_37  and  C_38
REMARK   10  A    between atoms: C_38  and  O_39
REMARK                            x       y       z     vdW  Elec       q    Type
REMARK                         _______ _______ _______ _____ _____    ______ ____
ROOT
ATOM      1  N   UNL     1       0.379  -3.870   1.156  0.00  0.00    -0.311 N 
ATOM      2  C   UNL     1       1.677  -4.007   1.491  0.00  0.00    +0.218 C 
ATOM      3  O   UNL     1       2.542  -3.761   0.678  0.00  0.00    -0.275 OA
ATOM      4  H   UNL     1      -0.314  -4.066   1.806  0.00  0.00    +0.149 HD
ENDROOT
BRANCH   2   5
ATOM      5  C   UNL     1       2.052  -4.465   2.877  0.00  0.00    +0.100 C 
ATOM      6  C   UNL     1       3.420  -3.874   3.287  0.00  0.00    +0.121 C 
ATOM      7  N   UNL     1       4.082  -4.956   4.052  0.00  0.00    -0.300 N 
ATOM      8  C   UNL     1       3.727  -6.196   3.319  0.00  0.00    +0.115 C 
ATOM      9  C   UNL     1       2.259  -5.989   2.899  0.00  0.00    -0.004 C 
ATOM     10  C   UNL     1       1.323  -6.634   3.916  0.00  0.00    -0.010 C 
ATOM     11  C   UNL     1       1.506  -8.154   3.879  0.00  0.00    -0.082 C 
ATOM     12  N   UNL     1       1.212  -8.652   2.530  0.00  0.00    +0.379 N 
ATOM     13  C   UNL     1       2.176  -8.097   1.571  0.00  0.00    -0.082 C 
ATOM     14  C   UNL     1       2.021  -6.575   1.510  0.00  0.00    -0.010 C 
ATOM     15  C   UNL     1       4.835  -4.841   5.163  0.00  0.00    +0.216 C 
ATOM     16  O   UNL     1       5.313  -5.830   5.678  0.00  0.00    -0.276 OA
ATOM     17  H   UNL     1       1.275  -9.659   2.523  0.00  0.00    -0.086 HD
ATOM     18  H   UNL     1       0.279  -8.373   2.266  0.00  0.00    -0.086 HD
BRANCH  15  19
ATOM     19  C   UNL     1       5.085  -3.482   5.767  0.00  0.00    +0.096 C 
BRANCH  19  20
ATOM     20  C   UNL     1       5.963  -3.630   7.011  0.00  0.00    +0.013 C 
BRANCH  20  21
ATOM     21  C   UNL     1       6.216  -2.251   7.623  0.00  0.00    -0.011 C 
ATOM     22  C   UNL     1       7.101  -1.409   6.681  0.00  0.00    +0.003 C 
ATOM     23  C   UNL     1       8.021  -0.610   7.638  0.00  0.00    +0.000 C 
ATOM     24  C   UNL     1       8.322  -1.636   8.758  0.00  0.00    +0.000 C 
ATOM     25  C   UNL     1       6.993  -2.396   8.944  0.00  0.00    +0.003 C 
ENDBRANCH  20  21
ENDBRANCH  19  20
ENDBRANCH  15  19
ENDBRANCH   2   5
BRANCH   1  26
ATOM     26  C   UNL     1       0.013  -3.424  -0.191  0.00  0.00    +0.140 C 
BRANCH  26  31
ATOM     27  C   UNL     1      -3.559  -4.314  -1.030  0.00  0.00    +0.000 A 
ATOM     28  C   UNL     1      -4.246  -3.226  -0.522  0.00  0.00    +0.001 A 
ATOM     29  C   UNL     1      -3.559  -2.199   0.093  0.00  0.00    +0.015 A 
ATOM     30  C   UNL     1      -2.175  -2.260   0.203  0.00  0.00    +0.017 A 
ATOM     31  C   UNL     1      -1.488  -3.354  -0.307  0.00  0.00    -0.017 A 
ATOM     32  C   UNL     1      -2.182  -4.377  -0.922  0.00  0.00    +0.006 A 
BRANCH  30  33
ATOM     33  S   UNL     1      -1.293  -0.951   0.988  0.00  0.00    -0.089 S 
BRANCH  33  34
ATOM     34  C   UNL     1      -2.528   0.265   1.306  0.00  0.00    +0.018 A 
ATOM     35  C   UNL     1      -3.034   0.425   2.590  0.00  0.00    +0.015 A 
ATOM     36  C   UNL     1      -4.001   1.379   2.836  0.00  0.00    +0.001 A 
ATOM     37  C   UNL     1      -4.468   2.174   1.805  0.00  0.00    +0.000 A 
ATOM     38  C   UNL     1      -3.967   2.018   0.525  0.00  0.00    +0.007 A 
ATOM     39  C   UNL     1      -2.996   1.069   0.274  0.00  0.00    -0.008 A 
BRANCH  39  40
ATOM     40  C   UNL     1      -2.447   0.903  -1.120  0.00  0.00    +0.192 C 
BRANCH  40  41
ATOM     41  O   UNL     1      -3.081   1.837  -1.996  0.00  0.00    -0.390 OA
ATOM     42  H   UNL     1      -2.776   1.787  -2.912  0.00  0.00    +0.210 HD
ENDBRANCH  40  41
ENDBRANCH  39  40
ENDBRANCH  33  34
ENDBRANCH  30  33
ENDBRANCH  26  31
ENDBRANCH   1  26
TORSDOF 10
