REMARK  Name = ZINC67293030
REMARK  5 active torsions:
REMARK  status: ('A' for Active; 'I' for Inactive)
REMARK    1  A    between atoms: C_1  and  C_2
REMARK    2  A    between atoms: C_7  and  N_8
REMARK    3  A    between atoms: C_10  and  C_20
REMARK    4  A    between atoms: N_22  and  C_23
REMARK    5  A    between atoms: C_23  and  C_24
REMARK                            x       y       z     vdW  Elec       q    Type
REMARK                         _______ _______ _______ _____ _____    ______ ____
ROOT
ATOM      1  N   UNL     1      -0.038  -0.007   2.390  0.00  0.00    -0.325 N 
ATOM      2  C   UNL     1      -0.102  -0.683   3.517  0.00  0.00    +0.212 A 
ATOM      3  C   UNL     1      -0.186   0.011   4.817  0.00  0.00    +0.097 A 
ATOM      4  C   UNL     1      -0.802  -0.670   5.859  0.00  0.00    +0.030 A 
ATOM      5  C   UNL     1      -1.312  -2.014   5.576  0.00  0.00    +0.020 A 
ATOM      6  C   UNL     1      -2.171  -2.658   6.474  0.00  0.00    +0.031 A 
ATOM      7  C   UNL     1      -2.639  -3.920   6.183  0.00  0.00    +0.042 A 
ATOM      8  C   UNL     1      -2.263  -4.553   5.005  0.00  0.00    +0.023 A 
ATOM      9  C   UNL     1      -1.416  -3.931   4.111  0.00  0.00    +0.048 A 
ATOM     10  C   UNL     1      -0.931  -2.661   4.385  0.00  0.00    +0.138 A 
ATOM     11  O   UNL     1      -0.098  -2.041   3.519  0.00  0.00    -0.439 OA
ATOM     12 CL   UNL     1      -3.703  -4.724   7.293  0.00  0.00    -0.084 Cl
ATOM     13  H   UNL     1      -0.034   0.963   2.406  0.00  0.00    +0.169 HD
ENDROOT
BRANCH   1  20
ATOM     14  C   UNL     1      -1.891   0.738   0.370  0.00  0.00    +0.046 C 
ATOM     15  C   UNL     1      -0.864  -0.346   0.167  0.00  0.00    -0.027 A 
ATOM     16  C   UNL     1      -0.795  -1.016  -1.037  0.00  0.00    +0.008 A 
ATOM     17  C   UNL     1       0.146  -2.012  -1.226  0.00  0.00    +0.039 A 
ATOM     18  C   UNL     1       1.026  -2.344  -0.207  0.00  0.00    +0.125 A 
ATOM     19  C   UNL     1       0.967  -1.682   1.003  0.00  0.00    +0.064 A 
ATOM     20  C   UNL     1       0.022  -0.671   1.196  0.00  0.00    +0.048 A 
ATOM     21  F   UNL     1       1.942  -3.318  -0.400  0.00  0.00    -0.205 F 
ENDBRANCH   1  20
BRANCH   3  22
ATOM     22  C   UNL     1       0.359   1.367   5.001  0.00  0.00    +0.249 C 
ATOM     23  O   UNL     1       0.837   1.964   4.055  0.00  0.00    -0.270 OA
ATOM     24  N   UNL     1       0.328   1.946   6.218  0.00  0.00    -0.309 N 
ATOM     25  H   UNL     1      -0.107   1.496   6.959  0.00  0.00    +0.149 HD
BRANCH  24  26
ATOM     26  C   UNL     1       0.952   3.256   6.422  0.00  0.00    +0.136 C 
BRANCH  26  27
ATOM     27  C   UNL     1       0.777   3.683   7.880  0.00  0.00    +0.135 C 
ATOM     28  C   UNL     1       1.324   5.113   8.077  0.00  0.00    +0.035 C 
ATOM     29  C   UNL     1       2.010   5.015   9.467  0.00  0.00    +0.031 C 
ATOM     30  C   UNL     1       2.535   3.558   9.434  0.00  0.00    +0.160 C 
ATOM     31  O   UNL     1       1.525   2.810   8.735  0.00  0.00    -0.375 OA
ENDBRANCH  26  27
ENDBRANCH  24  26
ENDBRANCH   3  22
TORSDOF 4
