REMARK  Name = ZINC04847688
REMARK  9 active torsions:
REMARK  status: ('A' for Active; 'I' for Inactive)
REMARK    1  A    between atoms: C_1  and  C_2
REMARK    2  A    between atoms: N_5  and  C_8
REMARK    3  A    between atoms: C_8  and  C_10
REMARK    4  A    between atoms: C_8  and  C_19
REMARK    5  A    between atoms: C_13  and  N_16
REMARK    6  A    between atoms: N_16  and  C_17
REMARK    7  A    between atoms: N_16  and  C_18
REMARK    8  A    between atoms: N_23  and  C_24
REMARK    9  A    between atoms: C_24  and  C_25
REMARK                            x       y       z     vdW  Elec       q    Type
REMARK                         _______ _______ _______ _____ _____    ______ ____
ROOT
ATOM      1  C   UNL     1      -0.750  -3.952   1.419  0.00  0.00    +0.033 C 
ENDROOT
BRANCH   1   6
ATOM      2  C   UNL     1      -0.019   1.526   0.010  0.00  0.00    +0.007 C 
ATOM      3  C   UNL     1       0.002  -0.004   0.002  0.00  0.00    -0.018 C 
ATOM      4  C   UNL     1      -1.434  -0.536   0.023  0.00  0.00    -0.015 C 
ATOM      5  C   UNL     1      -1.405  -2.064   0.095  0.00  0.00    -0.077 C 
ATOM      6  N   UNL     1      -0.707  -2.487   1.315  0.00  0.00    +0.389 N 
ATOM      7  C   UNL     1       0.691  -2.042   1.269  0.00  0.00    -0.077 C 
ATOM      8  C   UNL     1       0.743  -0.513   1.242  0.00  0.00    -0.015 C 
ATOM      9  H   UNL     1      -1.162  -2.082   2.119  0.00  0.00    -0.080 HD
ENDBRANCH   1   6
BRANCH   1  10
ATOM     10  C   UNL     1      -2.185  -4.410   1.475  0.00  0.00    -0.054 A 
ATOM     11  C   UNL     1      -3.110  -3.689   2.208  0.00  0.00    +0.004 A 
ATOM     12  C   UNL     1      -4.426  -4.106   2.262  0.00  0.00    +0.023 A 
ATOM     13  C   UNL     1      -4.819  -5.250   1.579  0.00  0.00    +0.029 A 
ATOM     14  C   UNL     1      -3.887  -5.971   0.844  0.00  0.00    +0.023 A 
ATOM     15  C   UNL     1      -2.574  -5.546   0.789  0.00  0.00    +0.004 A 
BRANCH  13  16
ATOM     16  N   UNL     1      -6.149  -5.675   1.632  0.00  0.00    -0.336 N 
ATOM     17  C   UNL     1      -7.130  -4.913   2.408  0.00  0.00    +0.129 C 
ATOM     18  C   UNL     1      -6.561  -6.881   0.911  0.00  0.00    +0.129 C 
ENDBRANCH  13  16
ENDBRANCH   1  10
BRANCH   1  19
ATOM     19  C   UNL     1      -0.034  -4.388   2.671  0.00  0.00    +0.143 A 
ATOM     20  N   UNL     1      -0.156  -3.862   3.865  0.00  0.00    -0.115 NA
ATOM     21  N   UNL     1       0.617  -4.510   4.666  0.00  0.00    -0.023 NA
ATOM     22  N   UNL     1       1.229  -5.436   4.014  0.00  0.00    -0.044 NA
ATOM     23  N   UNL     1       0.850  -5.396   2.781  0.00  0.00    -0.226 N 
BRANCH  23  24
ATOM     24  C   UNL     1       1.300  -6.281   1.704  0.00  0.00    +0.182 C 
BRANCH  24  25
ATOM     25  C   UNL     1       2.516  -5.686   1.040  0.00  0.00    -0.026 A 
ATOM     26  C   UNL     1       2.367  -4.827  -0.032  0.00  0.00    +0.005 A 
ATOM     27  C   UNL     1       3.482  -4.281  -0.641  0.00  0.00    +0.000 A 
ATOM     28  C   UNL     1       4.746  -4.594  -0.176  0.00  0.00    +0.000 A 
ATOM     29  C   UNL     1       4.894  -5.452   0.897  0.00  0.00    +0.000 A 
ATOM     30  C   UNL     1       3.779  -5.995   1.508  0.00  0.00    +0.005 A 
ENDBRANCH  24  25
ENDBRANCH  23  24
ENDBRANCH   1  19
TORSDOF 6
