REMARK  Name = ZINC34747804
REMARK  6 active torsions:
REMARK  status: ('A' for Active; 'I' for Inactive)
REMARK    1  A    between atoms: C_1  and  C_2
REMARK    2  A    between atoms: C_2  and  C_3
REMARK    3  A    between atoms: C_2  and  C_4
REMARK    4  A    between atoms: C_4  and  N_5
REMARK    5  A    between atoms: N_23  and  C_24
REMARK    6  A    between atoms: C_24  and  C_25
REMARK                            x       y       z     vdW  Elec       q    Type
REMARK                         _______ _______ _______ _____ _____    ______ ____
ROOT
ATOM      1  N   UNL     1      -1.165  -1.932  -0.173  0.00  0.00    +0.382 N 
ATOM      2  C   UNL     1      -0.546  -2.526   1.018  0.00  0.00    -0.060 C 
ATOM      3  C   UNL     1      -0.299  -4.019   0.773  0.00  0.00    +0.089 C 
ATOM      4  N   UNL     1      -1.570  -4.642   0.374  0.00  0.00    -0.304 N 
ATOM      5  C   UNL     1      -2.341  -4.013  -0.708  0.00  0.00    +0.089 C 
ATOM      6  C   UNL     1      -2.492  -2.521  -0.393  0.00  0.00    -0.060 C 
ATOM      7  C   UNL     1      -2.023  -5.780   0.995  0.00  0.00    +0.202 A 
ATOM      8  N   UNL     1      -2.727  -5.678   2.103  0.00  0.00    -0.208 NA
ATOM      9  C   UNL     1      -3.178  -6.763   2.723  0.00  0.00    +0.117 A 
ATOM     10  C   UNL     1      -2.932  -8.055   2.237  0.00  0.00    +0.076 A 
ATOM     11  C   UNL     1      -3.494  -9.161   3.030  0.00  0.00    -0.023 A 
ATOM     12  C   UNL     1      -4.184  -8.829   4.132  0.00  0.00    -0.004 A 
ATOM     13  S   UNL     1      -4.132  -7.052   4.190  0.00  0.00    -0.073 S 
ATOM     14  C   UNL     1      -4.715 -10.037   4.857  0.00  0.00    +0.043 C 
ATOM     15  C   UNL     1      -4.626 -11.180   3.821  0.00  0.00    +0.010 C 
ATOM     16  C   UNL     1      -3.486 -10.688   2.909  0.00  0.00    +0.037 C 
ATOM     17  C   UNL     1      -2.165  -8.137   1.032  0.00  0.00    +0.264 A 
ATOM     18  O   UNL     1      -1.903  -9.220   0.537  0.00  0.00    -0.267 OA
ATOM     19  N   UNL     1      -1.742  -6.999   0.451  0.00  0.00    -0.271 N 
ATOM     20  H   UNL     1      -0.582  -2.109  -0.977  0.00  0.00    -0.082 HD
ENDROOT
BRANCH   1  21
ATOM     21  C   UNL     1      -1.301  -0.482   0.021  0.00  0.00    -0.076 C 
BRANCH  21  23
ATOM     22  C   UNL     1      -2.072   1.647  -1.035  0.00  0.00    +0.005 C 
ATOM     23  C   UNL     1      -1.801   0.161  -1.275  0.00  0.00    -0.034 C 
ATOM     24  C   UNL     1      -0.739   0.005  -2.365  0.00  0.00    +0.005 C 
ENDBRANCH  21  23
ENDBRANCH   1  21
BRANCH  19  25
ATOM     25  C   UNL     1      -0.961  -7.071  -0.786  0.00  0.00    +0.223 C 
BRANCH  25  26
ATOM     26  C   UNL     1       0.494  -7.274  -0.451  0.00  0.00    +0.230 C 
ATOM     27  O   UNL     1       0.844  -7.352   0.708  0.00  0.00    -0.274 OA
ATOM     28  N   UNL     1       1.406  -7.371  -1.438  0.00  0.00    -0.328 N 
ATOM     29  H   UNL     1       1.126  -7.309  -2.365  0.00  0.00    +0.145 HD
ATOM     30  H   UNL     1       2.343  -7.502  -1.222  0.00  0.00    +0.145 HD
ENDBRANCH  25  26
ENDBRANCH  19  25
TORSDOF 4
