REMARK  Name = ZINC01016717
REMARK  5 active torsions:
REMARK  status: ('A' for Active; 'I' for Inactive)
REMARK    1  A    between atoms: C_4  and  C_7
REMARK    2  A    between atoms: N_12  and  C_14
REMARK    3  A    between atoms: C_14  and  C_15
REMARK    4  A    between atoms: N_19  and  C_27
REMARK    5  A    between atoms: C_20  and  C_21
REMARK                            x       y       z     vdW  Elec       q    Type
REMARK                         _______ _______ _______ _____ _____    ______ ____
ROOT
ATOM      1  C   UNL     1      -3.448  -0.880  -1.257  0.00  0.00    +0.103 A 
ATOM      2  C   UNL     1      -4.071  -1.401  -0.039  0.00  0.00    +0.061 A 
ATOM      3  C   UNL     1      -3.666  -0.826   1.254  0.00  0.00    +0.161 A 
ATOM      4  C   UNL     1      -2.652   0.236   1.230  0.00  0.00    +0.296 A 
ATOM      5  O   UNL     1      -2.270   0.751   2.265  0.00  0.00    -0.264 OA
ATOM      6  N   UNL     1      -2.155   0.635   0.041  0.00  0.00    -0.218 N 
ATOM      7  N   UNL     1      -2.555   0.074  -1.170  0.00  0.00    -0.167 NA
ATOM      8  N   UNL     1      -4.359  -1.456   2.172  0.00  0.00    -0.160 NA
ATOM      9  N   UNL     1      -5.135  -2.336   1.646  0.00  0.00    -0.231 N 
ATOM     10  C   UNL     1      -5.014  -2.362   0.287  0.00  0.00    +0.085 A 
ENDROOT
BRANCH   9  11
ATOM     11  C   UNL     1      -5.996  -3.165   2.376  0.00  0.00    +0.066 A 
ATOM     12  C   UNL     1      -7.232  -3.519   1.850  0.00  0.00    +0.029 A 
ATOM     13  C   UNL     1      -8.077  -4.340   2.570  0.00  0.00    +0.022 A 
ATOM     14  C   UNL     1      -7.698  -4.801   3.819  0.00  0.00    +0.041 A 
ATOM     15  C   UNL     1      -6.469  -4.446   4.347  0.00  0.00    +0.022 A 
ATOM     16  C   UNL     1      -5.618  -3.629   3.629  0.00  0.00    +0.029 A 
ATOM     17 CL   UNL     1      -8.766  -5.828   4.724  0.00  0.00    -0.084 Cl
ENDBRANCH   9  11
BRANCH   1  21
ATOM     18  C   UNL     1      -4.530  -2.453  -5.054  0.00  0.00    +0.000 A 
ATOM     19  C   UNL     1      -4.476  -1.083  -4.866  0.00  0.00    +0.001 A 
ATOM     20  C   UNL     1      -4.125  -0.567  -3.635  0.00  0.00    +0.010 A 
ATOM     21  C   UNL     1      -3.825  -1.428  -2.581  0.00  0.00    +0.003 A 
ATOM     22  C   UNL     1      -3.876  -2.807  -2.778  0.00  0.00    +0.010 A 
ATOM     23  C   UNL     1      -4.234  -3.312  -4.012  0.00  0.00    +0.001 A 
ENDBRANCH   1  21
BRANCH  10  24
ATOM     24  C   UNL     1      -5.744  -3.239  -0.650  0.00  0.00    +0.001 A 
ATOM     25  C   UNL     1      -6.502  -2.685  -1.684  0.00  0.00    +0.010 A 
ATOM     26  C   UNL     1      -7.177  -3.510  -2.559  0.00  0.00    +0.001 A 
ATOM     27  C   UNL     1      -7.113  -4.884  -2.407  0.00  0.00    +0.000 A 
ATOM     28  C   UNL     1      -6.368  -5.440  -1.382  0.00  0.00    +0.001 A 
ATOM     29  C   UNL     1      -5.684  -4.627  -0.503  0.00  0.00    +0.010 A 
ENDBRANCH  10  24
BRANCH   6  30
ATOM     30  C   UNL     1      -1.147   1.698   0.023  0.00  0.00    +0.242 C 
BRANCH  30  31
ATOM     31  C   UNL     1       0.227   1.089   0.127  0.00  0.00    +0.232 C 
ATOM     32  O   UNL     1       0.353  -0.115   0.208  0.00  0.00    -0.274 OA
ATOM     33  N   UNL     1       1.317   1.882   0.124  0.00  0.00    -0.328 N 
ATOM     34  H   UNL     1       2.202   1.490   0.188  0.00  0.00    +0.145 HD
ATOM     35  H   UNL     1       1.217   2.844   0.059  0.00  0.00    +0.145 HD
ENDBRANCH  30  31
ENDBRANCH   6  30
TORSDOF 5
