REMARK  Name = ZINC12446857
REMARK  9 active torsions:
REMARK  status: ('A' for Active; 'I' for Inactive)
REMARK    1  A    between atoms: C_1  and  C_2
REMARK    2  A    between atoms: C_2  and  C_3
REMARK    3  A    between atoms: C_3  and  C_5
REMARK    4  A    between atoms: C_3  and  N_64
REMARK    5  A    between atoms: C_8  and  C_11
REMARK    6  A    between atoms: C_12  and  C_13
REMARK    7  A    between atoms: C_12  and  N_64
REMARK    8  A    between atoms: C_14  and  C_23
REMARK    9  A    between atoms: C_20  and  C_22
REMARK                            x       y       z     vdW  Elec       q    Type
REMARK                         _______ _______ _______ _____ _____    ______ ____
ROOT
ATOM      1  C   UNL     1       2.792   6.165   0.772  0.00  0.00    +0.039 A 
ATOM      2  C   UNL     1       1.724   5.313   0.754  0.00  0.00    +0.146 A 
ATOM      3  N   UNL     1       1.037   5.479   1.899  0.00  0.00    -0.223 NA
ATOM      4  C   UNL     1       1.633   6.406   2.630  0.00  0.00    +0.139 A 
ATOM      5  N   UNL     1       2.734   6.856   1.944  0.00  0.00    -0.305 N 
ATOM      6  C   UNL     1       3.534   7.825   2.481  0.00  0.00    +0.093 A 
ATOM      7  C   UNL     1       3.256   8.354   3.689  0.00  0.00    +0.021 A 
ATOM      8  C   UNL     1       2.135   7.915   4.416  0.00  0.00    -0.046 A 
ATOM      9  C   UNL     1       1.330   6.952   3.896  0.00  0.00    +0.050 A 
ATOM     10  C   UNL     1       1.828   8.511   5.766  0.00  0.00    +0.044 C 
ENDROOT
BRANCH   2  11
ATOM     11  C   UNL     1       1.386   4.370  -0.330  0.00  0.00    +0.267 C 
ATOM     12  O   UNL     1       2.145   4.226  -1.269  0.00  0.00    -0.268 OA
ATOM     13  N   UNL     1       0.236   3.669  -0.279  0.00  0.00    -0.296 N 
ATOM     14  C   UNL     1      -0.106   2.789  -1.413  0.00  0.00    +0.108 C 
ATOM     15  C   UNL     1      -0.674   1.436  -0.947  0.00  0.00    +0.019 C 
ATOM     16  C   UNL     1       0.093   0.937   0.253  0.00  0.00    +0.002 C 
ATOM     17  C   UNL     1      -0.592   1.417   1.528  0.00  0.00    +0.002 C 
ATOM     18  C   UNL     1      -0.201   2.768   1.954  0.00  0.00    +0.019 C 
ATOM     19  C   UNL     1      -0.610   3.810   0.884  0.00  0.00    +0.108 C 
ENDBRANCH   2  11
BRANCH   1  20
ATOM     20  C   UNL     1       3.836   6.314  -0.305  0.00  0.00    -0.025 C 
BRANCH  20  21
ATOM     21  N   UNL     1       4.944   5.378  -0.036  0.00  0.00    +0.387 N 
ATOM     22  H   UNL     1       5.300   5.538   0.913  0.00  0.00    -0.085 HD
ATOM     23  H   UNL     1       4.600   4.414  -0.115  0.00  0.00    -0.085 HD
BRANCH  21  24
ATOM     24  C   UNL     1       6.036   5.585  -1.007  0.00  0.00    -0.041 C 
BRANCH  24  25
ATOM     25  C   UNL     1       6.897   4.349  -1.053  0.00  0.00    -0.061 A 
ATOM     26  C   UNL     1       7.201   3.675   0.115  0.00  0.00    +0.002 A 
ATOM     27  C   UNL     1       7.987   2.538   0.072  0.00  0.00    +0.003 A 
ATOM     28  C   UNL     1       8.478   2.082  -1.137  0.00  0.00    -0.050 A 
ATOM     29  C   UNL     1       8.178   2.760  -2.304  0.00  0.00    +0.003 A 
ATOM     30  C   UNL     1       7.388   3.893  -2.262  0.00  0.00    +0.002 A 
ATOM     31  C   UNL     1       9.339   0.847  -1.183  0.00  0.00    +0.044 C 
ENDBRANCH  24  25
BRANCH  24  33
ATOM     32  C   UNL     1       7.932   7.079  -1.649  0.00  0.00    +0.002 C 
ATOM     33  C   UNL     1       6.884   6.782  -0.575  0.00  0.00    -0.015 C 
ENDBRANCH  24  33
ENDBRANCH  21  24
ENDBRANCH  20  21
ENDBRANCH   1  20
TORSDOF 6
