REMARK  Name = ZINC21526059
REMARK  10 active torsions:
REMARK  status: ('A' for Active; 'I' for Inactive)
REMARK    1  A    between atoms: C_1  and  C_2
REMARK    2  A    between atoms: C_2  and  C_3
REMARK    3  A    between atoms: C_12  and  C_27
REMARK    4  A    between atoms: C_12  and  C_28
REMARK    5  A    between atoms: N_13  and  C_16
REMARK    6  A    between atoms: C_16  and  C_17
REMARK    7  A    between atoms: C_17  and  C_18
REMARK    8  A    between atoms: C_18  and  N_19
REMARK    9  A    between atoms: C_24  and  C_26
REMARK   10  A    between atoms: N_30  and  C_31
REMARK                            x       y       z     vdW  Elec       q    Type
REMARK                         _______ _______ _______ _____ _____    ______ ____
ROOT
ATOM      1  C   UNL     1      -1.326   0.601  -5.423  0.00  0.00    -0.008 A 
ATOM      2  C   UNL     1      -1.883   1.100  -4.300  0.00  0.00    +0.037 A 
ATOM      3  C   UNL     1      -1.075   1.462  -3.212  0.00  0.00    +0.057 A 
ATOM      4  C   UNL     1       0.303   1.263  -3.387  0.00  0.00    +0.038 A 
ATOM      5  S   UNL     1       0.415   0.599  -5.028  0.00  0.00    -0.092 S 
ATOM      6  C   UNL     1       0.979   1.656  -2.238  0.00  0.00    +0.048 A 
ATOM      7  C   UNL     1       0.042   2.088  -1.348  0.00  0.00    +0.106 A 
ATOM      8  N   UNL     1      -1.213   1.989  -1.941  0.00  0.00    -0.333 N 
ATOM      9  C   UNL     1      -2.432   2.414  -1.248  0.00  0.00    +0.157 C 
ATOM     10  C   UNL     1      -2.235   2.240   0.258  0.00  0.00    +0.128 C 
ATOM     11  N   UNL     1      -0.959   2.771   0.722  0.00  0.00    -0.281 N 
ATOM     12  C   UNL     1       0.186   2.610   0.017  0.00  0.00    +0.264 C 
ATOM     13  O   UNL     1       1.274   2.884   0.488  0.00  0.00    -0.268 OA
ATOM     14  C   UNL     1      -3.367   2.964   0.990  0.00  0.00    +0.043 C 
ENDROOT
BRANCH  10  15
ATOM     15  C   UNL     1      -2.301   0.772   0.592  0.00  0.00    +0.238 C 
ATOM     16  O   UNL     1      -3.359   0.268   0.904  0.00  0.00    -0.273 OA
ATOM     17  N   UNL     1      -1.185   0.018   0.542  0.00  0.00    -0.311 N 
ATOM     18  H   UNL     1      -0.225   0.475   0.259  0.00  0.00    +0.149 HD
BRANCH  17  19
ATOM     19  C   UNL     1      -1.249  -1.409   0.866  0.00  0.00    +0.073 C 
ATOM     20  C   UNL     1      -1.124  -1.594   2.380  0.00  0.00    +0.022 C 
ATOM     21  C   UNL     1      -1.191  -3.085   2.718  0.00  0.00    +0.002 C 
ATOM     22  C   UNL     1      -0.046  -3.819   2.017  0.00  0.00    +0.000 C 
ATOM     23  C   UNL     1      -0.172  -3.634   0.504  0.00  0.00    +0.002 C 
ATOM     24  C   UNL     1      -0.104  -2.143   0.166  0.00  0.00    +0.022 C 
ENDBRANCH  17  19
ENDBRANCH  10  15
BRANCH   1  26
ATOM     25  C   UNL     1      -2.111   1.340  -7.656  0.00  0.00    +0.009 C 
ATOM     26  C   UNL     1      -2.004   0.156  -6.693  0.00  0.00    +0.039 C 
ENDBRANCH   1  26
BRANCH  11  27
ATOM     27  C   UNL     1      -0.913   3.502   1.991  0.00  0.00    +0.107 C 
BRANCH  27  28
ATOM     28  C   UNL     1      -0.638   2.522   3.134  0.00  0.00    +0.000 C 
BRANCH  28  29
ATOM     29  C   UNL     1      -0.590   3.285   4.459  0.00  0.00    -0.077 C 
BRANCH  29  30
ATOM     30  N   UNL     1      -0.327   2.344   5.556  0.00  0.00    +0.381 N 
ATOM     31  C   UNL     1       1.033   1.797   5.464  0.00  0.00    -0.078 C 
ATOM     32  C   UNL     1       1.222   0.717   6.532  0.00  0.00    -0.019 C 
ATOM     33  C   UNL     1       0.991   1.329   7.917  0.00  0.00    -0.003 C 
ATOM     34  C   UNL     1      -0.414   1.935   7.970  0.00  0.00    -0.016 C 
ATOM     35  C   UNL     1      -0.556   2.979   6.860  0.00  0.00    -0.072 C 
ATOM     36  C   UNL     1      -1.966   3.573   6.897  0.00  0.00    -0.013 C 
ATOM     37  H   UNL     1      -1.033   1.506   5.462  0.00  0.00    -0.081 HD
ENDBRANCH  29  30
ENDBRANCH  28  29
ENDBRANCH  27  28
ENDBRANCH  11  27
TORSDOF 7
