REMARK  Name = ZINC40286590
REMARK  10 active torsions:
REMARK  status: ('A' for Active; 'I' for Inactive)
REMARK    1  A    between atoms: C_1  and  C_2
REMARK    2  A    between atoms: C_2  and  N_3
REMARK    3  A    between atoms: C_10  and  C_13
REMARK    4  A    between atoms: C_10  and  N_25
REMARK    5  A    between atoms: C_13  and  C_15
REMARK    6  A    between atoms: C_13  and  O_24
REMARK    7  A    between atoms: C_18  and  N_21
REMARK    8  A    between atoms: N_21  and  C_22
REMARK    9  A    between atoms: N_21  and  C_23
REMARK   10  A    between atoms: C_26  and  C_28
REMARK                            x       y       z     vdW  Elec       q    Type
REMARK                         _______ _______ _______ _____ _____    ______ ____
ROOT
ATOM      1  N   UNL     1       0.687  -0.518  -1.205  0.00  0.00    -0.269 N 
ATOM      2  C   UNL     1       0.045  -0.764  -2.419  0.00  0.00    +0.042 A 
ATOM      3  C   UNL     1      -1.297  -0.657  -2.779  0.00  0.00    +0.025 A 
ATOM      4  C   UNL     1      -1.697  -0.962  -4.063  0.00  0.00    +0.017 A 
ATOM      5  C   UNL     1      -0.772  -1.378  -5.003  0.00  0.00    +0.018 A 
ATOM      6  C   UNL     1       0.564  -1.487  -4.654  0.00  0.00    +0.023 A 
ATOM      7  C   UNL     1       0.965  -1.182  -3.372  0.00  0.00    +0.010 A 
ATOM      8  C   UNL     1       2.311  -1.197  -2.686  0.00  0.00    +0.169 C 
ATOM      9  C   UNL     1       2.010  -0.741  -1.274  0.00  0.00    +0.251 C 
ATOM     10  O   UNL     1       2.812  -0.603  -0.375  0.00  0.00    -0.272 OA
ATOM     11 BR   UNL     1      -1.329  -1.796  -6.761  0.00  0.00    -0.050 Br
ENDROOT
BRANCH   8  12
ATOM     12  N   UNL     1       2.871  -2.551  -2.683  0.00  0.00    -0.296 N 
ATOM     13  C   UNL     1       2.196  -3.558  -2.092  0.00  0.00    +0.211 C 
ATOM     14  O   UNL     1       1.127  -3.342  -1.563  0.00  0.00    -0.276 OA
ATOM     15  C   UNL     1       2.772  -4.951  -2.089  0.00  0.00    +0.109 C 
ATOM     16  H   UNL     1       3.726  -2.724  -3.107  0.00  0.00    +0.150 HD
ENDBRANCH   8  12
BRANCH   1  18
ATOM     17  C   UNL     1      -0.031   1.468   0.030  0.00  0.00    +0.025 C 
ATOM     18  C   UNL     1      -0.002  -0.062   0.005  0.00  0.00    +0.110 C 
ENDBRANCH   1  18
BRANCH   8  19
ATOM     19  C   UNL     1       3.272  -0.221  -3.368  0.00  0.00    +0.181 C 
BRANCH  19  20
ATOM     20  C   UNL     1       4.639  -0.343  -2.745  0.00  0.00    -0.016 A 
ATOM     21  C   UNL     1       4.906   0.279  -1.540  0.00  0.00    +0.008 A 
ATOM     22  C   UNL     1       6.158   0.169  -0.967  0.00  0.00    +0.023 A 
ATOM     23  C   UNL     1       7.149  -0.569  -1.603  0.00  0.00    +0.029 A 
ATOM     24  C   UNL     1       6.876  -1.193  -2.813  0.00  0.00    +0.023 A 
ATOM     25  C   UNL     1       5.621  -1.083  -3.378  0.00  0.00    +0.008 A 
BRANCH  23  26
ATOM     26  N   UNL     1       8.416  -0.682  -1.026  0.00  0.00    -0.336 N 
ATOM     27  C   UNL     1       8.740   0.077   0.184  0.00  0.00    +0.129 C 
ATOM     28  C   UNL     1       9.420  -1.560  -1.631  0.00  0.00    +0.129 C 
ENDBRANCH  23  26
ENDBRANCH  19  20
BRANCH  19  29
ATOM     29  O   UNL     1       2.791   1.115  -3.201  0.00  0.00    -0.384 OA
ATOM     30  H   UNL     1       2.710   1.391  -2.278  0.00  0.00    +0.210 HD
ENDBRANCH  19  29
ENDBRANCH   8  19
TORSDOF 6
