REMARK  Name = ZINC40267040
REMARK  9 active torsions:
REMARK  status: ('A' for Active; 'I' for Inactive)
REMARK    1  A    between atoms: C_1  and  O_2
REMARK    2  A    between atoms: O_2  and  C_3
REMARK    3  A    between atoms: C_3  and  C_5
REMARK    4  A    between atoms: C_5  and  C_6
REMARK    5  A    between atoms: C_6  and  C_7
REMARK    6  A    between atoms: C_7  and  C_8
REMARK    7  A    between atoms: C_8  and  C_9
REMARK    8  A    between atoms: C_9  and  N_10
REMARK    9  A    between atoms: C_22  and  C_24
REMARK                            x       y       z     vdW  Elec       q    Type
REMARK                         _______ _______ _______ _____ _____    ______ ____
ROOT
ATOM      1  N   UNL     1       2.754  -9.063   4.229  0.00  0.00    -0.299 N 
ATOM      2  C   UNL     1       3.101  -8.005   4.990  0.00  0.00    +0.303 C 
ATOM      3  O   UNL     1       2.920  -6.876   4.578  0.00  0.00    -0.253 OA
ATOM      4  N   UNL     1       3.648  -8.200   6.206  0.00  0.00    -0.273 N 
ATOM      5  C   UNL     1       3.922  -7.066   7.100  0.00  0.00    +0.116 C 
ATOM      6  C   UNL     1       5.436  -6.953   7.322  0.00  0.00    +0.076 C 
ATOM      7  C   UNL     1       5.990  -8.328   7.603  0.00  0.00    +0.066 A 
ATOM      8  C   UNL     1       5.351  -9.481   7.312  0.00  0.00    +0.064 A 
ATOM      9  N   UNL     1       6.161 -10.501   7.705  0.00  0.00    -0.346 N 
ATOM     10  H   UNL     1       5.975 -11.450   7.625  0.00  0.00    +0.167 HD
ATOM     11  C   UNL     1       7.275  -9.940   8.230  0.00  0.00    +0.197 A 
ATOM     12  N   UNL     1       7.162  -8.639   8.164  0.00  0.00    -0.240 NA
ATOM     13  C   UNL     1       3.981  -9.557   6.677  0.00  0.00    +0.156 C 
ATOM     14  H   UNL     1       2.964  -9.963   4.525  0.00  0.00    +0.150 HD
ENDROOT
BRANCH  13  15
ATOM     15  C   UNL     1       2.964 -10.012   7.692  0.00  0.00    -0.021 A 
ATOM     16  C   UNL     1       2.837  -9.338   8.892  0.00  0.00    +0.007 A 
ATOM     17  C   UNL     1       1.905  -9.755   9.824  0.00  0.00    +0.020 A 
ATOM     18  C   UNL     1       1.099 -10.846   9.555  0.00  0.00    +0.041 A 
ATOM     19  C   UNL     1       1.226 -11.520   8.353  0.00  0.00    +0.020 A 
ATOM     20  C   UNL     1       2.155 -11.099   7.420  0.00  0.00    +0.007 A 
ATOM     21 CL   UNL     1      -0.072 -11.370  10.724  0.00  0.00    -0.084 Cl
ENDBRANCH  13  15
BRANCH   1  22
ATOM     22  C   UNL     1       2.061  -8.854   2.956  0.00  0.00    +0.106 C 
BRANCH  22  23
ATOM     23  C   UNL     1       1.786 -10.207   2.297  0.00  0.00    +0.019 C 
BRANCH  23  24
ATOM     24  C   UNL     1       1.062  -9.989   0.967  0.00  0.00    +0.002 C 
BRANCH  24  25
ATOM     25  C   UNL     1       0.786 -11.342   0.308  0.00  0.00    +0.011 C 
BRANCH  25  26
ATOM     26  C   UNL     1       0.063 -11.123  -1.022  0.00  0.00    +0.120 C 
BRANCH  26  27
ATOM     27  C   UNL     1      -0.209 -12.456  -1.671  0.00  0.00    +0.307 C 
ATOM     28  O   UNL     1       0.141 -13.476  -1.126  0.00  0.00    -0.251 OA
BRANCH  27  30
ATOM     29  C   UNL     1      -1.063 -13.807  -3.413  0.00  0.00    +0.280 C 
ATOM     30  O   UNL     1      -0.839 -12.510  -2.855  0.00  0.00    -0.468 OA
ENDBRANCH  27  30
ENDBRANCH  26  27
ENDBRANCH  25  26
ENDBRANCH  24  25
ENDBRANCH  23  24
ENDBRANCH  22  23
ENDBRANCH   1  22
TORSDOF 8
