REMARK  Name = ZINC07973400
REMARK  7 active torsions:
REMARK  status: ('A' for Active; 'I' for Inactive)
REMARK    1  A    between atoms: C_1  and  C_2
REMARK    2  A    between atoms: C_9  and  N_14
REMARK    3  A    between atoms: C_10  and  C_11
REMARK    4  A    between atoms: C_15  and  C_17
REMARK    5  A    between atoms: C_18  and  C_26
REMARK    6  A    between atoms: C_26  and  O_27
REMARK    7  A    between atoms: O_27  and  C_28
REMARK                            x       y       z     vdW  Elec       q    Type
REMARK                         _______ _______ _______ _____ _____    ______ ____
ROOT
ATOM      1  N   UNL     1      -2.634   0.728   2.504  0.00  0.00    -0.273 N 
ATOM      2  C   UNL     1      -3.365   0.278   3.543  0.00  0.00    +0.284 C 
ATOM      3  O   UNL     1      -4.397  -0.335   3.340  0.00  0.00    -0.266 OA
ATOM      4  H   UNL     1      -1.811   1.216   2.666  0.00  0.00    +0.156 HD
ENDROOT
BRANCH   1  12
ATOM      5  C   UNL     1      -5.403  -0.739  -4.662  0.00  0.00    +0.008 C 
ATOM      6  C   UNL     1      -4.740  -0.021  -3.484  0.00  0.00    -0.009 C 
ATOM      7  C   UNL     1      -3.218  -0.087  -3.633  0.00  0.00    +0.008 C 
ATOM      8  C   UNL     1      -2.554   0.831  -2.605  0.00  0.00    +0.037 C 
ATOM      9  C   UNL     1      -3.100   0.495  -1.223  0.00  0.00    -0.023 A 
ATOM     10  C   UNL     1      -4.253  -0.194  -1.079  0.00  0.00    -0.004 A 
ATOM     11  S   UNL     1      -4.477  -0.342   0.671  0.00  0.00    -0.077 S 
ATOM     12  C   UNL     1      -3.057   0.494   1.206  0.00  0.00    +0.085 A 
ATOM     13  C   UNL     1      -2.447   0.874   0.018  0.00  0.00    +0.068 A 
ATOM     14  C   UNL     1      -5.139  -0.711  -2.171  0.00  0.00    +0.046 C 
BRANCH  13  15
ATOM     15  C   UNL     1      -1.187   1.624   0.017  0.00  0.00    +0.244 C 
ATOM     16  O   UNL     1      -1.204   2.841   0.023  0.00  0.00    -0.270 OA
ATOM     17  N   UNL     1      -0.011   0.966   0.007  0.00  0.00    -0.325 N 
ATOM     18  H   UNL     1       0.002  -0.004   0.002  0.00  0.00    +0.145 HD
ATOM     19  H   UNL     1       0.822   1.462   0.002  0.00  0.00    +0.145 HD
ENDBRANCH  13  15
ENDBRANCH   1  12
BRANCH   2  20
ATOM     20  C   UNL     1      -2.917   0.526   4.919  0.00  0.00    +0.196 A 
ATOM     21  C   UNL     1      -3.570   0.121   6.040  0.00  0.00    +0.036 A 
ATOM     22  C   UNL     1      -2.764   0.585   7.168  0.00  0.00    +0.026 A 
ATOM     23  C   UNL     1      -2.889   0.492   8.557  0.00  0.00    +0.012 A 
ATOM     24  C   UNL     1      -1.935   1.050   9.361  0.00  0.00    +0.001 A 
ATOM     25  C   UNL     1      -0.844   1.707   8.807  0.00  0.00    +0.004 A 
ATOM     26  C   UNL     1      -0.703   1.809   7.440  0.00  0.00    +0.047 A 
ATOM     27  C   UNL     1      -1.661   1.251   6.602  0.00  0.00    +0.136 A 
ATOM     28  O   UNL     1      -1.790   1.185   5.262  0.00  0.00    -0.450 OA
BRANCH  21  29
ATOM     29  C   UNL     1      -4.863  -0.650   6.106  0.00  0.00    +0.199 C 
BRANCH  29  30
ATOM     30  O   UNL     1      -4.582  -2.051   6.111  0.00  0.00    -0.378 OA
ATOM     31  C   UNL     1      -5.747  -2.877   6.172  0.00  0.00    +0.194 C 
ENDBRANCH  29  30
ENDBRANCH  21  29
ENDBRANCH   2  20
TORSDOF 5
