REMARK  Name = ZINC42986655
REMARK  11 active torsions:
REMARK  status: ('A' for Active; 'I' for Inactive)
REMARK    1  A    between atoms: C_1  and  C_2
REMARK    2  A    between atoms: C_6  and  N_9
REMARK    3  A    between atoms: C_7  and  C_8
REMARK    4  A    between atoms: C_10  and  C_12
REMARK    5  A    between atoms: C_12  and  C_14
REMARK    6  A    between atoms: C_12  and  S_17
REMARK    7  A    between atoms: C_14  and  C_15
REMARK    8  A    between atoms: C_14  and  C_16
REMARK    9  A    between atoms: S_17  and  C_18
REMARK   10  A    between atoms: N_22  and  C_23
REMARK   11  A    between atoms: C_26  and  O_29
REMARK                            x       y       z     vdW  Elec       q    Type
REMARK                         _______ _______ _______ _____ _____    ______ ____
ROOT
ATOM      1  C   UNL     1      -0.129  -4.898   3.686  0.00  0.00    +0.143 C 
ENDROOT
BRANCH   1   3
ATOM      2  N   UNL     1       0.052  -2.797   2.393  0.00  0.00    -0.284 N 
ATOM      3  C   UNL     1      -0.031  -4.143   2.385  0.00  0.00    +0.231 C 
ATOM      4  O   UNL     1      -0.028  -4.745   1.333  0.00  0.00    -0.274 OA
ATOM      5  H   UNL     1       0.130  -2.321   3.234  0.00  0.00    +0.155 HD
BRANCH   2  11
ATOM      6  C   UNL     1       1.206   1.236  -0.172  0.00  0.00    +0.044 C 
ATOM      7  C   UNL     1       0.577  -0.131  -0.084  0.00  0.00    -0.046 A 
ATOM      8  C   UNL     1      -0.027  -0.686  -1.198  0.00  0.00    +0.004 A 
ATOM      9  C   UNL     1      -0.605  -1.940  -1.122  0.00  0.00    +0.002 A 
ATOM     10  C   UNL     1      -0.580  -2.642   0.067  0.00  0.00    +0.023 A 
ATOM     11  C   UNL     1       0.026  -2.088   1.187  0.00  0.00    +0.037 A 
ATOM     12  C   UNL     1       0.610  -0.831   1.106  0.00  0.00    -0.026 A 
ATOM     13  C   UNL     1       1.274  -0.228   2.317  0.00  0.00    +0.046 C 
ENDBRANCH   2  11
ENDBRANCH   1   3
BRANCH   1  14
ATOM     14  C   UNL     1      -1.590  -4.957   4.134  0.00  0.00    +0.005 C 
ATOM     15  C   UNL     1      -2.121  -3.535   4.329  0.00  0.00    +0.009 C 
ATOM     16  C   UNL     1      -2.423  -5.669   3.066  0.00  0.00    +0.009 C 
ENDBRANCH   1  14
BRANCH   1  17
ATOM     17  S   UNL     1       0.500  -6.584   3.453  0.00  0.00    -0.071 S 
BRANCH  17  18
ATOM     18  C   UNL     1       0.459  -7.281   5.071  0.00  0.00    +0.215 A 
ATOM     19  N   UNL     1       0.052  -6.683   6.170  0.00  0.00    -0.101 NA
ATOM     20  N   UNL     1       0.153  -7.474   7.177  0.00  0.00    -0.022 NA
ATOM     21  N   UNL     1       0.623  -8.616   6.806  0.00  0.00    -0.038 NA
ATOM     22  N   UNL     1       0.837  -8.537   5.418  0.00  0.00    -0.187 N 
BRANCH  22  23
ATOM     23  C   UNL     1       1.335  -9.541   4.574  0.00  0.00    +0.070 A 
ATOM     24  C   UNL     1       0.866  -9.649   3.272  0.00  0.00    +0.031 A 
ATOM     25  C   UNL     1       1.357 -10.637   2.442  0.00  0.00    +0.047 A 
ATOM     26  C   UNL     1       2.319 -11.521   2.908  0.00  0.00    +0.117 A 
ATOM     27  C   UNL     1       2.787 -11.414   4.210  0.00  0.00    +0.047 A 
ATOM     28  C   UNL     1       2.301 -10.423   5.039  0.00  0.00    +0.031 A 
BRANCH  26  29
ATOM     29  O   UNL     1       2.802 -12.494   2.091  0.00  0.00    -0.507 OA
ATOM     30  H   UNL     1       3.578 -12.228   1.579  0.00  0.00    +0.292 HD
ENDBRANCH  26  29
ENDBRANCH  22  23
ENDBRANCH  17  18
ENDBRANCH   1  17
TORSDOF 7
