REMARK  Name = ZINC59973614
REMARK  5 active torsions:
REMARK  status: ('A' for Active; 'I' for Inactive)
REMARK    1  A    between atoms: C_1  and  C_2
REMARK    2  A    between atoms: C_2  and  C_4
REMARK    3  A    between atoms: C_2  and  N_7
REMARK    4  A    between atoms: C_8  and  C_10
REMARK    5  A    between atoms: C_16  and  N_20
REMARK                            x       y       z     vdW  Elec       q    Type
REMARK                         _______ _______ _______ _____ _____    ______ ____
ROOT
ATOM      1  C   UNL     1       0.695  -1.082  -3.569  0.00  0.00    +0.103 A 
ATOM      2  C   UNL     1       0.119  -1.250  -4.788  0.00  0.00    +0.041 A 
ATOM      3  C   UNL     1       1.118  -1.718  -5.676  0.00  0.00    +0.002 A 
ATOM      4  C   UNL     1       1.113  -2.060  -7.036  0.00  0.00    +0.010 A 
ATOM      5  C   UNL     1       2.260  -2.492  -7.635  0.00  0.00    +0.002 A 
ATOM      6  C   UNL     1       3.440  -2.598  -6.910  0.00  0.00    +0.025 A 
ATOM      7  C   UNL     1       3.474  -2.267  -5.568  0.00  0.00    +0.049 A 
ATOM      8  C   UNL     1       2.309  -1.822  -4.936  0.00  0.00    +0.068 A 
ATOM      9  N   UNL     1       2.030  -1.423  -3.648  0.00  0.00    -0.349 N 
ATOM     10  H   UNL     1       2.667  -1.389  -2.917  0.00  0.00    +0.166 HD
ENDROOT
BRANCH   1  12
ATOM     11  N   UNL     1       0.688  -0.476  -1.203  0.00  0.00    -0.307 N 
ATOM     12  C   UNL     1       0.006  -0.608  -2.358  0.00  0.00    +0.261 C 
ATOM     13  O   UNL     1      -1.178  -0.335  -2.400  0.00  0.00    -0.269 OA
ATOM     14  H   UNL     1       1.632  -0.695  -1.170  0.00  0.00    +0.149 HD
BRANCH  11  16
ATOM     15  C   UNL     1      -0.019   1.526   0.010  0.00  0.00    +0.028 C 
ATOM     16  C   UNL     1       0.002  -0.004   0.002  0.00  0.00    +0.073 C 
BRANCH  16  17
ATOM     17  C   UNL     1       0.742  -0.511   1.242  0.00  0.00    +0.009 C 
ATOM     18  C   UNL     1       0.038  -1.559   2.105  0.00  0.00    +0.005 C 
ATOM     19  C   UNL     1       0.178  -0.122   2.610  0.00  0.00    +0.005 C 
ENDBRANCH  16  17
ENDBRANCH  11  16
ENDBRANCH   1  12
BRANCH   7  20
ATOM     20  N   UNL     1       4.667  -2.378  -4.847  0.00  0.00    -0.356 N 
ATOM     21  H   UNL     1       5.473  -2.687  -5.288  0.00  0.00    +0.142 HD
ATOM     22  H   UNL     1       4.688  -2.146  -3.905  0.00  0.00    +0.142 HD
ENDBRANCH   7  20
TORSDOF 4
