REMARK  Name = ZINC01099618
REMARK  7 active torsions:
REMARK  status: ('A' for Active; 'I' for Inactive)
REMARK    1  A    between atoms: C_1  and  C_2
REMARK    2  A    between atoms: C_2  and  C_4
REMARK    3  A    between atoms: C_2  and  N_11
REMARK    4  A    between atoms: N_11  and  N_12
REMARK    5  A    between atoms: C_13  and  C_15
REMARK    6  A    between atoms: C_15  and  N_51
REMARK    7  A    between atoms: N_18  and  C_21
REMARK                            x       y       z     vdW  Elec       q    Type
REMARK                         _______ _______ _______ _____ _____    ______ ____
ROOT
ATOM      1  N   UNL     1       5.285  -0.531   3.054  0.00  0.00    -0.252 N 
ATOM      2  C   UNL     1       4.379  -0.152   2.130  0.00  0.00    +0.210 C 
ATOM      3  O   UNL     1       4.723   0.530   1.188  0.00  0.00    -0.277 OA
ATOM      4  H   UNL     1       5.010  -1.077   3.807  0.00  0.00    +0.169 HD
ENDROOT
BRANCH   1   5
ATOM      5  N   UNL     1       6.590  -0.147   2.929  0.00  0.00    -0.234 NA
ATOM      6  H   UNL     1       6.995  -0.514   2.081  0.00  0.00    +0.145 HD
BRANCH   5   8
ATOM      7  C   UNL     1       6.743   0.051   5.365  0.00  0.00    +0.030 C 
ATOM      8  C   UNL     1       7.372  -0.549   4.105  0.00  0.00    +0.099 C 
BRANCH   8   9
ATOM      9  C   UNL     1       7.379  -2.052   4.214  0.00  0.00    -0.029 A 
ATOM     10  C   UNL     1       7.281  -2.655   5.454  0.00  0.00    +0.006 A 
ATOM     11  C   UNL     1       7.282  -4.034   5.553  0.00  0.00    +0.020 A 
ATOM     12  C   UNL     1       7.393  -4.810   4.413  0.00  0.00    +0.041 A 
ATOM     13  C   UNL     1       7.496  -4.205   3.173  0.00  0.00    +0.020 A 
ATOM     14  C   UNL     1       7.489  -2.826   3.074  0.00  0.00    +0.006 A 
ATOM     15 CL   UNL     1       7.402  -6.541   4.538  0.00  0.00    -0.084 Cl
ENDBRANCH   8   9
ENDBRANCH   5   8
ENDBRANCH   1   5
BRANCH   2  16
ATOM     16  C   UNL     1       2.940  -0.577   2.268  0.00  0.00    +0.020 C 
BRANCH  16  22
ATOM     17  C   UNL     1       0.812  -0.623   1.111  0.00  0.00    -0.059 C 
ATOM     18  C   UNL     1       0.063  -0.100  -0.117  0.00  0.00    +0.086 C 
ATOM     19  N   UNL     1      -0.002   1.367  -0.059  0.00  0.00    -0.333 N 
ATOM     20  C   UNL     1       1.347   1.950  -0.027  0.00  0.00    +0.086 C 
ATOM     21  C   UNL     1       2.097   1.427   1.201  0.00  0.00    -0.059 C 
ATOM     22  N   UNL     1       2.174  -0.047   1.119  0.00  0.00    +0.387 N 
ATOM     23  H   UNL     1       2.652  -0.309   0.250  0.00  0.00    -0.081 HD
BRANCH  19  24
ATOM     24  C   UNL     1      -0.743   1.878  -1.129  0.00  0.00    +0.030 A 
ATOM     25  C   UNL     1      -1.294   1.016  -2.068  0.00  0.00    +0.026 A 
ATOM     26  C   UNL     1      -2.030   1.523  -3.121  0.00  0.00    +0.040 A 
ATOM     27  C   UNL     1      -2.209   2.890  -3.248  0.00  0.00    +0.124 A 
ATOM     28  C   UNL     1      -1.655   3.752  -2.316  0.00  0.00    +0.040 A 
ATOM     29  C   UNL     1      -0.923   3.249  -1.258  0.00  0.00    +0.026 A 
ATOM     30  F   UNL     1      -2.925   3.384  -4.282  0.00  0.00    -0.205 F 
ENDBRANCH  19  24
ENDBRANCH  16  22
ENDBRANCH   2  16
TORSDOF 6
