REMARK  Name = ZINC62825432
REMARK  4 active torsions:
REMARK  status: ('A' for Active; 'I' for Inactive)
REMARK    1  A    between atoms: C_5  and  N_10
REMARK    2  A    between atoms: C_6  and  C_7
REMARK    3  A    between atoms: C_11  and  C_13
REMARK    4  A    between atoms: C_13  and  C_14
REMARK                            x       y       z     vdW  Elec       q    Type
REMARK                         _______ _______ _______ _____ _____    ______ ____
ROOT
ATOM      1  N   UNL     1       1.245  -2.074  -0.049  0.00  0.00    -0.284 N 
ATOM      2  C   UNL     1       2.408  -2.732   0.125  0.00  0.00    +0.216 C 
ATOM      3  O   UNL     1       3.419  -2.117   0.390  0.00  0.00    -0.276 OA
ATOM      4  H   UNL     1       0.427  -2.569  -0.212  0.00  0.00    +0.155 HD
ENDROOT
BRANCH   1   9
ATOM      5  C   UNL     1       0.196   1.372   0.783  0.00  0.00    +0.032 A 
ATOM      6  C   UNL     1       1.162   2.094   0.115  0.00  0.00    +0.020 A 
ATOM      7  C   UNL     1       2.152   1.441  -0.604  0.00  0.00    +0.032 A 
ATOM      8  C   UNL     1       2.182   0.061  -0.659  0.00  0.00    +0.041 A 
ATOM      9  C   UNL     1       1.217  -0.683   0.007  0.00  0.00    +0.062 A 
ATOM     10  C   UNL     1       0.213  -0.026   0.737  0.00  0.00    +0.086 A 
ATOM     11 BR   UNL     1       3.537  -0.815  -1.645  0.00  0.00    -0.048 Br
ATOM     12 BR   UNL     1       1.137   3.983   0.179  0.00  0.00    -0.050 Br
BRANCH  10  13
ATOM     13  C   UNL     1      -0.814  -0.803   1.448  0.00  0.00    +0.388 C 
ATOM     14  O   UNL     1      -1.747  -0.229   1.994  0.00  0.00    -0.241 OA
ATOM     15  O   UNL     1      -0.736  -2.023   1.493  0.00  0.00    -0.241 OA
ENDBRANCH  10  13
ENDBRANCH   1   9
BRANCH   2  16
ATOM     16  C   UNL     1       2.452  -4.232  -0.010  0.00  0.00    +0.080 C 
BRANCH  16  17
ATOM     17  C   UNL     1       3.881  -4.725   0.233  0.00  0.00    -0.063 C 
ATOM     18  C   UNL     1       3.954  -6.251   0.016  0.00  0.00    -0.017 C 
ATOM     19  C   UNL     1       4.926  -6.716   1.133  0.00  0.00    -0.021 C 
ATOM     20  C   UNL     1       4.556  -5.755   2.290  0.00  0.00    -0.082 C 
ATOM     21  N   UNL     1       4.271  -4.459   1.629  0.00  0.00    +0.381 N 
ATOM     22  H   UNL     1       5.096  -3.878   1.647  0.00  0.00    -0.086 HD
ATOM     23  H   UNL     1       3.518  -3.990   2.110  0.00  0.00    -0.086 HD
ENDBRANCH  16  17
ENDBRANCH   2  16
TORSDOF 4
