REMARK  Name = ZINC50673203
REMARK  6 active torsions:
REMARK  status: ('A' for Active; 'I' for Inactive)
REMARK    1  A    between atoms: C_1  and  C_2
REMARK    2  A    between atoms: N_5  and  S_11
REMARK    3  A    between atoms: C_7  and  C_9
REMARK    4  A    between atoms: C_7  and  C_10
REMARK    5  A    between atoms: S_11  and  C_14
REMARK    6  A    between atoms: N_20  and  C_21
REMARK                            x       y       z     vdW  Elec       q    Type
REMARK                         _______ _______ _______ _____ _____    ______ ____
ROOT
ATOM      1  S   UNL     1      -2.225  -3.006  -0.815  0.00  0.00    +0.062 S 
ATOM      2  O   UNL     1      -2.443  -4.211  -0.094  0.00  0.00    -0.153 OA
ATOM      3  O   UNL     1      -3.290  -2.243  -1.363  0.00  0.00    -0.153 OA
ENDROOT
BRANCH   1   7
ATOM      4  C   UNL     1      -0.019   1.526   0.010  0.00  0.00    +0.039 C 
ATOM      5  C   UNL     1       0.002  -0.004   0.002  0.00  0.00    +0.132 C 
ATOM      6  C   UNL     1      -1.436  -0.536   0.015  0.00  0.00    +0.140 C 
ATOM      7  N   UNL     1      -1.389  -1.995   0.196  0.00  0.00    -0.171 NA
ATOM      8  C   UNL     1      -0.578  -2.530   1.302  0.00  0.00    +0.144 C 
ATOM      9  C   UNL     1       0.818  -1.901   1.226  0.00  0.00    +0.079 C 
ATOM     10  O   UNL     1       0.691  -0.479   1.161  0.00  0.00    -0.368 OA
ATOM     11  C   UNL     1       1.538  -2.406  -0.026  0.00  0.00    +0.042 C 
ATOM     12  C   UNL     1       1.621  -2.287   2.469  0.00  0.00    +0.042 C 
ENDBRANCH   1   7
BRANCH   1  13
ATOM     13  C   UNL     1      -1.152  -3.408  -2.154  0.00  0.00    +0.124 A 
ATOM     14  C   UNL     1      -1.128  -2.617  -3.295  0.00  0.00    +0.033 A 
ATOM     15  C   UNL     1      -0.272  -2.968  -4.323  0.00  0.00    +0.045 A 
ATOM     16  C   UNL     1       0.533  -4.094  -4.179  0.00  0.00    +0.119 A 
ATOM     17  N   UNL     1       0.481  -4.822  -3.075  0.00  0.00    -0.239 NA
ATOM     18  C   UNL     1      -0.322  -4.509  -2.076  0.00  0.00    +0.141 A 
ATOM     19  N   UNL     1       1.398  -4.458  -5.205  0.00  0.00    -0.332 N 
ATOM     20  C   UNL     1       1.460  -3.656  -6.429  0.00  0.00    +0.127 C 
ATOM     21  H   UNL     1       1.960  -5.242  -5.109  0.00  0.00    +0.147 HD
ENDBRANCH   1  13
TORSDOF 2
