REMARK  Name = ZINC39979837
REMARK  8 active torsions:
REMARK  status: ('A' for Active; 'I' for Inactive)
REMARK    1  A    between atoms: C_1  and  C_2
REMARK    2  A    between atoms: C_5  and  N_9
REMARK    3  A    between atoms: C_7  and  C_8
REMARK    4  A    between atoms: N_9  and  C_10
REMARK    5  A    between atoms: N_13  and  S_14
REMARK    6  A    between atoms: S_14  and  C_17
REMARK    7  A    between atoms: C_20  and  N_23
REMARK    8  A    between atoms: C_24  and  C_26
REMARK                            x       y       z     vdW  Elec       q    Type
REMARK                         _______ _______ _______ _____ _____    ______ ____
ROOT
ATOM      1  C   UNL     1      -0.019  -4.922  -1.512  0.00  0.00    +0.237 C 
ATOM      2  C   UNL     1       0.998  -6.036  -1.406  0.00  0.00    +0.192 C 
ATOM      3  N   UNL     1       2.256  -5.765  -1.221  0.00  0.00    -0.110 NA
ATOM      4  N   UNL     1       0.582  -7.309  -1.506  0.00  0.00    -0.226 NA
ATOM      5  C   UNL     1      -0.686  -7.609  -1.694  0.00  0.00    +0.089 A 
ATOM      6  C   UNL     1      -1.089  -8.964  -1.795  0.00  0.00    +0.030 A 
ATOM      7  C   UNL     1      -2.389  -9.277  -1.987  0.00  0.00    +0.002 A 
ATOM      8  C   UNL     1      -3.397  -8.305  -2.097  0.00  0.00    +0.002 A 
ATOM      9  C   UNL     1      -3.122  -6.985  -2.015  0.00  0.00    +0.027 A 
ATOM     10  C   UNL     1      -1.730  -6.560  -1.806  0.00  0.00    +0.063 A 
ATOM     11  N   UNL     1      -1.427  -5.295  -1.721  0.00  0.00    -0.359 N 
ATOM     12  H   UNL     1      -2.115  -4.615  -1.794  0.00  0.00    +0.162 HD
ENDROOT
BRANCH   3  13
ATOM     13  S   UNL     1       3.360  -6.995  -1.107  0.00  0.00    +0.100 S 
ATOM     14  O   UNL     1       3.054  -7.706   0.085  0.00  0.00    -0.146 OA
ATOM     15  O   UNL     1       3.399  -7.624  -2.380  0.00  0.00    -0.146 OA
BRANCH  13  16
ATOM     16  C   UNL     1       4.940  -6.256  -0.861  0.00  0.00    +0.113 A 
ATOM     17  C   UNL     1       5.723  -5.922  -1.951  0.00  0.00    +0.031 A 
ATOM     18  C   UNL     1       6.962  -5.342  -1.761  0.00  0.00    +0.025 A 
ATOM     19  C   UNL     1       7.421  -5.094  -0.474  0.00  0.00    +0.033 A 
ATOM     20  C   UNL     1       6.633  -5.430   0.618  0.00  0.00    +0.025 A 
ATOM     21  C   UNL     1       5.392  -6.005   0.422  0.00  0.00    +0.031 A 
BRANCH  19  22
ATOM     22  N   UNL     1       8.676  -4.508  -0.279  0.00  0.00    -0.286 N 
ATOM     23  C   UNL     1       9.103  -3.537  -1.110  0.00  0.00    +0.214 C 
ATOM     24  O   UNL     1       8.438  -3.230  -2.077  0.00  0.00    -0.276 OA
ATOM     25  C   UNL     1      10.408  -2.833  -0.840  0.00  0.00    +0.109 C 
ATOM     26  H   UNL     1       9.239  -4.800   0.455  0.00  0.00    +0.155 HD
ENDBRANCH  19  22
ENDBRANCH  13  16
ENDBRANCH   3  13
BRANCH   1  27
ATOM     27  N   UNL     1       0.056  -4.130  -0.282  0.00  0.00    -0.318 N 
ATOM     28  H   UNL     1       0.005  -4.569   0.582  0.00  0.00    +0.148 HD
BRANCH  27  33
ATOM     29  C   UNL     1       0.640   1.503  -0.567  0.00  0.00    +0.044 C 
ATOM     30  C   UNL     1       0.485   0.006  -0.491  0.00  0.00    -0.047 A 
ATOM     31  C   UNL     1       0.247  -0.722  -1.642  0.00  0.00    +0.005 A 
ATOM     32  C   UNL     1       0.104  -2.094  -1.577  0.00  0.00    +0.023 A 
ATOM     33  C   UNL     1       0.200  -2.743  -0.352  0.00  0.00    +0.029 A 
ATOM     34  C   UNL     1       0.439  -2.008   0.803  0.00  0.00    +0.026 A 
ATOM     35  C   UNL     1       0.586  -0.637   0.729  0.00  0.00    -0.046 A 
ATOM     36  C   UNL     1       0.852   0.160   1.980  0.00  0.00    +0.044 C 
ENDBRANCH  27  33
ENDBRANCH   1  27
TORSDOF 5
