REMARK  Name = ZINC27591450
REMARK  11 active torsions:
REMARK  status: ('A' for Active; 'I' for Inactive)
REMARK    1  A    between atoms: C_1  and  N_2
REMARK    2  A    between atoms: N_2  and  C_3
REMARK    3  A    between atoms: N_2  and  C_4
REMARK    4  A    between atoms: C_4  and  C_6
REMARK    5  A    between atoms: C_4  and  C_28
REMARK    6  A    between atoms: C_6  and  N_7
REMARK    7  A    between atoms: C_8  and  C_10
REMARK    8  A    between atoms: C_10  and  C_11
REMARK    9  A    between atoms: C_11  and  C_12
REMARK   10  A    between atoms: C_15  and  S_18
REMARK   11  A    between atoms: S_18  and  N_21
REMARK                            x       y       z     vdW  Elec       q    Type
REMARK                         _______ _______ _______ _____ _____    ______ ____
ROOT
ATOM      1  C   UNL     1      -2.611  -0.086  -0.451  0.00  0.00    +0.100 C 
ENDROOT
BRANCH   1   3
ATOM      2  N   UNL     1      -0.204   0.474  -0.362  0.00  0.00    -0.317 N 
ATOM      3  C   UNL     1      -1.453   0.842  -0.710  0.00  0.00    +0.213 C 
ATOM      4  O   UNL     1      -1.644   1.920  -1.232  0.00  0.00    -0.276 OA
ATOM      5  H   UNL     1      -0.031  -0.502   0.116  0.00  0.00    +0.149 HD
BRANCH   2   6
ATOM      6  C   UNL     1       0.924   1.373  -0.620  0.00  0.00    +0.093 C 
BRANCH   6   7
ATOM      7  C   UNL     1       2.220   0.718  -0.139  0.00  0.00    -0.021 C 
BRANCH   7   8
ATOM      8  C   UNL     1       3.361   1.690  -0.291  0.00  0.00    -0.057 A 
ATOM      9  C   UNL     1       4.538   1.285  -0.892  0.00  0.00    +0.002 A 
ATOM     10  C   UNL     1       5.584   2.177  -1.037  0.00  0.00    +0.003 A 
ATOM     11  C   UNL     1       5.458   3.472  -0.570  0.00  0.00    +0.038 A 
ATOM     12  C   UNL     1       4.282   3.877   0.037  0.00  0.00    +0.124 A 
ATOM     13  C   UNL     1       3.233   2.984   0.177  0.00  0.00    +0.040 A 
ATOM     14  F   UNL     1       4.158   5.142   0.494  0.00  0.00    -0.205 F 
ENDBRANCH   7   8
BRANCH   7  16
ATOM     15  C   UNL     1       3.234  -0.454   1.721  0.00  0.00    -0.096 C 
ATOM     16  N   UNL     1       2.082   0.340   1.274  0.00  0.00    +0.382 N 
ATOM     17  C   UNL     1       1.901   1.527   2.121  0.00  0.00    -0.096 C 
ATOM     18  H   UNL     1       1.182  -0.285   1.372  0.00  0.00    -0.082 HD
ENDBRANCH   7  16
ENDBRANCH   6   7
ENDBRANCH   2   6
ENDBRANCH   1   3
BRANCH   1  19
ATOM     19  C   UNL     1      -3.907   0.568  -0.936  0.00  0.00    +0.044 C 
BRANCH  19  20
ATOM     20  C   UNL     1      -5.066  -0.360  -0.677  0.00  0.00    -0.047 A 
ATOM     21  C   UNL     1      -5.446  -1.277  -1.639  0.00  0.00    +0.005 A 
ATOM     22  C   UNL     1      -6.506  -2.131  -1.399  0.00  0.00    +0.029 A 
ATOM     23  C   UNL     1      -7.192  -2.062  -0.201  0.00  0.00    +0.105 A 
ATOM     24  C   UNL     1      -6.815  -1.141   0.759  0.00  0.00    +0.029 A 
ATOM     25  C   UNL     1      -5.752  -0.290   0.521  0.00  0.00    +0.005 A 
BRANCH  23  26
ATOM     26  S   UNL     1      -8.546  -3.147   0.103  0.00  0.00    +0.061 S 
ATOM     27  O   UNL     1      -8.352  -4.282  -0.731  0.00  0.00    -0.153 OA
ATOM     28  O   UNL     1      -8.674  -3.252   1.514  0.00  0.00    -0.153 OA
BRANCH  26  29
ATOM     29  N   UNL     1      -9.914  -2.388  -0.441  0.00  0.00    -0.177 NA
ATOM     30  C   UNL     1     -10.653  -1.551   0.477  0.00  0.00    +0.109 C 
ATOM     31  C   UNL     1     -11.703  -2.395   1.230  0.00  0.00    +0.017 C 
ATOM     32  C   UNL     1     -12.793  -2.782   0.321  0.00  0.00    +0.001 C 
ATOM     33  C   UNL     1     -12.357  -3.667  -0.843  0.00  0.00    +0.001 C 
ATOM     34  C   UNL     1     -11.852  -2.800  -1.969  0.00  0.00    +0.017 C 
ATOM     35  C   UNL     1     -10.331  -2.599  -1.841  0.00  0.00    +0.109 C 
ENDBRANCH  26  29
ENDBRANCH  23  26
ENDBRANCH  19  20
ENDBRANCH   1  19
TORSDOF 9
