REMARK  Name = ZINC15518399
REMARK  15 active torsions:
REMARK  status: ('A' for Active; 'I' for Inactive)
REMARK    1  A    between atoms: C_1  and  C_2
REMARK    2  A    between atoms: C_2  and  O_3
REMARK    3  A    between atoms: O_3  and  C_4
REMARK    4  A    between atoms: C_4  and  C_6
REMARK    5  A    between atoms: C_7  and  C_34
REMARK    6  A    between atoms: C_8  and  C_30
REMARK    7  A    between atoms: C_10  and  N_11
REMARK    8  A    between atoms: C_12  and  C_14
REMARK    9  A    between atoms: C_14  and  N_65
REMARK   10  A    between atoms: C_18  and  C_20
REMARK   11  A    between atoms: C_22  and  O_28
REMARK   12  A    between atoms: C_25  and  O_26
REMARK   13  A    between atoms: O_26  and  C_27
REMARK   14  A    between atoms: O_28  and  C_29
REMARK   15  A    between atoms: N_32  and  C_33
REMARK                            x       y       z     vdW  Elec       q    Type
REMARK                         _______ _______ _______ _____ _____    ______ ____
ROOT
ATOM      1  N   UNL     1      -2.917   0.238   3.843  0.00  0.00    -0.281 N 
ATOM      2  C   UNL     1      -2.042   1.000   3.157  0.00  0.00    +0.201 C 
ATOM      3  O   UNL     1      -1.613   2.022   3.650  0.00  0.00    -0.278 OA
ATOM      4  H   UNL     1      -3.261  -0.579   3.449  0.00  0.00    +0.155 HD
ENDROOT
BRANCH   1   9
ATOM      5  C   UNL     1      -4.215  -0.029   5.968  0.00  0.00    +0.091 A 
ATOM      6  C   UNL     1      -4.466   0.560   7.199  0.00  0.00    -0.015 A 
ATOM      7  C   UNL     1      -3.824   1.734   7.484  0.00  0.00    +0.079 A 
ATOM      8  S   UNL     1      -2.852   2.016   6.017  0.00  0.00    -0.068 S 
ATOM      9  C   UNL     1      -3.324   0.620   5.106  0.00  0.00    +0.087 A 
ATOM     10  C   UNL     1      -5.411  -0.073   8.187  0.00  0.00    +0.046 C 
BRANCH   7  11
ATOM     11  C   UNL     1      -3.910   2.551   8.696  0.00  0.00    +0.251 C 
ATOM     12  O   UNL     1      -4.628   2.204   9.616  0.00  0.00    -0.270 OA
ATOM     13  N   UNL     1      -3.194   3.689   8.793  0.00  0.00    -0.314 N 
ATOM     14  C   UNL     1      -3.280   4.507  10.006  0.00  0.00    +0.128 C 
ATOM     15  H   UNL     1      -2.621   3.966   8.061  0.00  0.00    +0.149 HD
ENDBRANCH   7  11
BRANCH   5  16
ATOM     16  C   UNL     1      -4.862  -1.288   5.583  0.00  0.00    +0.342 C 
ATOM     17  O   UNL     1      -4.331  -2.350   5.845  0.00  0.00    -0.245 OA
BRANCH  16  18
ATOM     18  O   UNL     1      -6.047  -1.268   4.940  0.00  0.00    -0.461 OA
BRANCH  18  20
ATOM     19  C   UNL     1      -7.961  -2.328   3.871  0.00  0.00    +0.048 C 
ATOM     20  C   UNL     1      -6.629  -2.551   4.590  0.00  0.00    +0.229 C 
ENDBRANCH  18  20
ENDBRANCH  16  18
ENDBRANCH   5  16
ENDBRANCH   1   9
BRANCH   2  21
ATOM     21  C   UNL     1      -1.598   0.584   1.779  0.00  0.00    +0.020 C 
BRANCH  21  26
ATOM     22  C   UNL     1       0.457   1.816   2.207  0.00  0.00    -0.077 C 
ATOM     23  C   UNL     1       1.569   2.424   1.316  0.00  0.00    -0.020 C 
ATOM     24  C   UNL     1       1.428   1.630  -0.003  0.00  0.00    -0.012 C 
ATOM     25  C   UNL     1      -0.013   1.086   0.008  0.00  0.00    -0.033 C 
ATOM     26  N   UNL     1      -0.627   1.582   1.240  0.00  0.00    +0.390 N 
ATOM     27  H   UNL     1      -1.119   2.463   1.052  0.00  0.00    -0.080 HD
BRANCH  25  28
ATOM     28  C   UNL     1      -0.763   1.595  -1.195  0.00  0.00    -0.016 A 
ATOM     29  C   UNL     1      -1.522   2.746  -1.100  0.00  0.00    +0.051 A 
ATOM     30  C   UNL     1      -2.209   3.217  -2.209  0.00  0.00    +0.121 A 
ATOM     31  C   UNL     1      -2.142   2.528  -3.411  0.00  0.00    +0.049 A 
ATOM     32  C   UNL     1      -1.388   1.375  -3.505  0.00  0.00    +0.049 A 
ATOM     33  C   UNL     1      -0.697   0.906  -2.397  0.00  0.00    +0.122 A 
BRANCH  33  34
ATOM     34  O   UNL     1       0.046  -0.229  -2.489  0.00  0.00    -0.495 OA
ATOM     35  C   UNL     1       0.069  -0.888  -3.757  0.00  0.00    +0.277 C 
ENDBRANCH  33  34
BRANCH  30  36
ATOM     36  O   UNL     1      -2.952   4.353  -2.116  0.00  0.00    -0.495 OA
ATOM     37  C   UNL     1      -3.637   4.777  -3.296  0.00  0.00    +0.277 C 
ENDBRANCH  30  36
ENDBRANCH  25  28
ENDBRANCH  21  26
ENDBRANCH   2  21
TORSDOF 10
