REMARK  Name = ZINC63491805
REMARK  6 active torsions:
REMARK  status: ('A' for Active; 'I' for Inactive)
REMARK    1  A    between atoms: C_1  and  C_2
REMARK    2  A    between atoms: C_2  and  C_3
REMARK    3  A    between atoms: C_3  and  C_4
REMARK    4  A    between atoms: C_12  and  O_28
REMARK    5  A    between atoms: C_19  and  C_21
REMARK    6  A    between atoms: O_28  and  C_29
REMARK                            x       y       z     vdW  Elec       q    Type
REMARK                         _______ _______ _______ _____ _____    ______ ____
ROOT
ATOM      1  C   UNL     1      -0.395  -2.396   2.158  0.00  0.00    +0.216 C 
ATOM      2  O   UNL     1      -0.834  -2.927   1.159  0.00  0.00    -0.276 OA
ATOM      3  N   UNL     1       0.697  -2.901   2.765  0.00  0.00    -0.292 N 
ATOM      4  C   UNL     1       1.282  -2.194   3.909  0.00  0.00    +0.113 C 
ATOM      5  C   UNL     1       2.753  -1.857   3.606  0.00  0.00    +0.052 C 
ATOM      6  C   UNL     1       3.371  -3.103   3.021  0.00  0.00    -0.035 C 
ATOM      7  C   UNL     1       4.469  -3.773   3.345  0.00  0.00    +0.003 A 
ATOM      8  C   UNL     1       5.541  -3.494   4.312  0.00  0.00    +0.055 A 
ATOM      9  C   UNL     1       6.533  -4.422   4.409  0.00  0.00    +0.121 A 
ATOM     10  C   UNL     1       6.581  -5.600   3.650  0.00  0.00    +0.047 A 
ATOM     11  C   UNL     1       5.652  -5.952   2.725  0.00  0.00    +0.029 A 
ATOM     12  C   UNL     1       4.532  -5.023   2.524  0.00  0.00    +0.043 A 
ATOM     13  N   UNL     1       3.524  -5.082   1.708  0.00  0.00    -0.375 N 
ATOM     14  C   UNL     1       2.734  -3.859   1.860  0.00  0.00    +0.131 C 
ATOM     15  C   UNL     1       1.285  -4.158   2.278  0.00  0.00    +0.133 C 
ATOM     16  H   UNL     1       3.327  -5.812   1.100  0.00  0.00    +0.160 HD
ENDROOT
BRANCH  15  17
ATOM     17  C   UNL     1       0.503  -4.661   1.092  0.00  0.00    -0.025 A 
ATOM     18  C   UNL     1       0.754  -4.152  -0.168  0.00  0.00    +0.008 A 
ATOM     19  C   UNL     1       0.038  -4.613  -1.256  0.00  0.00    +0.038 A 
ATOM     20  C   UNL     1      -0.932  -5.586  -1.084  0.00  0.00    +0.123 A 
ATOM     21  C   UNL     1      -1.182  -6.096   0.179  0.00  0.00    +0.038 A 
ATOM     22  C   UNL     1      -0.461  -5.637   1.265  0.00  0.00    +0.008 A 
ATOM     23  F   UNL     1      -1.633  -6.038  -2.147  0.00  0.00    -0.205 F 
ENDBRANCH  15  17
BRANCH   9  24
ATOM     24  O   UNL     1       7.538  -4.191   5.294  0.00  0.00    -0.495 OA
ATOM     25  C   UNL     1       8.568  -5.178   5.378  0.00  0.00    +0.277 C 
ENDBRANCH   9  24
BRANCH   1  26
ATOM     26  C   UNL     1      -1.072  -1.171   2.719  0.00  0.00    +0.096 C 
BRANCH  26  28
ATOM     27  C   UNL     1      -2.963   0.433   2.417  0.00  0.00    +0.004 C 
ATOM     28  C   UNL     1      -2.276  -0.810   1.848  0.00  0.00    +0.006 C 
ENDBRANCH  26  28
ENDBRANCH   1  26
TORSDOF 4
