REMARK  Name = ZINC32843002
REMARK  5 active torsions:
REMARK  status: ('A' for Active; 'I' for Inactive)
REMARK    1  A    between atoms: C_10  and  C_13
REMARK    2  A    between atoms: C_13  and  C_14
REMARK    3  A    between atoms: N_16  and  C_17
REMARK    4  A    between atoms: C_17  and  C_18
REMARK    5  A    between atoms: C_24  and  C_27
REMARK                            x       y       z     vdW  Elec       q    Type
REMARK                         _______ _______ _______ _____ _____    ______ ____
ROOT
ATOM      1  C   UNL     1      -4.267   1.651   1.657  0.00  0.00    +0.215 C 
ATOM      2  O   UNL     1      -5.045   1.507   0.737  0.00  0.00    -0.276 OA
ATOM      3  N   UNL     1      -2.967   1.902   1.406  0.00  0.00    -0.308 N 
ATOM      4  H   UNL     1      -2.261   2.033   2.240  0.00  0.00    +0.149 HD
ENDROOT
BRANCH   1   5
ATOM      5  C   UNL     1      -4.755   1.549   3.079  0.00  0.00    +0.119 C 
BRANCH   5  15
ATOM      6  C   UNL     1      -5.351  -3.154   5.754  0.00  0.00    +0.002 A 
ATOM      7  C   UNL     1      -5.219  -3.572   4.442  0.00  0.00    +0.001 A 
ATOM      8  C   UNL     1      -5.581  -2.726   3.410  0.00  0.00    +0.016 A 
ATOM      9  C   UNL     1      -6.071  -1.462   3.693  0.00  0.00    +0.030 A 
ATOM     10  C   UNL     1      -6.187  -1.024   5.013  0.00  0.00    +0.047 A 
ATOM     11  C   UNL     1      -5.835  -1.893   6.041  0.00  0.00    +0.024 A 
ATOM     12  N   UNL     1      -6.667   0.244   5.326  0.00  0.00    -0.284 N 
ATOM     13  C   UNL     1      -6.772   1.279   4.500  0.00  0.00    +0.231 C 
ATOM     14  O   UNL     1      -7.310   2.288   4.905  0.00  0.00    -0.274 OA
ATOM     15  C   UNL     1      -6.257   1.261   3.084  0.00  0.00    +0.146 C 
ATOM     16  S   UNL     1      -6.566  -0.389   2.381  0.00  0.00    -0.110 S 
ATOM     17  H   UNL     1      -7.006   0.467   6.348  0.00  0.00    +0.155 HD
ENDBRANCH   5  15
ENDBRANCH   1   5
BRANCH   3  18
ATOM     18  C   UNL     1      -2.493   2.001   0.023  0.00  0.00    +0.181 C 
BRANCH  18  19
ATOM     19  C   UNL     1      -1.013   2.285   0.018  0.00  0.00    +0.155 A 
ATOM     20  N   UNL     1      -0.453   3.467   0.024  0.00  0.00    -0.132 NA
ATOM     21  N   UNL     1       0.829   3.353   0.012  0.00  0.00    -0.129 NA
ATOM     22  C   UNL     1       1.158   2.072   0.002  0.00  0.00    +0.161 A 
ATOM     23  N   UNL     1      -0.016   1.360   0.009  0.00  0.00    -0.285 N 
ATOM     24  C   UNL     1       0.002  -0.004   0.002  0.00  0.00    +0.107 A 
ATOM     25  C   UNL     1       1.174  -0.673  -0.013  0.00  0.00    +0.071 A 
ATOM     26  C   UNL     1       2.392   0.027  -0.022  0.00  0.00    +0.017 A 
ATOM     27  C   UNL     1       2.389   1.388  -0.014  0.00  0.00    +0.049 A 
BRANCH  25  28
ATOM     28  C   UNL     1       1.176  -2.180  -0.022  0.00  0.00    +0.419 C 
ATOM     29  F   UNL     1       1.164  -2.639  -1.343  0.00  0.00    -0.166 F 
ATOM     30  F   UNL     1       2.325  -2.649   0.624  0.00  0.00    -0.166 F 
ATOM     31  F   UNL     1       0.041  -2.652   0.646  0.00  0.00    -0.166 F 
ENDBRANCH  25  28
ENDBRANCH  18  19
ENDBRANCH   3  18
TORSDOF 5
