REMARK  Name = ZINC36602766
REMARK  18 active torsions:
REMARK  status: ('A' for Active; 'I' for Inactive)
REMARK    1  A    between atoms: C_1  and  C_2
REMARK    2  A    between atoms: C_5  and  C_7
REMARK    3  A    between atoms: C_7  and  N_8
REMARK    4  A    between atoms: N_8  and  C_9
REMARK    5  A    between atoms: C_9  and  C_11
REMARK    6  A    between atoms: C_9  and  C_20
REMARK    7  A    between atoms: C_12  and  O_19
REMARK    8  A    between atoms: C_14  and  O_18
REMARK    9  A    between atoms: C_16  and  O_17
REMARK   10  A    between atoms: N_22  and  C_23
REMARK   11  A    between atoms: C_23  and  C_24
REMARK   12  A    between atoms: C_23  and  C_25
REMARK   13  A    between atoms: C_23  and  C_26
REMARK   14  A    between atoms: C_26  and  C_27
REMARK   15  A    between atoms: C_27  and  C_28
REMARK   16  A    between atoms: C_27  and  C_29
REMARK   17  A    between atoms: C_27  and  C_30
REMARK   18  A    between atoms: C_31  and  C_33
REMARK                            x       y       z     vdW  Elec       q    Type
REMARK                         _______ _______ _______ _____ _____    ______ ____
ROOT
ATOM      1  C   UNL     1       2.707  -2.545  -4.995  0.00  0.00    +0.200 C 
ENDROOT
BRANCH   1   2
ATOM      2  C   UNL     1       4.131  -2.981  -4.763  0.00  0.00    +0.065 A 
ATOM      3  C   UNL     1       5.092  -2.756  -5.737  0.00  0.00    +0.129 A 
ATOM      4  C   UNL     1       6.402  -3.156  -5.524  0.00  0.00    +0.091 A 
ATOM      5  C   UNL     1       6.751  -3.781  -4.337  0.00  0.00    +0.124 A 
ATOM      6  C   UNL     1       5.790  -4.005  -3.362  0.00  0.00    +0.091 A 
ATOM      7  C   UNL     1       4.481  -3.601  -3.574  0.00  0.00    +0.129 A 
BRANCH   7   8
ATOM      8  O   UNL     1       3.540  -3.816  -2.617  0.00  0.00    -0.506 OA
ATOM      9  H   UNL     1       3.085  -4.666  -2.697  0.00  0.00    +0.292 HD
ENDBRANCH   7   8
BRANCH   5  10
ATOM     10  O   UNL     1       8.035  -4.175  -4.128  0.00  0.00    -0.507 OA
ATOM     11  H   UNL     1       8.589  -3.503  -3.708  0.00  0.00    +0.292 HD
ENDBRANCH   5  10
BRANCH   3  12
ATOM     12  O   UNL     1       4.749  -2.143  -6.901  0.00  0.00    -0.506 OA
ATOM     13  H   UNL     1       4.913  -1.190  -6.907  0.00  0.00    +0.292 HD
ENDBRANCH   3  12
ENDBRANCH   1   2
BRANCH   1  14
ATOM     14  C   UNL     1       2.560  -1.090  -4.630  0.00  0.00    +0.239 C 
ATOM     15  O   UNL     1       1.791  -0.759  -3.753  0.00  0.00    -0.273 OA
ATOM     16  N   UNL     1       3.285  -0.157  -5.279  0.00  0.00    -0.308 N 
ATOM     17  H   UNL     1       3.900  -0.421  -5.980  0.00  0.00    +0.149 HD
BRANCH  16  18
ATOM     18  C   UNL     1       3.143   1.258  -4.924  0.00  0.00    +0.030 C 
ATOM     19  C   UNL     1       1.739   1.738  -5.297  0.00  0.00    +0.031 C 
ATOM     20  C   UNL     1       3.358   1.430  -3.419  0.00  0.00    +0.031 C 
BRANCH  18  21
ATOM     21  C   UNL     1       4.183   2.081  -5.685  0.00  0.00    +0.031 C 
BRANCH  21  22
ATOM     22  C   UNL     1       5.572   1.815  -5.101  0.00  0.00    -0.036 C 
ATOM     23  C   UNL     1       5.689   0.338  -4.717  0.00  0.00    +0.010 C 
ATOM     24  C   UNL     1       6.638   2.157  -6.143  0.00  0.00    +0.010 C 
ATOM     25  C   UNL     1       5.777   2.682  -3.857  0.00  0.00    +0.010 C 
ENDBRANCH  21  22
ENDBRANCH  18  21
ENDBRANCH  16  18
ENDBRANCH   1  14
BRANCH   1  26
ATOM     26  N   UNL     1       1.808  -3.350  -4.164  0.00  0.00    -0.274 N 
ATOM     27  C   UNL     1       1.640  -4.661  -4.427  0.00  0.00    +0.248 C 
ATOM     28  O   UNL     1       0.988  -5.354  -3.671  0.00  0.00    -0.270 OA
BRANCH  27  29
ATOM     29  C   UNL     1       2.247  -5.255  -5.636  0.00  0.00    +0.037 A 
ATOM     30  C   UNL     1       3.165  -4.523  -6.391  0.00  0.00    +0.016 A 
ATOM     31  C   UNL     1       3.729  -5.082  -7.518  0.00  0.00    +0.039 A 
ATOM     32  C   UNL     1       3.386  -6.370  -7.901  0.00  0.00    +0.123 A 
ATOM     33  C   UNL     1       2.475  -7.102  -7.154  0.00  0.00    +0.039 A 
ATOM     34  C   UNL     1       1.910  -6.554  -6.023  0.00  0.00    +0.016 A 
ATOM     35  F   UNL     1       3.941  -6.913  -9.007  0.00  0.00    -0.205 F 
ENDBRANCH  27  29
BRANCH  26  36
ATOM     36  C   UNL     1       1.093  -2.730  -3.045  0.00  0.00    +0.183 C 
BRANCH  36  41
ATOM     37  C   UNL     1      -2.271   0.627  -4.734  0.00  0.00    +0.086 C 
ATOM     38  C   UNL     1      -1.660  -0.673  -4.278  0.00  0.00    +0.102 A 
ATOM     39  C   UNL     1      -2.295  -1.856  -4.201  0.00  0.00    +0.045 A 
ATOM     40  C   UNL     1      -1.352  -2.797  -3.728  0.00  0.00    +0.046 A 
ATOM     41  C   UNL     1      -0.197  -2.132  -3.544  0.00  0.00    +0.122 A 
ATOM     42  O   UNL     1      -0.388  -0.847  -3.884  0.00  0.00    -0.463 OA
ENDBRANCH  36  41
ENDBRANCH  26  36
ENDBRANCH   1  26
TORSDOF 12
