REMARK  Name = ZINC46670992
REMARK  7 active torsions:
REMARK  status: ('A' for Active; 'I' for Inactive)
REMARK    1  A    between atoms: C_1  and  C_2
REMARK    2  A    between atoms: C_3  and  C_13
REMARK    3  A    between atoms: C_13  and  C_14
REMARK    4  A    between atoms: N_16  and  C_17
REMARK    5  A    between atoms: C_17  and  C_18
REMARK    6  A    between atoms: C_18  and  C_20
REMARK    7  A    between atoms: C_18  and  N_25
REMARK                            x       y       z     vdW  Elec       q    Type
REMARK                         _______ _______ _______ _____ _____    ______ ____
ROOT
ATOM      1  C   UNL     1       1.353  -0.213  -3.076  0.00  0.00    +0.217 C 
ATOM      2  O   UNL     1       2.260  -0.615  -2.378  0.00  0.00    -0.275 OA
ATOM      3  N   UNL     1       1.615   0.295  -4.296  0.00  0.00    -0.316 N 
ATOM      4  H   UNL     1       0.890   0.617  -4.854  0.00  0.00    +0.149 HD
ENDROOT
BRANCH   1   5
ATOM      5  C   UNL     1      -0.068  -0.282  -2.578  0.00  0.00    +0.133 C 
BRANCH   5   8
ATOM      6  C   UNL     1       0.148   1.271   0.100  0.00  0.00    +0.063 C 
ATOM      7  C   UNL     1       0.004  -0.223  -0.034  0.00  0.00    +0.018 A 
ATOM      8  C   UNL     1      -0.088  -0.886  -1.198  0.00  0.00    -0.011 A 
ATOM      9  C   UNL     1      -0.213  -2.309  -0.871  0.00  0.00    +0.005 A 
ATOM     10  C   UNL     1      -0.342  -3.472  -1.633  0.00  0.00    +0.025 A 
ATOM     11  C   UNL     1      -0.440  -4.684  -1.009  0.00  0.00    +0.019 A 
ATOM     12  C   UNL     1      -0.412  -4.769   0.377  0.00  0.00    +0.017 A 
ATOM     13  C   UNL     1      -0.286  -3.634   1.147  0.00  0.00    +0.027 A 
ATOM     14  C   UNL     1      -0.184  -2.389   0.533  0.00  0.00    +0.047 A 
ATOM     15  N   UNL     1      -0.046  -1.105   1.011  0.00  0.00    -0.358 N 
ATOM     16  H   UNL     1       0.006  -0.861   1.948  0.00  0.00    +0.166 HD
ATOM     17 BR   UNL     1      -0.615  -6.259  -2.041  0.00  0.00    -0.050 Br
ENDBRANCH   5   8
ENDBRANCH   1   5
BRANCH   3  18
ATOM     18  C   UNL     1       2.996   0.362  -4.780  0.00  0.00    +0.094 C 
BRANCH  18  19
ATOM     19  C   UNL     1       3.008   0.876  -6.221  0.00  0.00    -0.013 C 
BRANCH  19  20
ATOM     20  N   UNL     1       4.377   0.819  -6.750  0.00  0.00    +0.386 N 
ATOM     21  C   UNL     1       4.853  -0.587  -6.788  0.00  0.00    -0.078 C 
ATOM     22  C   UNL     1       5.991  -0.548  -7.839  0.00  0.00    -0.020 C 
ATOM     23  C   UNL     1       5.452   0.445  -8.895  0.00  0.00    -0.020 C 
ATOM     24  C   UNL     1       4.402   1.291  -8.152  0.00  0.00    -0.078 C 
ATOM     25  H   UNL     1       4.993   1.381  -6.183  0.00  0.00    -0.081 HD
ENDBRANCH  19  20
BRANCH  19  26
ATOM     26  C   UNL     1       2.517   2.301  -6.250  0.00  0.00    -0.022 A 
ATOM     27  C   UNL     1       1.287   2.773  -6.571  0.00  0.00    +0.009 A 
ATOM     28  C   UNL     1       1.061   4.136  -6.527  0.00  0.00    +0.008 A 
ATOM     29  C   UNL     1       2.075   4.960  -6.165  0.00  0.00    +0.045 A 
ATOM     30  S   UNL     1       3.401   3.803  -5.864  0.00  0.00    -0.103 S 
ENDBRANCH  19  26
ENDBRANCH  18  19
ENDBRANCH   3  18
TORSDOF 6
