REMARK  Name = ZINC39041145
REMARK  8 active torsions:
REMARK  status: ('A' for Active; 'I' for Inactive)
REMARK    1  A    between atoms: C_1  and  C_2
REMARK    2  A    between atoms: C_6  and  C_26
REMARK    3  A    between atoms: N_8  and  C_15
REMARK    4  A    between atoms: C_15  and  C_16
REMARK    5  A    between atoms: C_16  and  C_17
REMARK    6  A    between atoms: C_29  and  C_32
REMARK    7  A    between atoms: C_32  and  C_33
REMARK    8  A    between atoms: C_32  and  C_34
REMARK                            x       y       z     vdW  Elec       q    Type
REMARK                         _______ _______ _______ _____ _____    ______ ____
ROOT
ATOM      1  C   UNL     1      -0.019   1.526   0.010  0.00  0.00    +0.035 C 
ATOM      2  C   UNL     1       0.002  -0.004   0.002  0.00  0.00    +0.132 C 
ATOM      3  C   UNL     1       0.778  -0.530  -1.150  0.00  0.00    +0.075 C 
ATOM      4  C   UNL     1       1.030  -0.109  -2.548  0.00  0.00    +0.114 C 
ATOM      5  N   UNL     1       2.383  -0.706  -2.793  0.00  0.00    -0.292 N 
ATOM      6  C   UNL     1       3.032  -0.873  -1.596  0.00  0.00    +0.243 C 
ATOM      7  O   UNL     1       4.065  -1.481  -1.410  0.00  0.00    -0.273 OA
ATOM      8  C   UNL     1       2.212  -0.135  -0.573  0.00  0.00    +0.220 C 
ATOM      9  N   UNL     1       2.042  -0.664   0.772  0.00  0.00    -0.179 NA
ATOM     10  N   UNL     1       0.835  -0.547   1.124  0.00  0.00    -0.188 NA
ENDROOT
BRANCH   4  11
ATOM     11  C   UNL     1       0.002  -0.692  -3.483  0.00  0.00    -0.027 A 
ATOM     12  C   UNL     1       0.119  -2.001  -3.909  0.00  0.00    +0.006 A 
ATOM     13  C   UNL     1      -0.824  -2.536  -4.768  0.00  0.00    +0.004 A 
ATOM     14  C   UNL     1      -1.884  -1.761  -5.199  0.00  0.00    -0.045 A 
ATOM     15  C   UNL     1      -2.001  -0.451  -4.772  0.00  0.00    +0.004 A 
ATOM     16  C   UNL     1      -1.061   0.082  -3.911  0.00  0.00    +0.006 A 
BRANCH  14  17
ATOM     17  C   UNL     1      -2.911  -2.343  -6.135  0.00  0.00    +0.013 C 
ATOM     18  C   UNL     1      -4.290  -2.293  -5.475  0.00  0.00    +0.012 C 
ATOM     19  C   UNL     1      -2.937  -1.532  -7.433  0.00  0.00    +0.012 C 
ENDBRANCH  14  17
ENDBRANCH   4  11
BRANCH   5  20
ATOM     20  C   UNL     1       2.927  -1.056  -4.107  0.00  0.00    +0.113 C 
BRANCH  20  21
ATOM     21  C   UNL     1       3.679   0.145  -4.685  0.00  0.00    +0.056 C 
BRANCH  21  22
ATOM     22  C   UNL     1       4.239  -0.215  -6.037  0.00  0.00    -0.021 A 
ATOM     23  C   UNL     1       3.534  -0.144  -7.319  0.00  0.00    +0.003 A 
ATOM     24  C   UNL     1       2.246   0.238  -7.698  0.00  0.00    +0.010 A 
ATOM     25  C   UNL     1       1.885   0.191  -9.015  0.00  0.00    +0.001 A 
ATOM     26  C   UNL     1       2.788  -0.235  -9.979  0.00  0.00    +0.002 A 
ATOM     27  C   UNL     1       4.064  -0.617  -9.627  0.00  0.00    +0.026 A 
ATOM     28  C   UNL     1       4.453  -0.576  -8.292  0.00  0.00    +0.047 A 
ATOM     29  N   UNL     1       5.625  -0.883  -7.636  0.00  0.00    -0.360 N 
ATOM     30  C   UNL     1       5.480  -0.657  -6.295  0.00  0.00    +0.087 A 
ATOM     31  H   UNL     1       6.433  -1.208  -8.063  0.00  0.00    +0.165 HD
ENDBRANCH  21  22
ENDBRANCH  20  21
ENDBRANCH   5  20
TORSDOF 5
