REMARK  Name = ZINC48240997
REMARK  10 active torsions:
REMARK  status: ('A' for Active; 'I' for Inactive)
REMARK    1  A    between atoms: C_1  and  C_2
REMARK    2  A    between atoms: C_2  and  C_3
REMARK    3  A    between atoms: C_2  and  N_21
REMARK    4  A    between atoms: C_3  and  N_4
REMARK    5  A    between atoms: N_7  and  C_8
REMARK    6  A    between atoms: C_8  and  C_9
REMARK    7  A    between atoms: C_8  and  C_15
REMARK    8  A    between atoms: N_19  and  C_20
REMARK    9  A    between atoms: N_21  and  C_22
REMARK   10  A    between atoms: N_21  and  C_23
REMARK                            x       y       z     vdW  Elec       q    Type
REMARK                         _______ _______ _______ _____ _____    ______ ____
ROOT
ATOM      1  N   UNL     1       0.922  -1.973   1.167  0.00  0.00    -0.298 N 
ATOM      2  C   UNL     1       1.566  -2.635   2.148  0.00  0.00    +0.300 C 
ATOM      3  O   UNL     1       2.025  -2.025   3.094  0.00  0.00    -0.253 OA
ATOM      4  N   UNL     1       1.702  -3.974   2.080  0.00  0.00    -0.286 N 
ATOM      5  H   UNL     1       0.556  -2.460   0.412  0.00  0.00    +0.150 HD
ATOM      6  H   UNL     1       1.336  -4.461   1.325  0.00  0.00    +0.151 HD
ENDROOT
BRANCH   1   7
ATOM      7  C   UNL     1       0.774  -0.517   1.240  0.00  0.00    +0.127 C 
BRANCH   7   9
ATOM      8  C   UNL     1      -0.037   1.510   0.025  0.00  0.00    +0.029 C 
ATOM      9  C   UNL     1       0.010  -0.019   0.012  0.00  0.00    +0.087 C 
BRANCH   9  10
ATOM     10  N   UNL     1       0.688  -0.476  -1.203  0.00  0.00    -0.329 N 
ATOM     11  C   UNL     1       2.038   0.001  -1.512  0.00  0.00    +0.129 C 
BRANCH  10  12
ATOM     12  C   UNL     1       0.047  -1.367  -2.067  0.00  0.00    +0.030 A 
ATOM     13  C   UNL     1      -1.278  -1.722  -1.845  0.00  0.00    +0.023 A 
ATOM     14  C   UNL     1      -1.908  -2.602  -2.702  0.00  0.00    +0.002 A 
ATOM     15  C   UNL     1      -1.222  -3.132  -3.780  0.00  0.00    +0.000 A 
ATOM     16  C   UNL     1       0.097  -2.782  -4.003  0.00  0.00    +0.002 A 
ATOM     17  C   UNL     1       0.732  -1.897  -3.154  0.00  0.00    +0.023 A 
ENDBRANCH  10  12
ENDBRANCH   9  10
ENDBRANCH   7   9
ENDBRANCH   1   7
BRANCH   4  18
ATOM     18  C   UNL     1       2.403  -4.694   3.146  0.00  0.00    +0.171 C 
BRANCH  18  19
ATOM     19  C   UNL     1       1.919  -6.121   3.191  0.00  0.00    -0.020 A 
ATOM     20  C   UNL     1       1.684  -6.808   2.014  0.00  0.00    +0.006 A 
ATOM     21  C   UNL     1       1.240  -8.117   2.055  0.00  0.00    +0.000 A 
ATOM     22  C   UNL     1       1.032  -8.738   3.273  0.00  0.00    +0.000 A 
ATOM     23  C   UNL     1       1.268  -8.051   4.449  0.00  0.00    +0.000 A 
ATOM     24  C   UNL     1       1.716  -6.744   4.408  0.00  0.00    +0.006 A 
ENDBRANCH  18  19
BRANCH  18  25
ATOM     25  C   UNL     1       3.885  -4.675   2.875  0.00  0.00    +0.134 A 
ATOM     26  N   UNL     1       4.451  -4.903   1.721  0.00  0.00    -0.238 NA
ATOM     27  C   UNL     1       5.782  -4.801   1.853  0.00  0.00    +0.130 A 
ATOM     28  C   UNL     1       6.051  -4.498   3.138  0.00  0.00    +0.106 A 
ATOM     29  N   UNL     1       4.848  -4.413   3.785  0.00  0.00    -0.336 N 
ATOM     30  C   UNL     1       4.644  -4.099   5.201  0.00  0.00    +0.150 C 
ENDBRANCH  18  25
ENDBRANCH   4  18
TORSDOF 7
