REMARK  Name = ZINC38197330
REMARK  3 active torsions:
REMARK  status: ('A' for Active; 'I' for Inactive)
REMARK    1  A    between atoms: C_4  and  C_7
REMARK    2  A    between atoms: C_7  and  N_8
REMARK    3  A    between atoms: C_17  and  C_31
REMARK                            x       y       z     vdW  Elec       q    Type
REMARK                         _______ _______ _______ _____ _____    ______ ____
ROOT
ATOM      1  N   UNL     1       4.152  -0.952   1.338  0.00  0.00    -0.237 N 
ATOM      2  C   UNL     1       4.915  -0.088   2.020  0.00  0.00    +0.227 C 
ATOM      3  O   UNL     1       5.324   0.972   1.598  0.00  0.00    -0.275 OA
ATOM      4  C   UNL     1       5.185  -0.647   3.400  0.00  0.00    +0.101 C 
ATOM      5  C   UNL     1       4.439  -1.993   3.399  0.00  0.00    +0.114 C 
ATOM      6  C   UNL     1       3.820  -2.056   2.019  0.00  0.00    +0.228 C 
ATOM      7  O   UNL     1       3.135  -2.963   1.597  0.00  0.00    -0.275 OA
ATOM      8  C   UNL     1       5.420  -3.172   3.575  0.00  0.00    +0.134 C 
ATOM      9  C   UNL     1       6.183  -2.876   4.857  0.00  0.00    -0.022 A 
ATOM     10  C   UNL     1       6.233  -3.703   5.943  0.00  0.00    +0.005 A 
ATOM     11  C   UNL     1       6.970  -3.307   7.052  0.00  0.00    +0.000 A 
ATOM     12  C   UNL     1       7.639  -2.097   7.052  0.00  0.00    +0.000 A 
ATOM     13  C   UNL     1       7.585  -1.262   5.944  0.00  0.00    +0.004 A 
ATOM     14  C   UNL     1       6.858  -1.657   4.857  0.00  0.00    -0.035 A 
ATOM     15  C   UNL     1       6.707  -0.840   3.567  0.00  0.00    +0.062 C 
ATOM     16  C   UNL     1       7.122  -1.775   2.442  0.00  0.00    -0.035 A 
ATOM     17  C   UNL     1       6.442  -3.018   2.460  0.00  0.00    -0.022 A 
ATOM     18  C   UNL     1       6.712  -3.966   1.514  0.00  0.00    +0.005 A 
ATOM     19  C   UNL     1       7.673  -3.693   0.549  0.00  0.00    +0.000 A 
ATOM     20  C   UNL     1       8.342  -2.483   0.549  0.00  0.00    +0.000 A 
ATOM     21  C   UNL     1       8.061  -1.485   1.494  0.00  0.00    +0.004 A 
ENDROOT
BRANCH   8  22
ATOM     22  C   UNL     1       4.736  -4.515   3.569  0.00  0.00    +0.371 C 
ATOM     23  O   UNL     1       5.327  -5.498   3.159  0.00  0.00    -0.245 OA
ATOM     24  O   UNL     1       3.591  -4.618   3.976  0.00  0.00    -0.245 OA
ENDBRANCH   8  22
BRANCH   1  25
ATOM     25  C   UNL     1       3.711  -0.707  -0.038  0.00  0.00    +0.151 C 
BRANCH  25  29
ATOM     26  C   UNL     1      -0.017   1.378   0.010  0.00  0.00    +0.000 A 
ATOM     27  C   UNL     1       1.171   2.086   0.002  0.00  0.00    +0.000 A 
ATOM     28  C   UNL     1       2.377   1.411  -0.013  0.00  0.00    +0.005 A 
ATOM     29  C   UNL     1       2.396   0.029  -0.020  0.00  0.00    -0.030 A 
ATOM     30  C   UNL     1       1.208  -0.679  -0.012  0.00  0.00    +0.005 A 
ATOM     31  C   UNL     1       0.002  -0.004   0.002  0.00  0.00    +0.000 A 
ENDBRANCH  25  29
ENDBRANCH   1  25
TORSDOF 3
