REMARK  Name = ZINC09359506
REMARK  9 active torsions:
REMARK  status: ('A' for Active; 'I' for Inactive)
REMARK    1  A    between atoms: C_4  and  C_7
REMARK    2  A    between atoms: C_7  and  C_8
REMARK    3  A    between atoms: C_8  and  C_10
REMARK    4  A    between atoms: C_8  and  N_30
REMARK    5  A    between atoms: C_15  and  C_19
REMARK    6  A    between atoms: C_25  and  C_27
REMARK    7  A    between atoms: C_31  and  O_33
REMARK    8  A    between atoms: O_33  and  C_34
REMARK    9  A    between atoms: C_34  and  C_35
REMARK                            x       y       z     vdW  Elec       q    Type
REMARK                         _______ _______ _______ _____ _____    ______ ____
ROOT
ATOM      1  C   UNL     1      -0.136   1.189   4.869  0.00  0.00    +0.166 C 
ENDROOT
BRANCH   1   2
ATOM      2  C   UNL     1      -0.559   2.074   6.013  0.00  0.00    +0.236 C 
ATOM      3  O   UNL     1      -1.458   2.874   5.860  0.00  0.00    -0.274 OA
ATOM      4  N   UNL     1       0.060   1.976   7.206  0.00  0.00    -0.300 N 
ATOM      5  C   UNL     1       1.215   1.083   7.378  0.00  0.00    +0.108 C 
ATOM      6  C   UNL     1       2.379   1.899   7.962  0.00  0.00    +0.032 C 
ATOM      7  C   UNL     1       1.918   2.586   9.249  0.00  0.00    +0.078 C 
ATOM      8  C   UNL     1       0.769   3.546   8.933  0.00  0.00    +0.032 C 
ATOM      9  C   UNL     1      -0.410   2.754   8.360  0.00  0.00    +0.108 C 
BRANCH   7  10
ATOM     10  C   UNL     1       3.068   3.357   9.845  0.00  0.00    +0.219 C 
ATOM     11  O   UNL     1       2.977   4.557  10.002  0.00  0.00    -0.275 OA
ATOM     12  N   UNL     1       4.197   2.715  10.204  0.00  0.00    -0.290 N 
ATOM     13  C   UNL     1       4.441   1.267  10.069  0.00  0.00    +0.108 C 
ATOM     14  C   UNL     1       5.524   0.947  11.130  0.00  0.00    +0.021 C 
ATOM     15  C   UNL     1       6.412   2.217  11.060  0.00  0.00    +0.033 C 
ATOM     16  C   UNL     1       5.391   3.342  10.789  0.00  0.00    +0.162 C 
BRANCH  16  17
ATOM     17  C   UNL     1       5.971   4.341   9.821  0.00  0.00    +0.231 C 
ATOM     18  O   UNL     1       5.442   4.519   8.744  0.00  0.00    -0.274 OA
ATOM     19  N   UNL     1       7.075   5.038  10.153  0.00  0.00    -0.328 N 
ATOM     20  H   UNL     1       7.498   4.896  11.015  0.00  0.00    +0.145 HD
ATOM     21  H   UNL     1       7.449   5.681   9.531  0.00  0.00    +0.145 HD
ENDBRANCH  16  17
ENDBRANCH   7  10
ENDBRANCH   1   2
BRANCH   1  22
ATOM     22  N   UNL     1      -0.526   1.810   3.601  0.00  0.00    -0.269 N 
ATOM     23  C   UNL     1       0.144   1.512   2.470  0.00  0.00    +0.401 C 
ATOM     24  O   UNL     1       1.071   0.728   2.502  0.00  0.00    -0.226 OA
ATOM     25  H   UNL     1      -1.267   2.436   3.575  0.00  0.00    +0.153 HD
BRANCH  23  26
ATOM     26  O   UNL     1      -0.215   2.083   1.304  0.00  0.00    -0.446 OA
BRANCH  26  27
ATOM     27  C   UNL     1       0.551   1.715   0.127  0.00  0.00    +0.269 C 
BRANCH  27  28
ATOM     28  C   UNL     1       0.009   2.447  -1.074  0.00  0.00    -0.010 A 
ATOM     29  C   UNL     1      -0.993   1.877  -1.837  0.00  0.00    +0.007 A 
ATOM     30  C   UNL     1      -1.493   2.551  -2.936  0.00  0.00    +0.000 A 
ATOM     31  C   UNL     1      -0.985   3.791  -3.276  0.00  0.00    +0.000 A 
ATOM     32  C   UNL     1       0.020   4.359  -2.516  0.00  0.00    +0.000 A 
ATOM     33  C   UNL     1       0.516   3.687  -1.415  0.00  0.00    +0.007 A 
ENDBRANCH  27  28
ENDBRANCH  26  27
ENDBRANCH  23  26
ENDBRANCH   1  22
BRANCH   1  34
ATOM     34  C   UNL     1      -0.816  -0.175   4.999  0.00  0.00    +0.067 C 
BRANCH  34  38
ATOM     35  C   UNL     1       0.703  -2.817   2.006  0.00  0.00    +0.000 A 
ATOM     36  C   UNL     1       1.317  -2.747   3.242  0.00  0.00    +0.000 A 
ATOM     37  C   UNL     1       0.826  -1.892   4.211  0.00  0.00    +0.004 A 
ATOM     38  C   UNL     1      -0.280  -1.107   3.943  0.00  0.00    -0.045 A 
ATOM     39  C   UNL     1      -0.898  -1.181   2.709  0.00  0.00    +0.004 A 
ATOM     40  C   UNL     1      -0.404  -2.033   1.739  0.00  0.00    +0.000 A 
ENDBRANCH  34  38
ENDBRANCH   1  34
TORSDOF 9
