REMARK  Name = ZINC39895107
REMARK  13 active torsions:
REMARK  status: ('A' for Active; 'I' for Inactive)
REMARK    1  A    between atoms: C_1  and  C_2
REMARK    2  A    between atoms: C_2  and  C_3
REMARK    3  A    between atoms: C_10  and  N_17
REMARK    4  A    between atoms: C_11  and  C_12
REMARK    5  A    between atoms: C_12  and  O_14
REMARK    6  A    between atoms: O_14  and  C_15
REMARK    7  A    between atoms: C_15  and  C_16
REMARK    8  A    between atoms: C_18  and  C_20
REMARK    9  A    between atoms: C_20  and  S_21
REMARK   10  A    between atoms: S_21  and  C_22
REMARK   11  A    between atoms: N_26  and  C_27
REMARK   12  A    between atoms: C_30  and  O_33
REMARK   13  A    between atoms: O_33  and  C_34
REMARK                            x       y       z     vdW  Elec       q    Type
REMARK                         _______ _______ _______ _____ _____    ______ ____
ROOT
ATOM      1  N   UNL     1       5.696  -2.002  -4.931  0.00  0.00    -0.279 N 
ATOM      2  C   UNL     1       6.804  -1.236  -4.912  0.00  0.00    +0.228 C 
ATOM      3  O   UNL     1       6.882  -0.302  -4.142  0.00  0.00    -0.275 OA
ATOM      4  H   UNL     1       5.633  -2.749  -5.547  0.00  0.00    +0.155 HD
ENDROOT
BRANCH   1  11
ATOM      5  C   UNL     1       0.718  -0.497  -1.257  0.00  0.00    -0.006 C 
ATOM      6  C   UNL     1       0.637  -2.025  -1.328  0.00  0.00    +0.008 C 
ATOM      7  C   UNL     1       1.128  -2.510  -2.693  0.00  0.00    +0.037 C 
ATOM      8  C   UNL     1       2.496  -1.900  -2.964  0.00  0.00    -0.021 A 
ATOM      9  C   UNL     1       2.931  -0.821  -2.279  0.00  0.00    -0.004 A 
ATOM     10  S   UNL     1       4.540  -0.491  -2.935  0.00  0.00    -0.077 S 
ATOM     11  C   UNL     1       4.645  -1.723  -4.071  0.00  0.00    +0.086 A 
ATOM     12  C   UNL     1       3.439  -2.397  -3.951  0.00  0.00    +0.091 A 
ATOM     13  C   UNL     1       2.195  -0.078  -1.207  0.00  0.00    +0.046 C 
BRANCH   5  15
ATOM     14  C   UNL     1      -0.019   1.526   0.010  0.00  0.00    +0.004 C 
ATOM     15  C   UNL     1       0.002  -0.004   0.002  0.00  0.00    +0.000 C 
ENDBRANCH   5  15
BRANCH  12  16
ATOM     16  C   UNL     1       3.128  -3.561  -4.785  0.00  0.00    +0.342 C 
ATOM     17  O   UNL     1       2.574  -3.410  -5.857  0.00  0.00    -0.245 OA
BRANCH  16  18
ATOM     18  O   UNL     1       3.458  -4.799  -4.364  0.00  0.00    -0.461 OA
BRANCH  18  19
ATOM     19  C   UNL     1       3.125  -5.888  -5.228  0.00  0.00    +0.229 C 
ATOM     20  C   UNL     1       3.573  -7.203  -4.586  0.00  0.00    +0.048 C 
ENDBRANCH  18  19
ENDBRANCH  16  18
ENDBRANCH  12  16
ENDBRANCH   1  11
BRANCH   2  21
ATOM     21  C   UNL     1       7.946  -1.540  -5.847  0.00  0.00    +0.173 C 
BRANCH  21  22
ATOM     22  S   UNL     1       9.280  -0.339  -5.581  0.00  0.00    -0.075 S 
BRANCH  22  23
ATOM     23  C   UNL     1      10.524  -0.823  -6.732  0.00  0.00    +0.214 A 
ATOM     24  N   UNL     1      10.458  -1.827  -7.579  0.00  0.00    -0.101 NA
ATOM     25  N   UNL     1      11.535  -1.902  -8.274  0.00  0.00    -0.022 NA
ATOM     26  N   UNL     1      12.356  -0.969  -7.931  0.00  0.00    -0.038 NA
ATOM     27  N   UNL     1      11.728  -0.226  -6.917  0.00  0.00    -0.187 N 
BRANCH  27  28
ATOM     28  C   UNL     1      12.238   0.893  -6.239  0.00  0.00    +0.070 A 
ATOM     29  C   UNL     1      11.384   1.913  -5.842  0.00  0.00    +0.031 A 
ATOM     30  C   UNL     1      11.886   3.012  -5.175  0.00  0.00    +0.048 A 
ATOM     31  C   UNL     1      13.243   3.099  -4.902  0.00  0.00    +0.120 A 
ATOM     32  C   UNL     1      14.097   2.080  -5.299  0.00  0.00    +0.048 A 
ATOM     33  C   UNL     1      13.595   0.977  -5.961  0.00  0.00    +0.031 A 
BRANCH  31  34
ATOM     34  O   UNL     1      13.737   4.182  -4.245  0.00  0.00    -0.495 OA
ATOM     35  C   UNL     1      15.144   4.204  -3.998  0.00  0.00    +0.277 C 
ENDBRANCH  31  34
ENDBRANCH  27  28
ENDBRANCH  22  23
ENDBRANCH  21  22
ENDBRANCH   2  21
TORSDOF 10
