REMARK  Name = ZINC36146055
REMARK  11 active torsions:
REMARK  status: ('A' for Active; 'I' for Inactive)
REMARK    1  A    between atoms: C_1  and  C_2
REMARK    2  A    between atoms: C_5  and  C_8
REMARK    3  A    between atoms: C_11  and  C_14
REMARK    4  A    between atoms: C_14  and  N_15
REMARK    5  A    between atoms: N_15  and  C_16
REMARK    6  A    between atoms: N_15  and  C_24
REMARK    7  A    between atoms: C_16  and  C_17
REMARK    8  A    between atoms: C_24  and  C_25
REMARK    9  A    between atoms: C_25  and  C_27
REMARK   10  A    between atoms: C_25  and  O_34
REMARK   11  A    between atoms: C_27  and  C_28
REMARK                            x       y       z     vdW  Elec       q    Type
REMARK                         _______ _______ _______ _____ _____    ______ ____
ROOT
ATOM      1  N   UNL     1       0.730  -9.064   0.859  0.00  0.00    +0.386 N 
ATOM      2  H   UNL     1       1.586  -9.536   0.610  0.00  0.00    -0.081 HD
ENDROOT
BRANCH   1   3
ATOM      3  C   UNL     1       1.005  -8.072   1.907  0.00  0.00    -0.030 C 
BRANCH   3   7
ATOM      4  C   UNL     1       3.057  -5.034   1.756  0.00  0.00    +0.091 C 
ATOM      5  N   UNL     1       2.740  -5.265   0.526  0.00  0.00    -0.089 NA
ATOM      6  O   UNL     1       2.041  -6.483   0.358  0.00  0.00    -0.392 OA
ATOM      7  C   UNL     1       2.260  -7.278   1.541  0.00  0.00    +0.194 C 
ATOM      8  C   UNL     1       2.562  -6.193   2.600  0.00  0.00    +0.104 C 
BRANCH   4  13
ATOM      9  C   UNL     1       5.881  -0.414   3.698  0.00  0.00    +0.044 C 
ATOM     10  C   UNL     1       5.142  -1.624   3.189  0.00  0.00    -0.050 A 
ATOM     11  C   UNL     1       4.860  -1.743   1.840  0.00  0.00    +0.004 A 
ATOM     12  C   UNL     1       4.184  -2.848   1.367  0.00  0.00    +0.010 A 
ATOM     13  C   UNL     1       3.782  -3.849   2.254  0.00  0.00    -0.000 A 
ATOM     14  C   UNL     1       4.069  -3.723   3.615  0.00  0.00    +0.010 A 
ATOM     15  C   UNL     1       4.752  -2.615   4.073  0.00  0.00    +0.004 A 
ENDBRANCH   4  13
ENDBRANCH   3   7
ENDBRANCH   1   3
BRANCH   1  16
ATOM     16  C   UNL     1       0.182  -8.388  -0.324  0.00  0.00    -0.043 C 
BRANCH  16  17
ATOM     17  C   UNL     1      -1.025  -7.579   0.074  0.00  0.00    -0.063 A 
ATOM     18  C   UNL     1      -2.265  -8.184   0.162  0.00  0.00    +0.002 A 
ATOM     19  C   UNL     1      -3.373  -7.443   0.527  0.00  0.00    +0.002 A 
ATOM     20  C   UNL     1      -3.242  -6.095   0.805  0.00  0.00    +0.020 A 
ATOM     21  C   UNL     1      -2.002  -5.489   0.718  0.00  0.00    +0.041 A 
ATOM     22  C   UNL     1      -0.892  -6.233   0.358  0.00  0.00    +0.021 A 
ATOM     23 CL   UNL     1      -1.837  -3.796   1.066  0.00  0.00    -0.084 Cl
ENDBRANCH  16  17
ENDBRANCH   1  16
BRANCH   1  24
ATOM     24  C   UNL     1      -0.243 -10.046   1.357  0.00  0.00    -0.046 C 
BRANCH  24  25
ATOM     25  C   UNL     1      -0.223 -11.284   0.459  0.00  0.00    +0.102 C 
BRANCH  25  26
ATOM     26  O   UNL     1      -0.723 -10.942  -0.836  0.00  0.00    -0.393 OA
ATOM     27  H   UNL     1      -1.628 -10.601  -0.831  0.00  0.00    +0.210 HD
ENDBRANCH  25  26
BRANCH  25  28
ATOM     28  C   UNL     1      -1.104 -12.374   1.073  0.00  0.00    +0.064 C 
BRANCH  28  29
ATOM     29  C   UNL     1      -0.988 -13.634   0.255  0.00  0.00    -0.045 A 
ATOM     30  C   UNL     1      -1.849 -13.852  -0.804  0.00  0.00    +0.004 A 
ATOM     31  C   UNL     1      -1.743 -15.008  -1.555  0.00  0.00    +0.000 A 
ATOM     32  C   UNL     1      -0.775 -15.946  -1.246  0.00  0.00    +0.000 A 
ATOM     33  C   UNL     1       0.086 -15.728  -0.187  0.00  0.00    +0.000 A 
ATOM     34  C   UNL     1      -0.018 -14.570   0.561  0.00  0.00    +0.004 A 
ENDBRANCH  28  29
ENDBRANCH  25  28
ENDBRANCH  24  25
ENDBRANCH   1  24
TORSDOF 10
