REMARK  Name = ZINC11867552
REMARK  10 active torsions:
REMARK  status: ('A' for Active; 'I' for Inactive)
REMARK    1  A    between atoms: C_1  and  C_2
REMARK    2  A    between atoms: C_6  and  C_29
REMARK    3  A    between atoms: C_10  and  C_28
REMARK    4  A    between atoms: C_15  and  C_16
REMARK    5  A    between atoms: C_16  and  C_17
REMARK    6  A    between atoms: N_19  and  C_20
REMARK    7  A    between atoms: C_20  and  C_21
REMARK    8  A    between atoms: C_29  and  C_30
REMARK    9  A    between atoms: C_29  and  C_31
REMARK   10  A    between atoms: C_29  and  C_32
REMARK                            x       y       z     vdW  Elec       q    Type
REMARK                         _______ _______ _______ _____ _____    ______ ____
ROOT
ATOM      1  C   UNL     1       1.237  -2.169  -0.022  0.00  0.00    +0.045 C 
ATOM      2  C   UNL     1       1.189  -0.663  -0.013  0.00  0.00    -0.029 A 
ATOM      3  C   UNL     1       2.422   0.130  -0.020  0.00  0.00    +0.022 A 
ATOM      4  C   UNL     1       3.670  -0.492  -0.036  0.00  0.00    +0.023 A 
ATOM      5  C   UNL     1       4.818   0.288  -0.044  0.00  0.00    +0.025 A 
ATOM      6  C   UNL     1       6.257  -0.011  -0.060  0.00  0.00    +0.003 A 
ATOM      7  C   UNL     1       6.883   1.173  -0.060  0.00  0.00    +0.200 A 
ATOM      8  O   UNL     1       5.987   2.175  -0.046  0.00  0.00    -0.462 OA
ATOM      9  C   UNL     1       4.726   1.695  -0.035  0.00  0.00    +0.141 A 
ATOM     10  C   UNL     1       3.481   2.306  -0.019  0.00  0.00    +0.035 A 
ATOM     11  C   UNL     1       2.330   1.538  -0.012  0.00  0.00    +0.146 A 
ATOM     12  O   UNL     1       1.114   2.129   0.003  0.00  0.00    -0.422 OA
ATOM     13  C   UNL     1      -0.017   1.407   0.010  0.00  0.00    +0.341 A 
ATOM     14  O   UNL     1      -1.089   1.985   0.018  0.00  0.00    -0.245 OA
ATOM     15  C   UNL     1       0.002  -0.004   0.002  0.00  0.00    +0.049 A 
ATOM     16  C   UNL     1       3.382   3.810  -0.010  0.00  0.00    +0.051 C 
ENDROOT
BRANCH   6  17
ATOM     17  C   UNL     1       6.898  -1.374  -0.073  0.00  0.00    -0.009 C 
ATOM     18  C   UNL     1       8.420  -1.222  -0.088  0.00  0.00    +0.015 C 
ATOM     19  C   UNL     1       6.475  -2.149   1.176  0.00  0.00    +0.015 C 
ATOM     20  C   UNL     1       6.449  -2.136  -1.322  0.00  0.00    +0.015 C 
ENDBRANCH   6  17
BRANCH  15  21
ATOM     21  C   UNL     1      -1.291  -0.777   0.010  0.00  0.00    +0.138 C 
BRANCH  21  22
ATOM     22  C   UNL     1      -1.736  -1.027  -1.409  0.00  0.00    +0.218 C 
ATOM     23  O   UNL     1      -1.067  -0.618  -2.334  0.00  0.00    -0.275 OA
ATOM     24  N   UNL     1      -2.875  -1.706  -1.648  0.00  0.00    -0.311 N 
ATOM     25  H   UNL     1      -3.409  -2.033  -0.908  0.00  0.00    +0.149 HD
BRANCH  24  26
ATOM     26  C   UNL     1      -3.307  -1.949  -3.027  0.00  0.00    +0.139 C 
BRANCH  26  27
ATOM     27  C   UNL     1      -4.601  -2.722  -3.019  0.00  0.00    -0.030 A 
ATOM     28  C   UNL     1      -4.579  -4.104  -3.032  0.00  0.00    +0.008 A 
ATOM     29  C   UNL     1      -5.764  -4.815  -3.021  0.00  0.00    +0.038 A 
ATOM     30  C   UNL     1      -6.974  -4.141  -3.006  0.00  0.00    +0.123 A 
ATOM     31  C   UNL     1      -6.995  -2.757  -2.998  0.00  0.00    +0.038 A 
ATOM     32  C   UNL     1      -5.808  -2.049  -3.004  0.00  0.00    +0.008 A 
ATOM     33  F   UNL     1      -8.134  -4.834  -2.999  0.00  0.00    -0.205 F 
ENDBRANCH  26  27
ENDBRANCH  24  26
ENDBRANCH  21  22
ENDBRANCH  15  21
TORSDOF 5
