REMARK  Name = ZINC13314951
REMARK  15 active torsions:
REMARK  status: ('A' for Active; 'I' for Inactive)
REMARK    1  A    between atoms: C_1  and  C_2
REMARK    2  A    between atoms: C_4  and  C_30
REMARK    3  A    between atoms: C_6  and  O_8
REMARK    4  A    between atoms: O_8  and  C_9
REMARK    5  A    between atoms: C_9  and  C_10
REMARK    6  A    between atoms: C_10  and  N_11
REMARK    7  A    between atoms: N_11  and  C_12
REMARK    8  A    between atoms: N_11  and  S_13
REMARK    9  A    between atoms: S_13  and  C_16
REMARK   10  A    between atoms: C_18  and  C_26
REMARK   11  A    between atoms: C_20  and  O_24
REMARK   12  A    between atoms: C_21  and  O_22
REMARK   13  A    between atoms: O_22  and  C_23
REMARK   14  A    between atoms: O_24  and  C_25
REMARK   15  A    between atoms: C_27  and  C_28
REMARK                            x       y       z     vdW  Elec       q    Type
REMARK                         _______ _______ _______ _____ _____    ______ ____
ROOT
ATOM      1  S   UNL     1       6.867   2.650  -1.120  0.00  0.00    +0.064 S 
ATOM      2  O   UNL     1       7.948   2.881  -2.013  0.00  0.00    -0.153 OA
ATOM      3  O   UNL     1       7.063   2.387   0.263  0.00  0.00    -0.153 OA
ENDROOT
BRANCH   1   4
ATOM      4  C   UNL     1       5.961   1.284  -1.768  0.00  0.00    +0.151 A 
ATOM      5  C   UNL     1       6.369   0.684  -2.940  0.00  0.00    +0.040 A 
ATOM      6  C   UNL     1       5.653  -0.404  -3.453  0.00  0.00    -0.019 A 
ATOM      7  C   UNL     1       4.518  -0.871  -2.779  0.00  0.00    +0.057 A 
ATOM      8  C   UNL     1       4.115  -0.261  -1.609  0.00  0.00    +0.164 A 
ATOM      9  C   UNL     1       4.836   0.820  -1.100  0.00  0.00    +0.188 A 
BRANCH   9  10
ATOM     10  O   UNL     1       4.437   1.419   0.051  0.00  0.00    -0.490 OA
ATOM     11  C   UNL     1       3.365   2.360  -0.045  0.00  0.00    +0.277 C 
ENDBRANCH   9  10
BRANCH   8  12
ATOM     12  O   UNL     1       3.014  -0.712  -0.951  0.00  0.00    -0.491 OA
ATOM     13  C   UNL     1       2.391  -1.892  -1.462  0.00  0.00    +0.277 C 
ENDBRANCH   8  12
BRANCH   6  14
ATOM     14  C   UNL     1       6.087  -1.049  -4.700  0.00  0.00    +0.015 C 
ATOM     15  C   UNL     1       5.392  -2.095  -5.197  0.00  0.00    +0.096 C 
BRANCH  15  16
ATOM     16  C   UNL     1       5.811  -2.718  -6.400  0.00  0.00    +0.380 C 
ATOM     17  O   UNL     1       6.797  -2.310  -6.984  0.00  0.00    -0.241 OA
ATOM     18  O   UNL     1       5.117  -3.763  -6.896  0.00  0.00    -0.241 OA
ENDBRANCH  15  16
ENDBRANCH   6  14
ENDBRANCH   1   4
BRANCH   1  19
ATOM     19  N   UNL     1       5.883   3.978  -1.214  0.00  0.00    -0.176 NA
ATOM     20  C   UNL     1       5.379   4.605   0.010  0.00  0.00    +0.131 C 
BRANCH  19  21
ATOM     21  C   UNL     1       5.516   4.527  -2.522  0.00  0.00    +0.150 C 
BRANCH  21  22
ATOM     22  C   UNL     1       6.370   5.763  -2.814  0.00  0.00    +0.246 C 
BRANCH  22  23
ATOM     23  O   UNL     1       7.741   5.378  -2.933  0.00  0.00    -0.491 OA
BRANCH  23  29
ATOM     24  C   UNL     1       8.731  10.152  -3.154  0.00  0.00    +0.044 C 
ATOM     25  C   UNL     1       9.169   8.712  -3.219  0.00  0.00    -0.047 A 
ATOM     26  C   UNL     1      10.498   8.404  -3.444  0.00  0.00    +0.007 A 
ATOM     27  C   UNL     1      10.905   7.083  -3.498  0.00  0.00    -0.047 A 
ATOM     28  C   UNL     1       9.983   6.068  -3.328  0.00  0.00    +0.049 A 
ATOM     29  C   UNL     1       8.649   6.375  -3.101  0.00  0.00    +0.121 A 
ATOM     30  C   UNL     1       8.244   7.701  -3.047  0.00  0.00    +0.049 A 
ATOM     31  C   UNL     1      12.354   6.751  -3.745  0.00  0.00    +0.044 C 
ENDBRANCH  23  29
ENDBRANCH  22  23
ENDBRANCH  21  22
ENDBRANCH  19  21
ENDBRANCH   1  19
TORSDOF 10
