REMARK  Name = ZINC10785650
REMARK  3 active torsions:
REMARK  status: ('A' for Active; 'I' for Inactive)
REMARK    1  A    between atoms: C_12  and  C_14
REMARK    2  A    between atoms: N_20  and  S_21
REMARK    3  A    between atoms: S_21  and  C_24
REMARK                            x       y       z     vdW  Elec       q    Type
REMARK                         _______ _______ _______ _____ _____    ______ ____
ROOT
ATOM      1  C   UNL     1      -2.489  12.096  -0.483  0.00  0.00    +0.002 A 
ATOM      2  C   UNL     1      -3.503  11.165  -0.352  0.00  0.00    +0.017 A 
ATOM      3  C   UNL     1      -3.192   9.829  -0.287  0.00  0.00    +0.042 A 
ATOM      4  C   UNL     1      -1.863   9.351  -0.347  0.00  0.00    +0.094 A 
ATOM      5  C   UNL     1      -0.852  10.332  -0.481  0.00  0.00    +0.044 A 
ATOM      6  C   UNL     1      -1.173  11.664  -0.546  0.00  0.00    +0.017 A 
ATOM      7 BR   UNL     1       0.961   9.800  -0.571  0.00  0.00    -0.048 Br
ATOM      8  N   UNL     1      -1.719   8.011  -0.265  0.00  0.00    -0.223 NA
ATOM      9  C   UNL     1      -2.742   7.198  -0.146  0.00  0.00    +0.166 A 
ATOM     10  S   UNL     1      -4.127   8.327  -0.124  0.00  0.00    -0.052 S 
ATOM     11  N   UNL     1      -2.747   5.815  -0.054  0.00  0.00    -0.263 N 
ATOM     12  C   UNL     1      -1.585   5.133  -0.090  0.00  0.00    +0.238 C 
ATOM     13  O   UNL     1      -0.535   5.730  -0.202  0.00  0.00    -0.274 OA
ATOM     14  H   UNL     1      -3.587   5.338   0.035  0.00  0.00    +0.157 HD
ENDROOT
BRANCH  12  15
ATOM     15  C   UNL     1      -1.590   3.630   0.010  0.00  0.00    +0.166 C 
ATOM     16  C   UNL     1      -0.848   3.193   1.276  0.00  0.00    +0.030 C 
ATOM     17  C   UNL     1      -0.738   1.667   1.299  0.00  0.00    +0.003 C 
ATOM     18  C   UNL     1       0.061   1.193   0.083  0.00  0.00    +0.017 C 
ATOM     19  C   UNL     1      -0.671   1.607  -1.198  0.00  0.00    +0.110 C 
ATOM     20  N   UNL     1      -0.909   3.056  -1.159  0.00  0.00    -0.164 NA
BRANCH  20  21
ATOM     21  S   UNL     1      -0.418   4.025  -2.409  0.00  0.00    +0.068 S 
ATOM     22  O   UNL     1      -0.352   3.198  -3.562  0.00  0.00    -0.152 OA
ATOM     23  O   UNL     1      -1.222   5.196  -2.356  0.00  0.00    -0.152 OA
BRANCH  21  24
ATOM     24  C   UNL     1       1.233   4.532  -2.057  0.00  0.00    +0.143 A 
ATOM     25  C   UNL     1       2.400   3.930  -2.392  0.00  0.00    +0.036 A 
ATOM     26  C   UNL     1       3.591   4.517  -2.009  0.00  0.00    +0.010 A 
ATOM     27  C   UNL     1       3.557   5.671  -1.299  0.00  0.00    +0.047 A 
ATOM     28  S   UNL     1       1.802   5.967  -1.161  0.00  0.00    -0.077 S 
ENDBRANCH  21  24
ENDBRANCH  20  21
ENDBRANCH  12  15
TORSDOF 3
