REMARK  Name = ZINC15981542
REMARK  9 active torsions:
REMARK  status: ('A' for Active; 'I' for Inactive)
REMARK    1  A    between atoms: C_1  and  C_2
REMARK    2  A    between atoms: C_5  and  C_38
REMARK    3  A    between atoms: N_8  and  S_10
REMARK    4  A    between atoms: S_10  and  C_13
REMARK    5  A    between atoms: C_16  and  C_19
REMARK    6  A    between atoms: C_19  and  O_21
REMARK    7  A    between atoms: O_21  and  C_22
REMARK    8  A    between atoms: C_22  and  C_23
REMARK    9  A    between atoms: C_31  and  C_33
REMARK                            x       y       z     vdW  Elec       q    Type
REMARK                         _______ _______ _______ _____ _____    ______ ____
ROOT
ATOM      1  C   UNL     1      -7.274   0.337   0.142  0.00  0.00    +0.340 C 
ATOM      2  O   UNL     1      -7.874   0.250   1.195  0.00  0.00    -0.245 OA
ENDROOT
BRANCH   1   6
ATOM      3  C   UNL     1      -3.287   1.796   0.081  0.00  0.00    +0.106 A 
ATOM      4  C   UNL     1      -3.903   1.425  -1.101  0.00  0.00    +0.029 A 
ATOM      5  C   UNL     1      -5.196   0.945  -1.088  0.00  0.00    +0.017 A 
ATOM      6  C   UNL     1      -5.888   0.845   0.121  0.00  0.00    +0.059 A 
ATOM      7  C   UNL     1      -5.262   1.227   1.309  0.00  0.00    +0.017 A 
ATOM      8  C   UNL     1      -3.967   1.700   1.282  0.00  0.00    +0.029 A 
BRANCH   3   9
ATOM      9  S   UNL     1      -1.633   2.402   0.056  0.00  0.00    +0.061 S 
ATOM     10  O   UNL     1      -1.475   3.201   1.220  0.00  0.00    -0.153 OA
ATOM     11  O   UNL     1      -1.406   2.910  -1.252  0.00  0.00    -0.153 OA
BRANCH   9  17
ATOM     12  C   UNL     1      -1.988  -1.318  -0.758  0.00  0.00    +0.009 C 
ATOM     13  C   UNL     1      -0.470  -1.126  -0.755  0.00  0.00    +0.002 C 
ATOM     14  C   UNL     1       0.103  -1.613   0.577  0.00  0.00    +0.009 C 
ATOM     15  C   UNL     1      -0.539  -0.834   1.727  0.00  0.00    +0.002 C 
ATOM     16  C   UNL     1      -0.212   0.655   1.575  0.00  0.00    +0.112 C 
ATOM     17  N   UNL     1      -0.630   1.097   0.237  0.00  0.00    -0.176 NA
ATOM     18  C   UNL     1      -0.142   0.359  -0.936  0.00  0.00    +0.112 C 
ATOM     19  C   UNL     1       0.011  -1.343   3.060  0.00  0.00    +0.009 C 
ENDBRANCH   9  17
ENDBRANCH   3   9
ENDBRANCH   1   6
BRANCH   1  20
ATOM     20  O   UNL     1      -7.875  -0.031  -1.006  0.00  0.00    -0.452 OA
BRANCH  20  21
ATOM     21  C   UNL     1      -9.238  -0.521  -0.910  0.00  0.00    +0.328 C 
BRANCH  21  22
ATOM     22  C   UNL     1      -9.741  -0.882  -2.284  0.00  0.00    +0.253 C 
ATOM     23  O   UNL     1      -9.021  -0.740  -3.250  0.00  0.00    -0.272 OA
ATOM     24  N   UNL     1     -10.990  -1.362  -2.440  0.00  0.00    -0.296 N 
ATOM     25  C   UNL     1     -11.872  -1.545  -1.279  0.00  0.00    +0.127 C 
ATOM     26  C   UNL     1     -13.177  -0.771  -1.533  0.00  0.00    +0.127 C 
ATOM     27  N   UNL     1     -13.680  -1.127  -2.867  0.00  0.00    -0.292 N 
ATOM     28  C   UNL     1     -12.796  -0.949  -4.028  0.00  0.00    +0.127 C 
ATOM     29  C   UNL     1     -11.494  -1.718  -3.775  0.00  0.00    +0.127 C 
ATOM     30  C   UNL     1     -14.929  -1.608  -3.023  0.00  0.00    +0.282 C 
ATOM     31  O   UNL     1     -15.603  -1.879  -2.046  0.00  0.00    -0.267 OA
BRANCH  30  32
ATOM     32  C   UNL     1     -15.477  -1.804  -4.369  0.00  0.00    +0.189 A 
ATOM     33  C   UNL     1     -16.660  -2.413  -4.673  0.00  0.00    +0.054 A 
ATOM     34  C   UNL     1     -16.784  -2.380  -6.071  0.00  0.00    +0.042 A 
ATOM     35  C   UNL     1     -15.685  -1.759  -6.553  0.00  0.00    +0.196 A 
ATOM     36  O   UNL     1     -14.902  -1.409  -5.524  0.00  0.00    -0.458 OA
ENDBRANCH  30  32
ENDBRANCH  21  22
ENDBRANCH  20  21
ENDBRANCH   1  20
TORSDOF 7
