REMARK  Name = ZINC40370378
REMARK  6 active torsions:
REMARK  status: ('A' for Active; 'I' for Inactive)
REMARK    1  A    between atoms: C_1  and  C_2
REMARK    2  A    between atoms: C_2  and  C_3
REMARK    3  A    between atoms: C_3  and  C_5
REMARK    4  A    between atoms: C_3  and  N_9
REMARK    5  A    between atoms: N_6  and  O_7
REMARK    6  A    between atoms: C_10  and  C_12
REMARK                            x       y       z     vdW  Elec       q    Type
REMARK                         _______ _______ _______ _____ _____    ______ ____
ROOT
ATOM      1  N   UNL     1       2.125  -0.091  -1.209  0.00  0.00    -0.302 N 
ATOM      2  C   UNL     1       2.487   1.134  -1.640  0.00  0.00    +0.245 C 
ATOM      3  O   UNL     1       1.647   1.901  -2.067  0.00  0.00    -0.270 OA
ATOM      4  H   UNL     1       2.795  -0.703  -0.868  0.00  0.00    +0.150 HD
ENDROOT
BRANCH   2   5
ATOM      5  C   UNL     1       3.907   1.544  -1.592  0.00  0.00    +0.040 A 
ATOM      6  C   UNL     1       4.875   0.663  -1.107  0.00  0.00    +0.051 A 
ATOM      7  C   UNL     1       6.200   1.052  -1.065  0.00  0.00    +0.125 A 
ATOM      8  C   UNL     1       6.568   2.314  -1.502  0.00  0.00    +0.053 A 
ATOM      9  C   UNL     1       5.612   3.192  -1.984  0.00  0.00    +0.021 A 
ATOM     10  C   UNL     1       4.285   2.811  -2.037  0.00  0.00    +0.028 A 
ATOM     11 BR   UNL     1       6.124   4.912  -2.578  0.00  0.00    -0.050 Br
ATOM     12  F   UNL     1       7.138   0.201  -0.596  0.00  0.00    -0.205 F 
ENDBRANCH   2   5
BRANCH   1  13
ATOM     13  C   UNL     1       0.718  -0.497  -1.257  0.00  0.00    +0.139 C 
BRANCH  13  14
ATOM     14  C   UNL     1       0.632  -2.000  -1.327  0.00  0.00    +0.152 C 
ATOM     15  N   UNL     1      -0.408  -2.564  -1.848  0.00  0.00    -0.075 NA
ATOM     16  N   UNL     1       1.661  -2.773  -0.837  0.00  0.00    -0.342 N 
ATOM     17  H   UNL     1       2.441  -2.350  -0.446  0.00  0.00    +0.144 HD
ATOM     18  H   UNL     1       1.605  -3.740  -0.883  0.00  0.00    +0.144 HD
BRANCH  15  19
ATOM     19  O   UNL     1      -0.489  -3.976  -1.915  0.00  0.00    -0.408 OA
ATOM     20  H   UNL     1      -1.303  -4.304  -2.320  0.00  0.00    +0.328 HD
ENDBRANCH  15  19
ENDBRANCH  13  14
BRANCH  13  22
ATOM     21  C   UNL     1      -0.019   1.526   0.010  0.00  0.00    +0.006 C 
ATOM     22  C   UNL     1       0.002  -0.004   0.002  0.00  0.00    +0.027 C 
ENDBRANCH  13  22
ENDBRANCH   1  13
TORSDOF 5
