REMARK  Name = ZINC36500700
REMARK  17 active torsions:
REMARK  status: ('A' for Active; 'I' for Inactive)
REMARK    1  A    between atoms: C_1  and  C_2
REMARK    2  A    between atoms: C_2  and  C_3
REMARK    3  A    between atoms: C_2  and  C_4
REMARK    4  A    between atoms: C_2  and  C_5
REMARK    5  A    between atoms: C_5  and  C_6
REMARK    6  A    between atoms: C_6  and  C_7
REMARK    7  A    between atoms: C_6  and  C_8
REMARK    8  A    between atoms: C_6  and  N_9
REMARK    9  A    between atoms: C_10  and  C_12
REMARK   10  A    between atoms: C_12  and  C_14
REMARK   11  A    between atoms: C_12  and  N_21
REMARK   12  A    between atoms: C_18  and  O_20
REMARK   13  A    between atoms: N_21  and  C_22
REMARK   14  A    between atoms: C_22  and  C_23
REMARK   15  A    between atoms: C_28  and  C_30
REMARK   16  A    between atoms: C_34  and  O_37
REMARK   17  A    between atoms: C_35  and  O_36
REMARK                            x       y       z     vdW  Elec       q    Type
REMARK                         _______ _______ _______ _____ _____    ______ ____
ROOT
ATOM      1  C   UNL     1       5.672  -1.199  -3.443  0.00  0.00    +0.193 C 
ENDROOT
BRANCH   1   2
ATOM      2  C   UNL     1       4.772  -0.685  -4.537  0.00  0.00    -0.015 A 
ATOM      3  C   UNL     1       4.580   0.676  -4.691  0.00  0.00    +0.006 A 
ATOM      4  C   UNL     1       3.755   1.151  -5.694  0.00  0.00    +0.004 A 
ATOM      5  C   UNL     1       3.119   0.266  -6.543  0.00  0.00    +0.045 A 
ATOM      6  C   UNL     1       3.310  -1.099  -6.391  0.00  0.00    +0.117 A 
ATOM      7  C   UNL     1       4.144  -1.573  -5.388  0.00  0.00    +0.051 A 
BRANCH   6   8
ATOM      8  O   UNL     1       2.686  -1.971  -7.226  0.00  0.00    -0.507 OA
ATOM      9  H   UNL     1       3.195  -2.189  -8.019  0.00  0.00    +0.292 HD
ENDBRANCH   6   8
ENDBRANCH   1   2
BRANCH   1  11
ATOM     10  N   UNL     1       3.828  -2.239  -2.164  0.00  0.00    -0.308 N 
ATOM     11  C   UNL     1       4.872  -1.386  -2.180  0.00  0.00    +0.239 C 
ATOM     12  O   UNL     1       5.167  -0.769  -1.178  0.00  0.00    -0.273 OA
ATOM     13  H   UNL     1       3.593  -2.732  -2.965  0.00  0.00    +0.149 HD
BRANCH  10  14
ATOM     14  C   UNL     1       3.050  -2.421  -0.936  0.00  0.00    +0.030 C 
ATOM     15  C   UNL     1       2.606  -1.056  -0.406  0.00  0.00    +0.031 C 
ATOM     16  C   UNL     1       3.914  -3.120   0.116  0.00  0.00    +0.031 C 
BRANCH  14  17
ATOM     17  C   UNL     1       1.818  -3.277  -1.235  0.00  0.00    +0.031 C 
BRANCH  17  19
ATOM     18  C   UNL     1       1.798  -3.012  -3.719  0.00  0.00    +0.010 C 
ATOM     19  C   UNL     1       1.058  -2.681  -2.422  0.00  0.00    -0.036 C 
ATOM     20  C   UNL     1       0.969  -1.162  -2.259  0.00  0.00    +0.010 C 
ATOM     21  C   UNL     1      -0.352  -3.272  -2.474  0.00  0.00    +0.010 C 
ENDBRANCH  17  19
ENDBRANCH  14  17
ENDBRANCH  10  14
ENDBRANCH   1  11
BRANCH   1  22
ATOM     22  N   UNL     1       6.747  -0.234  -3.201  0.00  0.00    -0.275 N 
ATOM     23  C   UNL     1       7.693  -0.029  -4.140  0.00  0.00    +0.252 C 
ATOM     24  O   UNL     1       8.597   0.756  -3.930  0.00  0.00    -0.270 OA
BRANCH  23  25
ATOM     25  C   UNL     1       7.631  -0.759  -5.420  0.00  0.00    +0.082 A 
ATOM     26  C   UNL     1       6.594  -1.664  -5.664  0.00  0.00    +0.017 A 
ATOM     27  C   UNL     1       6.540  -2.343  -6.861  0.00  0.00    +0.005 A 
ATOM     28  C   UNL     1       7.509  -2.135  -7.829  0.00  0.00    +0.049 A 
ATOM     29  C   UNL     1       8.543  -1.242  -7.602  0.00  0.00    +0.159 A 
ATOM     30  C   UNL     1       8.608  -0.545  -6.400  0.00  0.00    +0.171 A 
BRANCH  30  31
ATOM     31  O   UNL     1       9.617   0.336  -6.176  0.00  0.00    -0.503 OA
ATOM     32  H   UNL     1      10.399  -0.058  -5.766  0.00  0.00    +0.292 HD
ENDBRANCH  30  31
BRANCH  29  33
ATOM     33  O   UNL     1       9.491  -1.044  -8.557  0.00  0.00    -0.503 OA
ATOM     34  H   UNL     1       9.279  -0.335  -9.180  0.00  0.00    +0.292 HD
ENDBRANCH  29  33
ENDBRANCH  23  25
BRANCH  22  35
ATOM     35  C   UNL     1       6.795   0.509  -1.940  0.00  0.00    +0.183 C 
BRANCH  35  36
ATOM     36  C   UNL     1       7.387  -0.364  -0.864  0.00  0.00    +0.122 A 
ATOM     37  C   UNL     1       8.679  -0.381  -0.488  0.00  0.00    +0.046 A 
ATOM     38  C   UNL     1       8.791  -1.341   0.545  0.00  0.00    +0.041 A 
ATOM     39  C   UNL     1       7.562  -1.852   0.737  0.00  0.00    +0.195 A 
ATOM     40  O   UNL     1       6.715  -1.253  -0.115  0.00  0.00    -0.466 OA
ENDBRANCH  35  36
ENDBRANCH  22  35
ENDBRANCH   1  22
TORSDOF 12
