REMARK  Name = ZINC42975654
REMARK  7 active torsions:
REMARK  status: ('A' for Active; 'I' for Inactive)
REMARK    1  A    between atoms: C_1  and  C_2
REMARK    2  A    between atoms: C_2  and  C_4
REMARK    3  A    between atoms: C_2  and  N_20
REMARK    4  A    between atoms: N_6  and  C_7
REMARK    5  A    between atoms: C_7  and  C_8
REMARK    6  A    between atoms: N_10  and  C_11
REMARK    7  A    between atoms: C_24  and  O_27
REMARK                            x       y       z     vdW  Elec       q    Type
REMARK                         _______ _______ _______ _____ _____    ______ ____
ROOT
ATOM      1  C   UNL     1       0.851  -0.872   1.314  0.00  0.00    +0.200 C 
ATOM      2  O   UNL     1       1.834  -1.558   1.128  0.00  0.00    -0.278 OA
ATOM      3  N   UNL     1       0.535  -0.472   2.561  0.00  0.00    -0.308 N 
ATOM      4  H   UNL     1      -0.251   0.077   2.710  0.00  0.00    +0.149 HD
ENDROOT
BRANCH   1   6
ATOM      5  C   UNL     1       0.453   0.887  -0.388  0.00  0.00    -0.004 C 
ATOM      6  C   UNL     1      -0.015  -0.467   0.150  0.00  0.00    +0.016 C 
BRANCH   6   7
ATOM      7  N   UNL     1       0.086  -1.477  -0.912  0.00  0.00    +0.389 N 
ATOM      8  C   UNL     1      -0.696  -1.042  -2.076  0.00  0.00    -0.078 C 
ATOM      9  C   UNL     1      -0.528  -2.052  -3.213  0.00  0.00    -0.016 C 
ATOM     10  C   UNL     1      -1.022  -3.424  -2.748  0.00  0.00    +0.027 C 
ATOM     11  C   UNL     1      -0.251  -3.834  -1.490  0.00  0.00    +0.098 C 
ATOM     12  C   UNL     1      -0.429  -2.759  -0.416  0.00  0.00    -0.046 C 
ATOM     13  H   UNL     1       1.053  -1.586  -1.180  0.00  0.00    -0.081 HD
BRANCH  11  14
ATOM     14  O   UNL     1      -0.756  -5.081  -1.007  0.00  0.00    -0.394 OA
ATOM     15  H   UNL     1      -0.677  -5.809  -1.639  0.00  0.00    +0.210 HD
ENDBRANCH  11  14
ENDBRANCH   6   7
ENDBRANCH   1   6
BRANCH   3  16
ATOM     16  C   UNL     1       1.377  -0.867   3.693  0.00  0.00    +0.200 C 
BRANCH  16  17
ATOM     17  C   UNL     1       0.809  -0.294   4.966  0.00  0.00    +0.234 C 
ATOM     18  O   UNL     1      -0.201   0.377   4.931  0.00  0.00    -0.274 OA
ATOM     19  N   UNL     1       1.422  -0.528   6.143  0.00  0.00    -0.282 N 
ATOM     20  H   UNL     1       2.268  -1.003   6.163  0.00  0.00    +0.155 HD
BRANCH  19  21
ATOM     21  C   UNL     1       0.838  -0.086   7.338  0.00  0.00    +0.072 A 
ATOM     22  C   UNL     1      -0.517   0.213   7.380  0.00  0.00    +0.029 A 
ATOM     23  C   UNL     1      -1.092   0.650   8.558  0.00  0.00    +0.043 A 
ATOM     24  C   UNL     1      -0.319   0.790   9.698  0.00  0.00    +0.161 A 
ATOM     25  C   UNL     1       1.035   0.493   9.660  0.00  0.00    +0.195 A 
ATOM     26  C   UNL     1       1.614   0.049   8.483  0.00  0.00    +0.182 A 
ATOM     27  F   UNL     1       2.932  -0.246   8.447  0.00  0.00    -0.200 F 
ATOM     28  F   UNL     1       1.788   0.631  10.773  0.00  0.00    -0.199 F 
ATOM     29  F   UNL     1      -0.884   1.217  10.848  0.00  0.00    -0.202 F 
ENDBRANCH  19  21
ENDBRANCH  16  17
ENDBRANCH   3  16
TORSDOF 6
