REMARK  Name = ZINC39314957
REMARK  9 active torsions:
REMARK  status: ('A' for Active; 'I' for Inactive)
REMARK    1  A    between atoms: C_1  and  C_2
REMARK    2  A    between atoms: C_2  and  C_19
REMARK    3  A    between atoms: C_4  and  C_17
REMARK    4  A    between atoms: C_4  and  C_18
REMARK    5  A    between atoms: C_6  and  S_15
REMARK    6  A    between atoms: N_8  and  C_9
REMARK    7  A    between atoms: S_15  and  C_16
REMARK    8  A    between atoms: C_22  and  O_26
REMARK    9  A    between atoms: C_24  and  O_25
REMARK                            x       y       z     vdW  Elec       q    Type
REMARK                         _______ _______ _______ _____ _____    ______ ____
ROOT
ATOM      1  C   UNL     1      -0.345   1.696   0.262  0.00  0.00    +0.037 C 
ATOM      2  C   UNL     1      -0.471   0.191   0.009  0.00  0.00    +0.058 C 
ATOM      3  C   UNL     1      -1.927  -0.215  -0.183  0.00  0.00    +0.017 C 
ATOM      4  C   UNL     1      -2.672  -0.494   1.114  0.00  0.00    -0.068 C 
ATOM      5  N   UNL     1      -1.908  -1.369   2.006  0.00  0.00    +0.401 N 
ATOM      6  C   UNL     1      -0.607  -0.785   2.346  0.00  0.00    +0.077 C 
ATOM      7  N   UNL     1       0.146  -0.560   1.106  0.00  0.00    -0.325 N 
ATOM      8  C   UNL     1      -3.055   0.802   1.827  0.00  0.00    -0.010 C 
ATOM      9  C   UNL     1      -3.982  -1.230   0.756  0.00  0.00    -0.010 C 
ATOM     10  H   UNL     1      -2.437  -1.521   2.856  0.00  0.00    -0.081 HD
ATOM     11  H   UNL     1      -1.766  -2.263   1.555  0.00  0.00    -0.081 HD
ENDROOT
BRANCH   7  12
ATOM     12  C   UNL     1       1.444  -1.061   0.975  0.00  0.00    +0.030 A 
ATOM     13  C   UNL     1       1.728  -2.011   0.003  0.00  0.00    +0.023 A 
ATOM     14  C   UNL     1       3.012  -2.503  -0.125  0.00  0.00    +0.002 A 
ATOM     15  C   UNL     1       4.014  -2.052   0.714  0.00  0.00    +0.000 A 
ATOM     16  C   UNL     1       3.734  -1.106   1.684  0.00  0.00    +0.002 A 
ATOM     17  C   UNL     1       2.454  -0.605   1.813  0.00  0.00    +0.023 A 
ENDBRANCH   7  12
BRANCH   2  18
ATOM     18  C   UNL     1       0.283  -0.128  -1.256  0.00  0.00    +0.017 A 
ATOM     19  C   UNL     1      -0.330  -0.855  -2.260  0.00  0.00    +0.013 A 
ATOM     20  C   UNL     1       0.358  -1.149  -3.421  0.00  0.00    +0.046 A 
ATOM     21  C   UNL     1       1.667  -0.716  -3.582  0.00  0.00    +0.120 A 
ATOM     22  C   UNL     1       2.284   0.013  -2.577  0.00  0.00    +0.091 A 
ATOM     23  C   UNL     1       1.589   0.312  -1.415  0.00  0.00    +0.126 A 
BRANCH  23  24
ATOM     24  O   UNL     1       2.189   1.031  -0.430  0.00  0.00    -0.506 OA
ATOM     25  H   UNL     1       2.757   0.506   0.149  0.00  0.00    +0.292 HD
ENDBRANCH  23  24
BRANCH  21  26
ATOM     26  O   UNL     1       2.344  -1.006  -4.725  0.00  0.00    -0.507 OA
ATOM     27  H   UNL     1       2.247  -0.341  -5.419  0.00  0.00    +0.292 HD
ENDBRANCH  21  26
ENDBRANCH   2  18
BRANCH   6  28
ATOM     28  S   UNL     1       0.313  -1.946   3.399  0.00  0.00    -0.161 S 
ATOM     29  C   UNL     1       0.287  -3.501   2.465  0.00  0.00    +0.084 C 
ENDBRANCH   6  28
TORSDOF 5
