REMARK  Name = ZINC23635212
REMARK  10 active torsions:
REMARK  status: ('A' for Active; 'I' for Inactive)
REMARK    1  A    between atoms: C_1  and  C_2
REMARK    2  A    between atoms: C_8  and  N_10
REMARK    3  A    between atoms: C_14  and  C_16
REMARK    4  A    between atoms: C_16  and  S_17
REMARK    5  A    between atoms: S_17  and  C_18
REMARK    6  A    between atoms: C_21  and  C_29
REMARK    7  A    between atoms: N_22  and  C_23
REMARK    8  A    between atoms: C_23  and  C_24
REMARK    9  A    between atoms: C_33  and  O_35
REMARK   10  A    between atoms: O_35  and  C_36
REMARK                            x       y       z     vdW  Elec       q    Type
REMARK                         _______ _______ _______ _____ _____    ______ ____
ROOT
ATOM      1  C   UNL     1      -4.603   0.448   0.226  0.00  0.00    +0.193 A 
ATOM      2  N   UNL     1      -3.907  -0.571  -0.226  0.00  0.00    -0.122 NA
ATOM      3  N   UNL     1      -2.670  -0.242  -0.345  0.00  0.00    -0.128 NA
ATOM      4  C   UNL     1      -2.499   1.003   0.032  0.00  0.00    +0.165 A 
ATOM      5  N   UNL     1      -3.733   1.485   0.406  0.00  0.00    -0.295 N 
ENDROOT
BRANCH   4   6
ATOM      6  C   UNL     1      -1.223   1.750   0.047  0.00  0.00    +0.023 A 
ATOM      7  C   UNL     1      -1.228   3.145   0.074  0.00  0.00    +0.012 A 
ATOM      8  C   UNL     1      -0.036   3.839   0.082  0.00  0.00    +0.004 A 
ATOM      9  C   UNL     1       1.167   3.155   0.068  0.00  0.00    +0.045 A 
ATOM     10  C   UNL     1       1.181   1.767   0.046  0.00  0.00    +0.121 A 
ATOM     11  C   UNL     1      -0.010   1.062   0.038  0.00  0.00    +0.057 A 
BRANCH  10  12
ATOM     12  O   UNL     1       2.366   1.101   0.031  0.00  0.00    -0.495 OA
ATOM     13  C   UNL     1       3.556   1.892   0.041  0.00  0.00    +0.277 C 
ENDBRANCH  10  12
ENDBRANCH   4   6
BRANCH   1  14
ATOM     14  S   UNL     1      -6.337   0.472   0.541  0.00  0.00    -0.077 S 
BRANCH  14  15
ATOM     15  C   UNL     1      -6.765  -1.222   0.070  0.00  0.00    +0.173 C 
BRANCH  15  20
ATOM     16  N   UNL     1     -10.666  -4.024  -0.143  0.00  0.00    -0.296 N 
ATOM     17  C   UNL     1     -10.117  -2.827   0.146  0.00  0.00    +0.306 C 
ATOM     18  O   UNL     1     -10.814  -1.923   0.561  0.00  0.00    -0.252 OA
ATOM     19  N   UNL     1      -8.794  -2.634  -0.026  0.00  0.00    -0.239 N 
ATOM     20  C   UNL     1      -8.244  -1.438   0.262  0.00  0.00    +0.231 C 
ATOM     21  O   UNL     1      -8.940  -0.535   0.676  0.00  0.00    -0.274 OA
ATOM     22  H   UNL     1     -10.035  -4.843  -0.518  0.00  0.00    +0.151 HD
ATOM     23  H   UNL     1      -8.163  -3.453  -0.402  0.00  0.00    +0.159 HD
BRANCH  16  30
ATOM     24  C   UNL     1     -11.627  -6.203   1.505  0.00  0.00    +0.009 C 
ATOM     25  C   UNL     1     -12.378  -5.723   0.262  0.00  0.00    +0.006 C 
ATOM     26  C   UNL     1     -11.902  -6.513  -0.959  0.00  0.00    +0.005 C 
ATOM     27  C   UNL     1     -12.653  -6.033  -2.202  0.00  0.00    +0.000 C 
ATOM     28  C   UNL     1     -12.379  -4.543  -2.420  0.00  0.00    +0.002 C 
ATOM     29  C   UNL     1     -12.855  -3.753  -1.199  0.00  0.00    +0.022 C 
ATOM     30  C   UNL     1     -12.104  -4.234   0.044  0.00  0.00    +0.077 C 
ENDBRANCH  16  30
ENDBRANCH  15  20
ENDBRANCH  14  15
ENDBRANCH   1  14
BRANCH   5  31
ATOM     31  C   UNL     1      -4.047   2.829   0.896  0.00  0.00    +0.200 C 
BRANCH  31  32
ATOM     32  C   UNL     1      -4.526   3.682  -0.251  0.00  0.00    +0.125 A 
ATOM     33  C   UNL     1      -5.802   3.812  -0.655  0.00  0.00    +0.046 A 
ATOM     34  C   UNL     1      -5.795   4.703  -1.752  0.00  0.00    +0.041 A 
ATOM     35  C   UNL     1      -4.514   5.059  -1.958  0.00  0.00    +0.195 A 
ATOM     36  O   UNL     1      -3.750   4.437  -1.045  0.00  0.00    -0.466 OA
ENDBRANCH  31  32
ENDBRANCH   5  31
TORSDOF 8
