REMARK  Name = ZINC09195769
REMARK  4 active torsions:
REMARK  status: ('A' for Active; 'I' for Inactive)
REMARK    1  A    between atoms: C_5  and  C_7
REMARK    2  A    between atoms: N_8  and  N_9
REMARK    3  A    between atoms: N_9  and  C_10
REMARK    4  A    between atoms: C_10  and  C_11
REMARK                            x       y       z     vdW  Elec       q    Type
REMARK                         _______ _______ _______ _____ _____    ______ ____
ROOT
ATOM      1  N   UNL     1       3.595   5.955  -0.000  0.00  0.00    -0.265 N 
ATOM      2  H   UNL     1       4.443   5.485  -0.010  0.00  0.00    +0.168 HD
ENDROOT
BRANCH   1   4
ATOM      3  C   UNL     1       2.417   3.936   0.000  0.00  0.00    +0.138 C 
ATOM      4  N   UNL     1       2.394   5.234   0.007  0.00  0.00    -0.194 NA
BRANCH   3   9
ATOM      5  C   UNL     1      -0.013   1.076   0.008  0.00  0.00    +0.001 A 
ATOM      6  C   UNL     1      -1.221   1.750   0.017  0.00  0.00    +0.001 A 
ATOM      7  C   UNL     1      -1.250   3.133   0.030  0.00  0.00    +0.015 A 
ATOM      8  C   UNL     1      -0.071   3.850   0.022  0.00  0.00    +0.022 A 
ATOM      9  C   UNL     1       1.153   3.177   0.008  0.00  0.00    +0.008 A 
ATOM     10  C   UNL     1       1.173   1.780   0.000  0.00  0.00    +0.010 A 
ATOM     11  I   UNL     1      -0.117   5.945   0.033  0.00  0.00    -0.043 I 
ENDBRANCH   3   9
ENDBRANCH   1   4
BRANCH   1  12
ATOM     12  C   UNL     1       3.569   7.420   0.007  0.00  0.00    +0.160 C 
BRANCH  12  13
ATOM     13  C   UNL     1       4.981   7.947  -0.003  0.00  0.00    +0.008 A 
ATOM     14  C   UNL     1       5.638   8.189   1.191  0.00  0.00    +0.047 A 
ATOM     15  C   UNL     1       6.936   8.669   1.181  0.00  0.00    +0.020 A 
ATOM     16  C   UNL     1       7.572   8.916  -0.021  0.00  0.00    +0.003 A 
ATOM     17  C   UNL     1       6.914   8.680  -1.214  0.00  0.00    +0.020 A 
ATOM     18  C   UNL     1       5.619   8.195  -1.205  0.00  0.00    +0.047 A 
ATOM     19 CL   UNL     1       4.792   7.899  -2.703  0.00  0.00    -0.083 Cl
ATOM     20 CL   UNL     1       4.836   7.884   2.700  0.00  0.00    -0.083 Cl
ENDBRANCH  12  13
ENDBRANCH   1  12
TORSDOF 4
