REMARK  Name = ZINC05634102
REMARK  6 active torsions:
REMARK  status: ('A' for Active; 'I' for Inactive)
REMARK    1  A    between atoms: C_6  and  C_7
REMARK    2  A    between atoms: C_7  and  N_48
REMARK    3  A    between atoms: C_10  and  C_13
REMARK    4  A    between atoms: N_15  and  N_16
REMARK    5  A    between atoms: C_17  and  C_18
REMARK    6  A    between atoms: C_21  and  O_24
REMARK                            x       y       z     vdW  Elec       q    Type
REMARK                         _______ _______ _______ _____ _____    ______ ____
ROOT
ATOM      1  C   UNL     1      -9.796   1.021  -0.008  0.00  0.00    -0.078 C 
ATOM      2  C   UNL     1      -8.483   1.805   0.052  0.00  0.00    -0.006 C 
ATOM      3  C   UNL     1      -7.308   0.824   0.041  0.00  0.00    +0.073 C 
ATOM      4  C   UNL     1      -7.390  -0.045  -1.217  0.00  0.00    -0.006 C 
ATOM      5  C   UNL     1      -8.735  -0.775  -1.240  0.00  0.00    -0.078 C 
ATOM      6  N   UNL     1      -9.823   0.225  -1.253  0.00  0.00    +0.382 N 
ATOM      7  H   UNL     1      -9.689   0.854  -2.054  0.00  0.00    -0.081 HD
ENDROOT
BRANCH   3   8
ATOM      8  C   UNL     1      -6.011   1.592   0.039  0.00  0.00    +0.235 C 
ATOM      9  O   UNL     1      -6.024   2.805   0.046  0.00  0.00    -0.274 OA
ATOM     10  N   UNL     1      -4.837   0.931   0.030  0.00  0.00    -0.207 N 
ATOM     11  H   UNL     1      -4.826  -0.039   0.025  0.00  0.00    +0.177 HD
BRANCH  10  12
ATOM     12  N   UNL     1      -3.631   1.645   0.028  0.00  0.00    -0.188 NA
ATOM     13  C   UNL     1      -2.500   1.008   0.019  0.00  0.00    +0.138 C 
BRANCH  13  14
ATOM     14  C   UNL     1      -1.232   1.759   0.017  0.00  0.00    -0.005 A 
ATOM     15  C   UNL     1      -0.013   1.076   0.008  0.00  0.00    +0.013 A 
ATOM     16  C   UNL     1       1.171   1.782   0.001  0.00  0.00    +0.046 A 
ATOM     17  C   UNL     1       1.153   3.171   0.008  0.00  0.00    +0.117 A 
ATOM     18  C   UNL     1      -0.056   3.854   0.023  0.00  0.00    +0.046 A 
ATOM     19  C   UNL     1      -1.244   3.156   0.030  0.00  0.00    +0.013 A 
BRANCH  17  20
ATOM     20  O   UNL     1       2.322   3.863   0.001  0.00  0.00    -0.507 OA
ATOM     21  H   UNL     1       2.652   4.068  -0.885  0.00  0.00    +0.292 HD
ENDBRANCH  17  20
ENDBRANCH  13  14
ENDBRANCH  10  12
ENDBRANCH   3   8
BRANCH   6  22
ATOM     22  C   UNL     1     -11.129  -0.453  -1.390  0.00  0.00    -0.043 C 
BRANCH  22  28
ATOM     23  C   UNL     1     -11.717  -0.344  -3.821  0.00  0.00    +0.003 A 
ATOM     24  C   UNL     1     -11.788  -0.912  -5.079  0.00  0.00    +0.015 A 
ATOM     25  C   UNL     1     -11.365  -2.214  -5.275  0.00  0.00    +0.018 A 
ATOM     26  C   UNL     1     -10.865  -2.946  -4.213  0.00  0.00    +0.015 A 
ATOM     27  C   UNL     1     -10.789  -2.375  -2.956  0.00  0.00    +0.003 A 
ATOM     28  C   UNL     1     -11.212  -1.074  -2.761  0.00  0.00    -0.064 A 
ATOM     29 BR   UNL     1     -11.468  -2.994  -6.995  0.00  0.00    -0.050 Br
ENDBRANCH  22  28
ENDBRANCH   6  22
TORSDOF 6
