REMARK  Name = ZINC18522423
REMARK  7 active torsions:
REMARK  status: ('A' for Active; 'I' for Inactive)
REMARK    1  A    between atoms: C_1  and  C_2
REMARK    2  A    between atoms: C_2  and  C_4
REMARK    3  A    between atoms: C_2  and  S_16
REMARK    4  A    between atoms: N_6  and  C_7
REMARK    5  A    between atoms: N_6  and  C_8
REMARK    6  A    between atoms: S_16  and  C_17
REMARK    7  A    between atoms: N_21  and  C_22
REMARK                            x       y       z     vdW  Elec       q    Type
REMARK                         _______ _______ _______ _____ _____    ______ ____
ROOT
ATOM      1  C   UNL     1       2.922  -6.704   0.476  0.00  0.00    +0.198 A 
ATOM      2  N   UNL     1       2.950  -6.734   1.786  0.00  0.00    -0.120 NA
ATOM      3  N   UNL     1       3.109  -8.067   2.186  0.00  0.00    -0.112 NA
ATOM      4  C   UNL     1       3.175  -8.810   1.109  0.00  0.00    +0.225 A 
ATOM      5  N   UNL     1       3.055  -7.988   0.021  0.00  0.00    -0.258 N 
ATOM      6  N   UNL     1       3.333 -10.189   1.077  0.00  0.00    -0.299 N 
ATOM      7  C   UNL     1       4.603 -10.564   0.405  0.00  0.00    +0.108 C 
ATOM      8  C   UNL     1       4.862 -12.004   0.915  0.00  0.00    +0.020 C 
ATOM      9  C   UNL     1       4.389 -11.941   2.385  0.00  0.00    +0.020 C 
ATOM     10  C   UNL     1       3.421 -10.745   2.445  0.00  0.00    +0.108 C 
ENDROOT
BRANCH   5  11
ATOM     11  C   UNL     1       3.069  -8.391  -1.323  0.00  0.00    +0.053 A 
ATOM     12  C   UNL     1       4.101  -7.987  -2.159  0.00  0.00    +0.026 A 
ATOM     13  C   UNL     1       4.113  -8.384  -3.482  0.00  0.00    +0.003 A 
ATOM     14  C   UNL     1       3.099  -9.185  -3.974  0.00  0.00    +0.020 A 
ATOM     15  C   UNL     1       2.069  -9.590  -3.143  0.00  0.00    +0.043 A 
ATOM     16  C   UNL     1       2.054  -9.198  -1.817  0.00  0.00    +0.046 A 
ATOM     17 CL   UNL     1       0.797 -10.595  -3.764  0.00  0.00    -0.083 Cl
ENDBRANCH   5  11
BRANCH   1  18
ATOM     18  S   UNL     1       2.740  -5.264  -0.524  0.00  0.00    -0.073 S 
BRANCH  18  20
ATOM     19  C   UNL     1       3.923  -3.781   1.447  0.00  0.00    +0.029 C 
ATOM     20  C   UNL     1       2.607  -3.910   0.676  0.00  0.00    +0.137 C 
BRANCH  20  21
ATOM     21  C   UNL     1       2.322  -2.621  -0.050  0.00  0.00    +0.229 C 
ATOM     22  O   UNL     1       2.570  -2.524  -1.234  0.00  0.00    -0.274 OA
ATOM     23  N   UNL     1       1.791  -1.576   0.615  0.00  0.00    -0.299 N 
ATOM     24  C   UNL     1       1.491  -1.694   2.044  0.00  0.00    +0.132 C 
BRANCH  23  25
ATOM     25  C   UNL     1       1.514  -0.323  -0.091  0.00  0.00    +0.098 C 
ATOM     26  C   UNL     1       2.330   0.814   0.546  0.00  0.00    +0.046 C 
ATOM     27  C   UNL     1       1.790   2.165  -0.003  0.00  0.00    +0.168 C 
ATOM     28  S   UNL     1      -0.023   1.835   0.012  0.00  0.00    -0.029 S 
ATOM     29  O   UNL     1      -0.587   2.296  -1.208  0.00  0.00    -0.174 OA
ATOM     30  O   UNL     1      -0.564   2.283   1.247  0.00  0.00    -0.174 OA
ATOM     31  C   UNL     1       0.002  -0.004   0.002  0.00  0.00    +0.188 C 
ENDBRANCH  23  25
ENDBRANCH  20  21
ENDBRANCH  18  20
ENDBRANCH   1  18
TORSDOF 5
