REMARK  Name = ZINC39306047
REMARK  5 active torsions:
REMARK  status: ('A' for Active; 'I' for Inactive)
REMARK    1  A    between atoms: C_6  and  C_7
REMARK    2  A    between atoms: C_10  and  C_13
REMARK    3  A    between atoms: C_13  and  S_14
REMARK    4  A    between atoms: S_14  and  C_15
REMARK    5  A    between atoms: C_21  and  N_23
REMARK                            x       y       z     vdW  Elec       q    Type
REMARK                         _______ _______ _______ _____ _____    ______ ____
ROOT
ATOM      1  C   UNL     1      -1.268  -0.764   0.011  0.00  0.00    +0.168 C 
ATOM      2  N   UNL     1      -2.442  -0.224   0.019  0.00  0.00    -0.067 NA
ATOM      3  O   UNL     1      -3.454  -1.213   0.025  0.00  0.00    -0.369 OA
ATOM      4  C   UNL     1      -2.784  -2.483   0.019  0.00  0.00    +0.302 C 
ATOM      5  N   UNL     1      -1.352  -2.145   0.004  0.00  0.00    -0.289 N 
ATOM      6  H   UNL     1      -0.611  -2.769  -0.007  0.00  0.00    +0.151 HD
ENDROOT
BRANCH   1  12
ATOM      7  C   UNL     1      -0.017   1.391   0.010  0.00  0.00    +0.013 A 
ATOM      8  C   UNL     1       1.170   2.094   0.002  0.00  0.00    +0.021 A 
ATOM      9  C   UNL     1       2.378   1.418  -0.013  0.00  0.00    +0.041 A 
ATOM     10  C   UNL     1       2.403   0.034  -0.021  0.00  0.00    +0.021 A 
ATOM     11  C   UNL     1       1.222  -0.680  -0.013  0.00  0.00    +0.013 A 
ATOM     12  C   UNL     1       0.002  -0.004   0.002  0.00  0.00    +0.018 A 
ATOM     13 CL   UNL     1       3.868   2.310  -0.023  0.00  0.00    -0.084 Cl
ENDBRANCH   1  12
BRANCH   4  14
ATOM     14  C   UNL     1      -3.156  -3.277  -1.235  0.00  0.00    +0.145 C 
BRANCH  14  15
ATOM     15  S   UNL     1      -2.704  -2.323  -2.711  0.00  0.00    -0.082 S 
BRANCH  15  16
ATOM     16  C   UNL     1      -3.189  -3.358  -4.052  0.00  0.00    +0.171 A 
ATOM     17  N   UNL     1      -2.981  -2.935  -5.330  0.00  0.00    -0.302 N 
ATOM     18  H   UNL     1      -2.568  -2.072  -5.494  0.00  0.00    +0.171 HD
ATOM     19  C   UNL     1      -3.346  -3.714  -6.370  0.00  0.00    +0.254 A 
ATOM     20  O   UNL     1      -3.163  -3.342  -7.518  0.00  0.00    -0.268 OA
ATOM     21  C   UNL     1      -3.938  -4.954  -6.109  0.00  0.00    +0.113 A 
ATOM     22  C   UNL     1      -4.128  -5.338  -4.789  0.00  0.00    +0.124 A 
ATOM     23  N   UNL     1      -3.741  -4.527  -3.799  0.00  0.00    -0.209 NA
BRANCH  22  24
ATOM     24  N   UNL     1      -4.710  -6.556  -4.499  0.00  0.00    -0.343 N 
ATOM     25  H   UNL     1      -4.986  -7.145  -5.219  0.00  0.00    +0.144 HD
ATOM     26  H   UNL     1      -4.842  -6.823  -3.576  0.00  0.00    +0.144 HD
ENDBRANCH  22  24
ENDBRANCH  15  16
ENDBRANCH  14  15
ENDBRANCH   4  14
TORSDOF 5
