REMARK  Name = ZINC24879285
REMARK  6 active torsions:
REMARK  status: ('A' for Active; 'I' for Inactive)
REMARK    1  A    between atoms: C_1  and  C_2
REMARK    2  A    between atoms: C_5  and  C_25
REMARK    3  A    between atoms: C_6  and  O_8
REMARK    4  A    between atoms: O_8  and  C_9
REMARK    5  A    between atoms: C_9  and  C_10
REMARK    6  A    between atoms: C_20  and  N_22
REMARK                            x       y       z     vdW  Elec       q    Type
REMARK                         _______ _______ _______ _____ _____    ______ ____
ROOT
ATOM      1  C   UNL     1      -2.463   5.160   0.336  0.00  0.00    +0.257 C 
ATOM      2  O   UNL     1      -3.501   5.782   0.259  0.00  0.00    -0.272 OA
ATOM      3  N   UNL     1      -2.446   3.841   0.059  0.00  0.00    -0.268 N 
ATOM      4  C   UNL     1      -1.176   3.103   0.017  0.00  0.00    +0.114 C 
ATOM      5  C   UNL     1      -1.196   2.206  -1.227  0.00  0.00    +0.024 C 
ATOM      6  C   UNL     1      -2.326   1.187  -1.084  0.00  0.00    +0.038 C 
ATOM      7  C   UNL     1      -3.620   1.877  -0.742  0.00  0.00    -0.024 A 
ATOM      8  C   UNL     1      -3.639   3.151  -0.194  0.00  0.00    +0.040 A 
ATOM      9  C   UNL     1      -4.851   3.758   0.113  0.00  0.00    +0.026 A 
ATOM     10  C   UNL     1      -6.037   3.096  -0.133  0.00  0.00    +0.034 A 
ATOM     11  C   UNL     1      -6.018   1.829  -0.687  0.00  0.00    +0.127 A 
ATOM     12  C   UNL     1      -4.815   1.224  -0.992  0.00  0.00    +0.038 A 
ENDROOT
BRANCH  11  13
ATOM     13  N   UNL     1      -7.290   1.120  -0.952  0.00  0.00    +0.056 N 
ATOM     14  O   UNL     1      -7.275   0.004  -1.440  0.00  0.00    -0.126 OA
ATOM     15  O   UNL     1      -8.352   1.653  -0.683  0.00  0.00    -0.126 OA
ENDBRANCH  11  13
BRANCH   1  16
ATOM     16  C   UNL     1      -1.192   5.862   0.741  0.00  0.00    +0.325 C 
BRANCH  16  17
ATOM     17  O   UNL     1      -1.487   7.214   1.097  0.00  0.00    -0.482 OA
BRANCH  17  23
ATOM     18  C   UNL     1       3.288   7.673   1.974  0.00  0.00    +0.044 C 
ATOM     19  C   UNL     1       1.898   8.252   1.930  0.00  0.00    -0.047 A 
ATOM     20  C   UNL     1       1.690   9.574   2.290  0.00  0.00    +0.004 A 
ATOM     21  C   UNL     1       0.422  10.113   2.254  0.00  0.00    +0.017 A 
ATOM     22  C   UNL     1      -0.659   9.325   1.852  0.00  0.00    +0.078 A 
ATOM     23  C   UNL     1      -0.445   7.989   1.488  0.00  0.00    +0.134 A 
ATOM     24  C   UNL     1       0.837   7.461   1.536  0.00  0.00    +0.049 A 
BRANCH  22  25
ATOM     25  C   UNL     1      -2.018   9.896   1.810  0.00  0.00    +0.245 C 
ATOM     26  O   UNL     1      -2.957   9.207   1.460  0.00  0.00    -0.270 OA
ATOM     27  N   UNL     1      -2.220  11.182   2.161  0.00  0.00    -0.325 N 
ATOM     28  H   UNL     1      -3.234  11.608   2.130  0.00  0.00    +0.145 HD
ATOM     29  H   UNL     1      -1.371  11.805   2.478  0.00  0.00    +0.145 HD
ENDBRANCH  22  25
ENDBRANCH  17  23
ENDBRANCH  16  17
ENDBRANCH   1  16
TORSDOF 5
