REMARK  Name = ZINC34757948
REMARK  7 active torsions:
REMARK  status: ('A' for Active; 'I' for Inactive)
REMARK    1  A    between atoms: C_4  and  C_7
REMARK    2  A    between atoms: C_7  and  N_8
REMARK    3  A    between atoms: C_9  and  C_11
REMARK    4  A    between atoms: C_11  and  S_12
REMARK    5  A    between atoms: S_12  and  C_13
REMARK    6  A    between atoms: N_28  and  C_31
REMARK    7  A    between atoms: C_31  and  C_32
REMARK                            x       y       z     vdW  Elec       q    Type
REMARK                         _______ _______ _______ _____ _____    ______ ____
ROOT
ATOM      1  C   UNL     1       7.648  -3.109   4.681  0.00  0.00    +0.191 A 
ATOM      2  N   UNL     1       8.775  -3.727   5.017  0.00  0.00    -0.206 NA
ATOM      3  C   UNL     1       9.207  -3.769   6.266  0.00  0.00    +0.134 A 
ATOM      4  C   UNL     1       8.443  -3.134   7.285  0.00  0.00    +0.051 A 
ATOM      5  C   UNL     1       8.730  -3.056   8.727  0.00  0.00    -0.025 A 
ATOM      6  C   UNL     1       7.844  -2.394   9.487  0.00  0.00    -0.004 A 
ATOM      7  S   UNL     1       6.590  -1.836   8.357  0.00  0.00    -0.073 S 
ATOM      8  C   UNL     1       7.263  -2.500   6.858  0.00  0.00    +0.115 A 
ATOM      9  N   UNL     1       6.900  -2.497   5.589  0.00  0.00    -0.214 NA
ATOM     10  C   UNL     1       8.237  -2.384  10.941  0.00  0.00    +0.043 C 
ATOM     11  C   UNL     1       9.289  -3.508  11.066  0.00  0.00    +0.010 C 
ATOM     12  C   UNL     1       9.854  -3.568   9.633  0.00  0.00    +0.037 C 
ATOM     13  N   UNL     1      10.385  -4.422   6.578  0.00  0.00    -0.318 N 
ATOM     14  C   UNL     1      10.400  -5.868   6.849  0.00  0.00    +0.088 C 
ATOM     15  C   UNL     1      11.495  -6.511   5.992  0.00  0.00    -0.059 C 
ATOM     16  N   UNL     1      12.774  -5.835   6.244  0.00  0.00    +0.387 N 
ATOM     17  C   UNL     1      12.695  -4.437   5.800  0.00  0.00    -0.059 C 
ATOM     18  C   UNL     1      11.661  -3.691   6.642  0.00  0.00    +0.088 C 
ATOM     19  H   UNL     1      12.979  -5.862   7.231  0.00  0.00    -0.081 HD
ENDROOT
BRANCH   1  20
ATOM     20  S   UNL     1       7.140  -3.097   2.993  0.00  0.00    -0.077 S 
BRANCH  20  21
ATOM     21  C   UNL     1       5.590  -2.156   3.009  0.00  0.00    +0.173 C 
BRANCH  21  23
ATOM     22  N   UNL     1       3.888  -1.411   1.375  0.00  0.00    -0.311 N 
ATOM     23  C   UNL     1       5.041  -2.069   1.608  0.00  0.00    +0.224 C 
ATOM     24  O   UNL     1       5.637  -2.591   0.689  0.00  0.00    -0.275 OA
ATOM     25  H   UNL     1       3.411  -0.994   2.110  0.00  0.00    +0.149 HD
BRANCH  22  26
ATOM     26  C   UNL     1       3.354  -1.327   0.013  0.00  0.00    +0.139 C 
BRANCH  26  30
ATOM     27  C   UNL     1      -0.297   0.890   0.046  0.00  0.00    +0.000 A 
ATOM     28  C   UNL     1       0.908   1.544  -0.135  0.00  0.00    +0.000 A 
ATOM     29  C   UNL     1       2.089   0.827  -0.146  0.00  0.00    +0.005 A 
ATOM     30  C   UNL     1       2.067  -0.544   0.026  0.00  0.00    -0.030 A 
ATOM     31  C   UNL     1       0.862  -1.198   0.208  0.00  0.00    +0.005 A 
ATOM     32  C   UNL     1      -0.319  -0.481   0.218  0.00  0.00    +0.000 A 
ENDBRANCH  26  30
ENDBRANCH  22  26
ENDBRANCH  21  23
ENDBRANCH  20  21
ENDBRANCH   1  20
BRANCH  16  33
ATOM     33  C   UNL     1      13.843  -6.521   5.506  0.00  0.00    +0.019 C 
BRANCH  33  34
ATOM     34  C   UNL     1      15.172  -5.905   5.859  0.00  0.00    +0.199 C 
ATOM     35  O   UNL     1      15.224  -4.984   6.647  0.00  0.00    -0.278 OA
ATOM     36  N   UNL     1      16.303  -6.377   5.299  0.00  0.00    -0.300 N 
ATOM     37  C   UNL     1      16.943  -7.326   4.385  0.00  0.00    +0.126 C 
ATOM     38  C   UNL     1      17.761  -6.298   5.170  0.00  0.00    +0.126 C 
ENDBRANCH  33  34
ENDBRANCH  16  33
TORSDOF 7
