REMARK  Name = ZINC39826289
REMARK  8 active torsions:
REMARK  status: ('A' for Active; 'I' for Inactive)
REMARK    1  A    between atoms: C_1  and  C_2
REMARK    2  A    between atoms: C_7  and  C_8
REMARK    3  A    between atoms: C_14  and  C_28
REMARK    4  A    between atoms: N_16  and  C_19
REMARK    5  A    between atoms: C_19  and  C_20
REMARK    6  A    between atoms: C_23  and  O_26
REMARK    7  A    between atoms: O_26  and  C_27
REMARK    8  A    between atoms: C_32  and  O_34
REMARK                            x       y       z     vdW  Elec       q    Type
REMARK                         _______ _______ _______ _____ _____    ______ ____
ROOT
ATOM      1  C   UNL     1      -0.018   1.503   0.010  0.00  0.00    +0.044 C 
ATOM      2  C   UNL     1       0.002  -0.004   0.002  0.00  0.00    -0.047 A 
ATOM      3  C   UNL     1       0.006  -0.685  -1.195  0.00  0.00    +0.019 A 
ATOM      4  C   UNL     1       0.024  -2.080  -1.194  0.00  0.00    +0.065 A 
ATOM      5  C   UNL     1       0.033  -2.793   0.016  0.00  0.00    +0.140 A 
ATOM      6  C   UNL     1       0.033  -2.080   1.214  0.00  0.00    +0.050 A 
ATOM      7  C   UNL     1       0.023  -0.703   1.200  0.00  0.00    -0.044 A 
ATOM      8  C   UNL     1       0.029   0.053   2.503  0.00  0.00    +0.044 C 
ATOM      9  O   UNL     1       0.037  -4.145   0.057  0.00  0.00    -0.450 OA
ATOM     10  C   UNL     1       0.273  -4.846  -1.070  0.00  0.00    +0.199 A 
ATOM     11  C   UNL     1       0.280  -4.269  -2.308  0.00  0.00    +0.072 A 
ATOM     12  C   UNL     1       0.036  -2.832  -2.474  0.00  0.00    +0.199 A 
ATOM     13  O   UNL     1      -0.140  -2.306  -3.559  0.00  0.00    -0.287 OA
ATOM     14  C   UNL     1       0.566  -5.340  -3.308  0.00  0.00    +0.145 C 
ATOM     15  N   UNL     1       0.729  -6.581  -2.533  0.00  0.00    -0.279 N 
ATOM     16  C   UNL     1       0.557  -6.283  -1.228  0.00  0.00    +0.283 C 
ATOM     17  O   UNL     1       0.627  -7.083  -0.317  0.00  0.00    -0.267 OA
ENDROOT
BRANCH  14  18
ATOM     18  C   UNL     1       1.834  -5.025  -4.060  0.00  0.00    -0.019 A 
ATOM     19  C   UNL     1       3.063  -5.271  -3.475  0.00  0.00    +0.006 A 
ATOM     20  C   UNL     1       4.228  -4.984  -4.161  0.00  0.00    +0.004 A 
ATOM     21  C   UNL     1       4.167  -4.449  -5.434  0.00  0.00    +0.045 A 
ATOM     22  C   UNL     1       2.936  -4.201  -6.022  0.00  0.00    +0.117 A 
ATOM     23  C   UNL     1       1.768  -4.496  -5.334  0.00  0.00    +0.051 A 
BRANCH  22  24
ATOM     24  O   UNL     1       2.873  -3.675  -7.274  0.00  0.00    -0.507 OA
ATOM     25  H   UNL     1       2.855  -4.337  -7.979  0.00  0.00    +0.292 HD
ENDBRANCH  22  24
ENDBRANCH  14  18
BRANCH  15  26
ATOM     26  C   UNL     1       1.025  -7.907  -3.081  0.00  0.00    +0.144 C 
BRANCH  26  27
ATOM     27  C   UNL     1       2.518  -8.101  -3.145  0.00  0.00    -0.030 A 
ATOM     28  C   UNL     1       3.215  -7.725  -4.278  0.00  0.00    +0.009 A 
ATOM     29  C   UNL     1       4.584  -7.903  -4.340  0.00  0.00    +0.046 A 
ATOM     30  C   UNL     1       5.259  -8.459  -3.263  0.00  0.00    +0.120 A 
ATOM     31  C   UNL     1       4.557  -8.836  -2.127  0.00  0.00    +0.046 A 
ATOM     32  C   UNL     1       3.189  -8.651  -2.068  0.00  0.00    +0.009 A 
BRANCH  30  33
ATOM     33  O   UNL     1       6.605  -8.636  -3.321  0.00  0.00    -0.495 OA
ATOM     34  C   UNL     1       7.234  -9.214  -2.176  0.00  0.00    +0.277 C 
ENDBRANCH  30  33
ENDBRANCH  26  27
ENDBRANCH  15  26
TORSDOF 5
