REMARK  Name = ZINC39534974
REMARK  8 active torsions:
REMARK  status: ('A' for Active; 'I' for Inactive)
REMARK    1  A    between atoms: C_1  and  C_2
REMARK    2  A    between atoms: C_2  and  C_4
REMARK    3  A    between atoms: C_2  and  N_12
REMARK    4  A    between atoms: C_13  and  C_15
REMARK    5  A    between atoms: C_15  and  N_16
REMARK    6  A    between atoms: C_19  and  C_23
REMARK    7  A    between atoms: C_19  and  C_30
REMARK    8  A    between atoms: C_23  and  C_24
REMARK                            x       y       z     vdW  Elec       q    Type
REMARK                         _______ _______ _______ _____ _____    ______ ____
ROOT
ATOM      1  N   UNL     1      -3.745  -1.372  -2.769  0.00  0.00    -0.215 N 
ATOM      2  C   UNL     1      -4.338  -0.391  -3.478  0.00  0.00    +0.252 C 
ATOM      3  O   UNL     1      -4.635   0.717  -3.088  0.00  0.00    -0.272 OA
ATOM      4  C   UNL     1      -4.555  -0.963  -4.865  0.00  0.00    +0.142 C 
ATOM      5  N   UNL     1      -4.008  -2.327  -4.767  0.00  0.00    -0.281 N 
ATOM      6  C   UNL     1      -3.555  -2.470  -3.508  0.00  0.00    +0.310 C 
ATOM      7  O   UNL     1      -3.034  -3.485  -3.089  0.00  0.00    -0.252 OA
ATOM      8  H   UNL     1      -3.978  -2.992  -5.473  0.00  0.00    +0.152 HD
ENDROOT
BRANCH   4   9
ATOM      9  C   UNL     1      -6.024  -1.004  -5.197  0.00  0.00    -0.015 A 
ATOM     10  C   UNL     1      -6.619   0.070  -5.833  0.00  0.00    +0.006 A 
ATOM     11  C   UNL     1      -7.967   0.033  -6.138  0.00  0.00    +0.000 A 
ATOM     12  C   UNL     1      -8.720  -1.078  -5.808  0.00  0.00    +0.000 A 
ATOM     13  C   UNL     1      -8.125  -2.152  -5.173  0.00  0.00    +0.000 A 
ATOM     14  C   UNL     1      -6.776  -2.117  -4.872  0.00  0.00    +0.006 A 
ENDBRANCH   4   9
BRANCH   1  15
ATOM     15  C   UNL     1      -3.351  -1.248  -1.363  0.00  0.00    +0.213 C 
BRANCH  15  17
ATOM     16  N   UNL     1      -1.367  -0.520  -0.078  0.00  0.00    -0.307 N 
ATOM     17  C   UNL     1      -1.943  -0.717  -1.280  0.00  0.00    +0.231 C 
ATOM     18  O   UNL     1      -1.329  -0.467  -2.296  0.00  0.00    -0.274 OA
ATOM     19  H   UNL     1      -1.858  -0.721   0.734  0.00  0.00    +0.149 HD
BRANCH  16  21
ATOM     20  C   UNL     1      -0.028   1.526  -0.016  0.00  0.00    +0.033 C 
ATOM     21  C   UNL     1       0.002  -0.004   0.002  0.00  0.00    +0.102 C 
BRANCH  21  22
ATOM     22  C   UNL     1       0.644  -0.479   1.280  0.00  0.00    -0.009 A 
ATOM     23  C   UNL     1      -0.140  -0.766   2.382  0.00  0.00    +0.008 A 
ATOM     24  C   UNL     1       0.448  -1.201   3.555  0.00  0.00    +0.020 A 
ATOM     25  C   UNL     1       1.821  -1.350   3.626  0.00  0.00    +0.042 A 
ATOM     26  C   UNL     1       2.606  -1.063   2.524  0.00  0.00    +0.040 A 
ATOM     27  C   UNL     1       2.017  -0.632   1.349  0.00  0.00    +0.047 A 
ATOM     28 CL   UNL     1       3.001  -0.278  -0.037  0.00  0.00    -0.083 Cl
ATOM     29 CL   UNL     1       2.560  -1.897   5.099  0.00  0.00    -0.083 Cl
ENDBRANCH  21  22
ENDBRANCH  16  21
ENDBRANCH  15  17
ENDBRANCH   1  15
BRANCH   4  30
ATOM     30  C   UNL     1      -3.788  -0.149  -5.909  0.00  0.00    +0.075 C 
BRANCH  30  31
ATOM     31  C   UNL     1      -2.308  -0.272  -5.653  0.00  0.00    -0.045 A 
ATOM     32  C   UNL     1      -1.674   0.627  -4.816  0.00  0.00    +0.004 A 
ATOM     33  C   UNL     1      -0.317   0.515  -4.581  0.00  0.00    +0.000 A 
ATOM     34  C   UNL     1       0.407  -0.497  -5.183  0.00  0.00    +0.000 A 
ATOM     35  C   UNL     1      -0.226  -1.397  -6.020  0.00  0.00    +0.000 A 
ATOM     36  C   UNL     1      -1.585  -1.287  -6.251  0.00  0.00    +0.004 A 
ENDBRANCH  30  31
ENDBRANCH   4  30
TORSDOF 7
