REMARK  Name = ZINC39695910
REMARK  11 active torsions:
REMARK  status: ('A' for Active; 'I' for Inactive)
REMARK    1  A    between atoms: C_1  and  C_2
REMARK    2  A    between atoms: C_2  and  C_3
REMARK    3  A    between atoms: C_3  and  C_4
REMARK    4  A    between atoms: C_4  and  C_6
REMARK    5  A    between atoms: C_4  and  C_7
REMARK    6  A    between atoms: C_11  and  C_20
REMARK    7  A    between atoms: N_22  and  C_23
REMARK    8  A    between atoms: C_23  and  C_25
REMARK    9  A    between atoms: C_23  and  C_26
REMARK   10  A    between atoms: C_29  and  C_32
REMARK   11  A    between atoms: C_32  and  C_33
REMARK                            x       y       z     vdW  Elec       q    Type
REMARK                         _______ _______ _______ _____ _____    ______ ____
ROOT
ATOM      1  C   UNL     1       1.789  -2.745  -2.502  0.00  0.00    +0.218 C 
ATOM      2  O   UNL     1       2.452  -2.031  -3.224  0.00  0.00    -0.275 OA
ATOM      3  N   UNL     1       1.722  -4.070  -2.742  0.00  0.00    -0.300 N 
ATOM      4  C   UNL     1       0.886  -5.077  -2.046  0.00  0.00    +0.121 C 
ATOM      5  C   UNL     1       0.401  -6.023  -3.168  0.00  0.00    +0.100 C 
ATOM      6  C   UNL     1       1.443  -5.869  -4.289  0.00  0.00    -0.004 C 
ATOM      7  C   UNL     1       2.461  -4.847  -3.765  0.00  0.00    +0.115 C 
ATOM      8  C   UNL     1       0.780  -5.342  -5.558  0.00  0.00    -0.010 C 
ATOM      9  C   UNL     1       1.824  -5.252  -6.674  0.00  0.00    -0.082 C 
ATOM     10  N   UNL     1       2.401  -6.580  -6.915  0.00  0.00    +0.379 N 
ATOM     11  C   UNL     1       3.117  -7.040  -5.719  0.00  0.00    -0.082 C 
ATOM     12  C   UNL     1       2.127  -7.205  -4.562  0.00  0.00    -0.010 C 
ATOM     13  H   UNL     1       1.663  -7.231  -7.135  0.00  0.00    -0.086 HD
ATOM     14  H   UNL     1       3.044  -6.529  -7.691  0.00  0.00    -0.086 HD
ENDROOT
BRANCH   5  15
ATOM     15  C   UNL     1       0.365  -7.447  -2.674  0.00  0.00    +0.219 C 
ATOM     16  O   UNL     1       1.132  -7.808  -1.808  0.00  0.00    -0.275 OA
ATOM     17  N   UNL     1      -0.521  -8.318  -3.196  0.00  0.00    -0.308 N 
ATOM     18  H   UNL     1      -1.135  -8.029  -3.889  0.00  0.00    +0.149 HD
BRANCH  17  19
ATOM     19  C   UNL     1      -0.557  -9.702  -2.716  0.00  0.00    +0.100 C 
ATOM     20  C   UNL     1      -1.434  -9.786  -1.466  0.00  0.00    +0.033 C 
BRANCH  19  21
ATOM     21  C   UNL     1      -1.128 -10.591  -3.791  0.00  0.00    -0.027 A 
ATOM     22  C   UNL     1      -2.193 -10.154  -4.556  0.00  0.00    +0.006 A 
ATOM     23  C   UNL     1      -2.716 -10.970  -5.542  0.00  0.00    +0.004 A 
ATOM     24  C   UNL     1      -2.175 -12.223  -5.761  0.00  0.00    -0.048 A 
ATOM     25  C   UNL     1      -1.110 -12.660  -4.996  0.00  0.00    +0.004 A 
ATOM     26  C   UNL     1      -0.583 -11.842  -4.014  0.00  0.00    +0.006 A 
BRANCH  24  27
ATOM     27  C   UNL     1      -2.747 -13.113  -6.835  0.00  0.00    +0.032 C 
ATOM     28  C   UNL     1      -2.021 -12.849  -8.156  0.00  0.00    +0.009 C 
ENDBRANCH  24  27
ENDBRANCH  19  21
ENDBRANCH  17  19
ENDBRANCH   5  15
BRANCH   1  29
ATOM     29  C   UNL     1       1.040  -2.151  -1.336  0.00  0.00    +0.072 C 
ATOM     30  C   UNL     1      -0.355  -1.720  -1.793  0.00  0.00    +0.017 C 
BRANCH  29  31
ATOM     31  C   UNL     1       1.802  -0.935  -0.807  0.00  0.00    +0.012 C 
BRANCH  31  33
ATOM     32  C   UNL     1       1.872   0.810   0.980  0.00  0.00    +0.004 C 
ATOM     33  C   UNL     1       1.110  -0.407   0.451  0.00  0.00    -0.003 C 
ENDBRANCH  31  33
ENDBRANCH  29  31
ENDBRANCH   1  29
TORSDOF 7
