REMARK  Name = ZINC39674562
REMARK  9 active torsions:
REMARK  status: ('A' for Active; 'I' for Inactive)
REMARK    1  A    between atoms: C_1  and  C_2
REMARK    2  A    between atoms: C_7  and  C_8
REMARK    3  A    between atoms: C_8  and  C_9
REMARK    4  A    between atoms: C_13  and  C_22
REMARK    5  A    between atoms: N_24  and  C_25
REMARK    6  A    between atoms: C_25  and  C_27
REMARK    7  A    between atoms: C_25  and  C_28
REMARK    8  A    between atoms: C_29  and  C_35
REMARK    9  A    between atoms: C_32  and  C_34
REMARK                            x       y       z     vdW  Elec       q    Type
REMARK                         _______ _______ _______ _____ _____    ______ ____
ROOT
ATOM      1  C   UNL     1      -2.035   0.711   2.808  0.00  0.00    +0.220 C 
ATOM      2  O   UNL     1      -3.035   0.437   2.179  0.00  0.00    -0.275 OA
ATOM      3  N   UNL     1      -2.140   1.298   4.017  0.00  0.00    -0.300 N 
ATOM      4  C   UNL     1      -1.043   1.710   4.925  0.00  0.00    +0.121 C 
ATOM      5  C   UNL     1      -1.511   3.058   5.516  0.00  0.00    +0.100 C 
ATOM      6  C   UNL     1      -3.044   3.029   5.393  0.00  0.00    -0.004 C 
ATOM      7  C   UNL     1      -3.377   1.682   4.737  0.00  0.00    +0.115 C 
ATOM      8  C   UNL     1      -3.525   4.174   4.507  0.00  0.00    -0.010 C 
ATOM      9  C   UNL     1      -5.055   4.159   4.447  0.00  0.00    -0.082 C 
ATOM     10  N   UNL     1      -5.601   4.300   5.802  0.00  0.00    +0.379 N 
ATOM     11  C   UNL     1      -5.210   3.147   6.622  0.00  0.00    -0.082 C 
ATOM     12  C   UNL     1      -3.687   3.119   6.774  0.00  0.00    -0.010 C 
ATOM     13  H   UNL     1      -5.244   5.145   6.221  0.00  0.00    -0.086 HD
ATOM     14  H   UNL     1      -6.608   4.350   5.753  0.00  0.00    -0.086 HD
ENDROOT
BRANCH   5  15
ATOM     15  C   UNL     1      -1.100   3.169   6.961  0.00  0.00    +0.219 C 
ATOM     16  O   UNL     1      -1.052   2.176   7.656  0.00  0.00    -0.275 OA
ATOM     17  N   UNL     1      -0.785   4.371   7.482  0.00  0.00    -0.309 N 
ATOM     18  H   UNL     1      -0.823   5.165   6.927  0.00  0.00    +0.149 HD
BRANCH  17  19
ATOM     19  C   UNL     1      -0.386   4.479   8.888  0.00  0.00    +0.100 C 
ATOM     20  C   UNL     1      -1.634   4.588   9.766  0.00  0.00    +0.033 C 
BRANCH  19  21
ATOM     21  C   UNL     1       0.470   5.705   9.075  0.00  0.00    -0.001 C 
ATOM     22  C   UNL     1       1.676   5.788   9.639  0.00  0.00    +0.063 C 
ATOM     23  N   UNL     1       2.127   7.062   9.623  0.00  0.00    -0.159 NA
ATOM     24  N   UNL     1       1.355   7.872   9.104  0.00  0.00    -0.180 NA
ATOM     25  C   UNL     1       0.162   7.133   8.658  0.00  0.00    +0.154 C 
ATOM     26  C   UNL     1      -1.089   7.647   9.374  0.00  0.00    +0.039 C 
ATOM     27  C   UNL     1       2.433   4.620  10.216  0.00  0.00    +0.067 C 
ENDBRANCH  19  21
ENDBRANCH  17  19
ENDBRANCH   5  15
BRANCH   1  28
ATOM     28  C   UNL     1      -0.676   0.396   2.239  0.00  0.00    +0.131 C 
BRANCH  28  35
ATOM     29  C   UNL     1      -0.979   2.034  -0.121  0.00  0.00    +0.044 C 
ATOM     30  C   UNL     1      -0.980   0.532  -0.241  0.00  0.00    -0.047 A 
ATOM     31  C   UNL     1      -1.121  -0.062  -1.482  0.00  0.00    +0.003 A 
ATOM     32  C   UNL     1      -1.123  -1.439  -1.593  0.00  0.00    +0.000 A 
ATOM     33  C   UNL     1      -0.983  -2.224  -0.463  0.00  0.00    +0.000 A 
ATOM     34  C   UNL     1      -0.842  -1.630   0.777  0.00  0.00    +0.004 A 
ATOM     35  C   UNL     1      -0.836  -0.252   0.887  0.00  0.00    -0.036 A 
ENDBRANCH  28  35
ENDBRANCH   1  28
TORSDOF 5
