REMARK  Name = ZINC03846557
REMARK  9 active torsions:
REMARK  status: ('A' for Active; 'I' for Inactive)
REMARK    1  A    between atoms: C_1  and  N_2
REMARK    2  A    between atoms: C_11  and  C_14
REMARK    3  A    between atoms: C_14  and  C_16
REMARK    4  A    between atoms: C_16  and  C_17
REMARK    5  A    between atoms: C_17  and  C_19
REMARK    6  A    between atoms: C_17  and  N_26
REMARK    7  A    between atoms: C_24  and  O_25
REMARK    8  A    between atoms: N_26  and  C_27
REMARK    9  A    between atoms: C_33  and  N_37
REMARK                            x       y       z     vdW  Elec       q    Type
REMARK                         _______ _______ _______ _____ _____    ______ ____
ROOT
ATOM      1  C   UNL     1       1.377   5.283   0.085  0.00  0.00    +0.112 C 
ENDROOT
BRANCH   1   2
ATOM      2  C   UNL     1       2.522   5.992   0.761  0.00  0.00    +0.014 A 
ATOM      3  C   UNL     1       3.378   6.784   0.021  0.00  0.00    +0.009 A 
ATOM      4  C   UNL     1       4.426   7.439   0.642  0.00  0.00    +0.001 A 
ATOM      5  C   UNL     1       4.626   7.293   2.003  0.00  0.00    +0.004 A 
ATOM      6  C   UNL     1       3.775   6.498   2.746  0.00  0.00    +0.046 A 
ATOM      7  C   UNL     1       2.720   5.845   2.126  0.00  0.00    +0.122 A 
BRANCH   7   8
ATOM      8  O   UNL     1       1.881   5.062   2.856  0.00  0.00    -0.506 OA
ATOM      9  H   UNL     1       2.039   4.947   3.938  0.00  0.00    +0.292 HD
ENDBRANCH   7   8
ENDBRANCH   1   2
BRANCH   1  10
ATOM     10  N   UNL     1       1.083   5.938  -1.192  0.00  0.00    -0.336 N 
ATOM     11  H   UNL     1       1.526   5.553  -2.122  0.00  0.00    +0.147 HD
BRANCH  10  12
ATOM     12  C   UNL     1       0.242   7.048  -1.228  0.00  0.00    +0.037 A 
ATOM     13  C   UNL     1      -0.169   7.649  -0.056  0.00  0.00    +0.023 A 
ATOM     14  C   UNL     1      -1.004   8.760  -0.083  0.00  0.00    +0.002 A 
ATOM     15  C   UNL     1      -1.447   9.279  -1.262  0.00  0.00    +0.009 A 
ATOM     16  C   UNL     1      -1.056   8.692  -2.477  0.00  0.00    -0.014 A 
ATOM     17  C   UNL     1      -0.202   7.563  -2.463  0.00  0.00    +0.024 A 
ATOM     18  C   UNL     1       0.189   6.976  -3.683  0.00  0.00    +0.034 A 
ATOM     19  C   UNL     1      -0.268   7.511  -4.870  0.00  0.00    +0.023 A 
ATOM     20  C   UNL     1      -1.108   8.620  -4.872  0.00  0.00    +0.002 A 
ATOM     21  C   UNL     1      -1.500   9.207  -3.708  0.00  0.00    +0.009 A 
BRANCH  18  22
ATOM     22  N   UNL     1       1.030   5.865  -3.691  0.00  0.00    -0.357 N 
ATOM     23  H   UNL     1       1.332   5.411  -4.646  0.00  0.00    +0.142 HD
ATOM     24  H   UNL     1       1.392   5.443  -2.742  0.00  0.00    +0.142 HD
ENDBRANCH  18  22
ENDBRANCH  10  12
ENDBRANCH   1  10
BRANCH   1  25
ATOM     25  C   UNL     1       1.758   3.823  -0.166  0.00  0.00    +0.107 C 
BRANCH  25  26
ATOM     26  C   UNL     1       0.572   3.083  -0.730  0.00  0.00    +0.174 C 
ATOM     27  O   UNL     1      -0.477   3.668  -0.913  0.00  0.00    -0.292 OA
BRANCH  26  38
ATOM     28  C   UNL     1      -1.525  -0.957  -2.424  0.00  0.00    +0.152 C 
ATOM     29  N   UNL     1      -0.337  -0.295  -1.879  0.00  0.00    -0.310 N 
ATOM     30  C   UNL     1       0.813  -1.039  -1.705  0.00  0.00    +0.055 A 
ATOM     31  C   UNL     1       0.835  -2.390  -2.042  0.00  0.00    +0.026 A 
ATOM     32  C   UNL     1       1.986  -3.126  -1.865  0.00  0.00    +0.002 A 
ATOM     33  C   UNL     1       3.132  -2.536  -1.352  0.00  0.00    +0.001 A 
ATOM     34  C   UNL     1       3.133  -1.201  -1.012  0.00  0.00    +0.014 A 
ATOM     35  C   UNL     1       1.974  -0.444  -1.186  0.00  0.00    +0.046 A 
ATOM     36  C   UNL     1       1.942   0.988  -0.830  0.00  0.00    +0.204 A 
ATOM     37  O   UNL     1       2.924   1.550  -0.376  0.00  0.00    -0.286 OA
ATOM     38  C   UNL     1       0.680   1.709  -1.046  0.00  0.00    +0.129 A 
ATOM     39  C   UNL     1      -0.412   1.011  -1.569  0.00  0.00    +0.266 A 
ATOM     40  O   UNL     1      -1.571   1.666  -1.774  0.00  0.00    -0.267 OA
ENDBRANCH  26  38
ENDBRANCH  25  26
ENDBRANCH   1  25
TORSDOF 8
