REMARK  Name = ZINC44854918
REMARK  8 active torsions:
REMARK  status: ('A' for Active; 'I' for Inactive)
REMARK    1  A    between atoms: C_1  and  C_2
REMARK    2  A    between atoms: N_7  and  C_9
REMARK    3  A    between atoms: C_12  and  C_15
REMARK    4  A    between atoms: C_15  and  C_17
REMARK    5  A    between atoms: C_15  and  N_18
REMARK    6  A    between atoms: C_19  and  C_21
REMARK    7  A    between atoms: N_26  and  C_28
REMARK    8  A    between atoms: C_28  and  C_29
REMARK                            x       y       z     vdW  Elec       q    Type
REMARK                         _______ _______ _______ _____ _____    ______ ____
ROOT
ATOM      1  N   UNL     1      -0.019  -6.446   5.517  0.00  0.00    -0.309 N 
ATOM      2  C   UNL     1       0.096  -7.087   6.697  0.00  0.00    +0.215 C 
ATOM      3  O   UNL     1      -0.538  -6.706   7.658  0.00  0.00    -0.276 OA
ATOM      4  H   UNL     1       0.488  -6.750   4.748  0.00  0.00    +0.149 HD
ENDROOT
BRANCH   2   5
ATOM      5  C   UNL     1       1.011  -8.278   6.821  0.00  0.00    +0.058 C 
ATOM      6  C   UNL     1       0.561  -9.373   5.850  0.00  0.00    +0.009 C 
ATOM      7  C   UNL     1       1.449 -10.606   6.039  0.00  0.00    -0.018 C 
ATOM      8  C   UNL     1       1.377 -11.060   7.499  0.00  0.00    -0.078 C 
ATOM      9  N   UNL     1       1.844  -9.980   8.375  0.00  0.00    +0.383 N 
ATOM     10  C   UNL     1       0.956  -8.818   8.252  0.00  0.00    -0.066 C 
ATOM     11  H   UNL     1       2.781  -9.714   8.110  0.00  0.00    -0.081 HD
BRANCH   9  12
ATOM     12  C   UNL     1       1.847 -10.447   9.768  0.00  0.00    -0.043 C 
BRANCH  12  13
ATOM     13  C   UNL     1       2.857 -11.554   9.925  0.00  0.00    -0.063 A 
ATOM     14  C   UNL     1       2.479 -12.868   9.722  0.00  0.00    +0.002 A 
ATOM     15  C   UNL     1       3.406 -13.884   9.865  0.00  0.00    +0.002 A 
ATOM     16  C   UNL     1       4.710 -13.586  10.212  0.00  0.00    +0.020 A 
ATOM     17  C   UNL     1       5.089 -12.271  10.416  0.00  0.00    +0.041 A 
ATOM     18  C   UNL     1       4.162 -11.254  10.266  0.00  0.00    +0.021 A 
ATOM     19 CL   UNL     1       6.727 -11.897  10.852  0.00  0.00    -0.084 Cl
ENDBRANCH  12  13
ENDBRANCH   9  12
ENDBRANCH   2   5
BRANCH   1  20
ATOM     20  C   UNL     1      -0.909  -5.288   5.396  0.00  0.00    +0.100 C 
ATOM     21  C   UNL     1      -2.333  -5.768   5.107  0.00  0.00    +0.033 C 
BRANCH  20  25
ATOM     22  C   UNL     1       0.431  -2.790   2.198  0.00  0.00    +0.030 A 
ATOM     23  C   UNL     1      -0.037  -2.222   3.375  0.00  0.00    +0.023 A 
ATOM     24  C   UNL     1      -0.470  -3.032   4.407  0.00  0.00    +0.007 A 
ATOM     25  C   UNL     1      -0.437  -4.407   4.268  0.00  0.00    -0.027 A 
ATOM     26  C   UNL     1       0.029  -4.976   3.097  0.00  0.00    +0.007 A 
ATOM     27  C   UNL     1       0.458  -4.172   2.060  0.00  0.00    +0.023 A 
BRANCH  22  33
ATOM     28  C   UNL     1       3.428  -2.393  -1.607  0.00  0.00    +0.009 C 
ATOM     29  C   UNL     1       2.839  -1.894  -0.286  0.00  0.00    +0.003 C 
ATOM     30  C   UNL     1       2.657  -0.376  -0.349  0.00  0.00    +0.006 C 
ATOM     31  C   UNL     1       2.098   0.128   0.984  0.00  0.00    +0.019 C 
ATOM     32  C   UNL     1       0.729  -0.513   1.234  0.00  0.00    +0.105 C 
ATOM     33  N   UNL     1       0.869  -1.973   1.153  0.00  0.00    -0.330 N 
ATOM     34  C   UNL     1       1.479  -2.559  -0.049  0.00  0.00    +0.108 C 
ENDBRANCH  22  33
ENDBRANCH  20  25
ENDBRANCH   1  20
TORSDOF 6
