REMARK  Name = ZINC09384483
REMARK  9 active torsions:
REMARK  status: ('A' for Active; 'I' for Inactive)
REMARK    1  A    between atoms: C_1  and  C_2
REMARK    2  A    between atoms: C_2  and  O_3
REMARK    3  A    between atoms: O_3  and  C_4
REMARK    4  A    between atoms: C_7  and  C_9
REMARK    5  A    between atoms: C_13  and  N_14
REMARK    6  A    between atoms: C_15  and  C_17
REMARK    7  A    between atoms: C_20  and  S_23
REMARK    8  A    between atoms: S_23  and  N_26
REMARK    9  A    between atoms: C_30  and  C_33
REMARK                            x       y       z     vdW  Elec       q    Type
REMARK                         _______ _______ _______ _____ _____    ______ ____
ROOT
ATOM      1  N   UNL     1       2.396  -1.475  -0.028  0.00  0.00    -0.275 N 
ATOM      2  C   UNL     1       1.714  -2.637  -0.028  0.00  0.00    +0.249 C 
ATOM      3  O   UNL     1       0.498  -2.628  -0.017  0.00  0.00    -0.270 OA
ATOM      4  H   UNL     1       3.366  -1.482  -0.037  0.00  0.00    +0.156 HD
ENDROOT
BRANCH   2   5
ATOM      5  C   UNL     1       2.443  -3.922  -0.042  0.00  0.00    +0.037 A 
ATOM      6  C   UNL     1       3.838  -3.937  -0.060  0.00  0.00    +0.015 A 
ATOM      7  C   UNL     1       4.513  -5.140  -0.068  0.00  0.00    +0.029 A 
ATOM      8  C   UNL     1       3.809  -6.331  -0.068  0.00  0.00    +0.106 A 
ATOM      9  C   UNL     1       2.425  -6.324  -0.054  0.00  0.00    +0.029 A 
ATOM     10  C   UNL     1       1.738  -5.128  -0.041  0.00  0.00    +0.015 A 
BRANCH   8  11
ATOM     11  S   UNL     1       4.678  -7.864  -0.085  0.00  0.00    +0.061 S 
ATOM     12  O   UNL     1       5.967  -7.605   0.454  0.00  0.00    -0.153 OA
ATOM     13  O   UNL     1       3.801  -8.834   0.469  0.00  0.00    -0.153 OA
BRANCH  11  14
ATOM     14  N   UNL     1       4.904  -8.280  -1.672  0.00  0.00    -0.176 NA
ATOM     15  C   UNL     1       3.909  -9.098  -2.380  0.00  0.00    +0.109 C 
ATOM     16  C   UNL     1       3.501  -8.364  -3.667  0.00  0.00    +0.017 C 
ATOM     17  C   UNL     1       4.753  -8.049  -4.487  0.00  0.00    +0.006 C 
ATOM     18  C   UNL     1       5.675  -7.130  -3.681  0.00  0.00    +0.002 C 
ATOM     19  C   UNL     1       6.106  -7.845  -2.397  0.00  0.00    +0.112 C 
ATOM     20  C   UNL     1       6.912  -6.788  -4.515  0.00  0.00    +0.009 C 
ENDBRANCH  11  14
ENDBRANCH   8  11
ENDBRANCH   2   5
BRANCH   1  25
ATOM     21  C   UNL     1       2.235   1.019  -0.014  0.00  0.00    +0.066 A 
ATOM     22  C   UNL     1       1.282   2.104   0.001  0.00  0.00    +0.022 A 
ATOM     23  C   UNL     1      -0.022   1.776   0.012  0.00  0.00    +0.048 A 
ATOM     24  S   UNL     1       0.002  -0.004   0.002  0.00  0.00    -0.081 S 
ATOM     25  C   UNL     1       1.713  -0.270  -0.016  0.00  0.00    +0.084 A 
BRANCH  21  29
ATOM     26  C   UNL     1       5.477   2.753  -0.036  0.00  0.00    +0.407 C 
ATOM     27  O   UNL     1       6.252   1.818  -0.049  0.00  0.00    -0.226 OA
ATOM     28  N   UNL     1       4.148   2.528  -0.024  0.00  0.00    -0.217 N 
ATOM     29  C   UNL     1       3.679   1.264  -0.027  0.00  0.00    +0.255 C 
ATOM     30  O   UNL     1       4.455   0.327  -0.040  0.00  0.00    -0.270 OA
ATOM     31  H   UNL     1       3.530   3.275  -0.014  0.00  0.00    +0.161 HD
BRANCH  26  32
ATOM     32  O   UNL     1       5.946   4.015  -0.034  0.00  0.00    -0.450 OA
BRANCH  32  34
ATOM     33  C   UNL     1       7.728   5.674  -0.043  0.00  0.00    +0.048 C 
ATOM     34  C   UNL     1       7.388   4.183  -0.047  0.00  0.00    +0.230 C 
ENDBRANCH  32  34
ENDBRANCH  26  32
ENDBRANCH  21  29
ENDBRANCH   1  25
TORSDOF 7
