REMARK  Name = ZINC40000998
REMARK  5 active torsions:
REMARK  status: ('A' for Active; 'I' for Inactive)
REMARK    1  A    between atoms: C_1  and  C_2
REMARK    2  A    between atoms: C_2  and  C_4
REMARK    3  A    between atoms: C_2  and  N_15
REMARK    4  A    between atoms: C_4  and  C_6
REMARK    5  A    between atoms: C_21  and  C_23
REMARK                            x       y       z     vdW  Elec       q    Type
REMARK                         _______ _______ _______ _____ _____    ______ ____
ROOT
ATOM      1  N   UNL     1       0.962  -0.622   0.730  0.00  0.00    -0.290 NA
ATOM      2  C   UNL     1       0.947  -2.087   0.833  0.00  0.00    +0.104 C 
ATOM      3  C   UNL     1       1.344  -2.501   2.254  0.00  0.00    +0.123 C 
ATOM      4  N   UNL     1       2.630  -1.867   2.583  0.00  0.00    -0.296 N 
ATOM      5  C   UNL     1       2.765  -0.417   2.375  0.00  0.00    +0.123 C 
ATOM      6  C   UNL     1       2.312  -0.086   0.949  0.00  0.00    +0.104 C 
ATOM      7  C   UNL     1       3.658  -2.595   3.062  0.00  0.00    +0.260 C 
ATOM      8  O   UNL     1       4.738  -2.075   3.242  0.00  0.00    -0.271 OA
ENDROOT
BRANCH   7   9
ATOM      9  C   UNL     1       3.464  -4.056   3.376  0.00  0.00    +0.296 C 
ATOM     10  C   UNL     1       2.549  -4.207   4.598  0.00  0.00    +0.283 C 
ATOM     11  O   UNL     1       2.397  -5.603   4.876  0.00  0.00    -0.484 OA
ATOM     12  C   UNL     1       3.533  -6.354   4.872  0.00  0.00    +0.162 A 
ATOM     13  C   UNL     1       3.525  -7.603   5.474  0.00  0.00    +0.049 A 
ATOM     14  C   UNL     1       4.669  -8.378   5.476  0.00  0.00    +0.004 A 
ATOM     15  C   UNL     1       5.824  -7.911   4.877  0.00  0.00    +0.004 A 
ATOM     16  C   UNL     1       5.839  -6.666   4.277  0.00  0.00    +0.049 A 
ATOM     17  C   UNL     1       4.695  -5.883   4.273  0.00  0.00    +0.163 A 
ATOM     18  O   UNL     1       4.727  -4.656   3.684  0.00  0.00    -0.473 OA
ENDBRANCH   7   9
BRANCH   1  20
ATOM     19  C   UNL     1       0.354   1.349  -0.590  0.00  0.00    +0.032 C 
ATOM     20  C   UNL     1       0.422  -0.179  -0.562  0.00  0.00    +0.125 C 
BRANCH  20  21
ATOM     21  C   UNL     1      -0.961  -0.748  -0.751  0.00  0.00    +0.178 C 
ATOM     22  O   UNL     1      -1.594  -1.134   0.210  0.00  0.00    -0.291 OA
BRANCH  21  23
ATOM     23  C   UNL     1      -1.519  -0.832  -2.044  0.00  0.00    +0.025 C 
ATOM     24  C   UNL     1      -2.768  -1.318  -2.386  0.00  0.00    +0.006 A 
ATOM     25  C   UNL     1      -3.832  -1.857  -1.626  0.00  0.00    +0.010 A 
ATOM     26  C   UNL     1      -4.967  -2.265  -2.236  0.00  0.00    +0.001 A 
ATOM     27  C   UNL     1      -5.149  -2.178  -3.626  0.00  0.00    +0.002 A 
ATOM     28  C   UNL     1      -4.195  -1.679  -4.442  0.00  0.00    +0.026 A 
ATOM     29  C   UNL     1      -2.927  -1.212  -3.858  0.00  0.00    +0.043 A 
ATOM     30  N   UNL     1      -1.859  -0.698  -4.397  0.00  0.00    -0.380 N 
ATOM     31  C   UNL     1      -0.879  -0.402  -3.346  0.00  0.00    +0.152 C 
ATOM     32  H   UNL     1      -1.732  -0.533  -5.344  0.00  0.00    +0.160 HD
ENDBRANCH  21  23
ENDBRANCH  20  21
ENDBRANCH   1  20
TORSDOF 4
