REMARK  Name = ZINC13134015
REMARK  4 active torsions:
REMARK  status: ('A' for Active; 'I' for Inactive)
REMARK    1  A    between atoms: C_1  and  C_2
REMARK    2  A    between atoms: N_5  and  S_11
REMARK    3  A    between atoms: C_7  and  C_10
REMARK    4  A    between atoms: S_11  and  C_14
REMARK                            x       y       z     vdW  Elec       q    Type
REMARK                         _______ _______ _______ _____ _____    ______ ____
ROOT
ATOM      1  S   UNL     1      -2.225  -3.006  -0.815  0.00  0.00    +0.067 S 
ATOM      2  O   UNL     1      -2.443  -4.211  -0.094  0.00  0.00    -0.152 OA
ATOM      3  O   UNL     1      -3.290  -2.243  -1.363  0.00  0.00    -0.152 OA
ENDROOT
BRANCH   1   7
ATOM      4  C   UNL     1      -0.019   1.526   0.010  0.00  0.00    +0.039 C 
ATOM      5  C   UNL     1       0.002  -0.004   0.002  0.00  0.00    +0.131 C 
ATOM      6  C   UNL     1      -1.436  -0.536   0.015  0.00  0.00    +0.140 C 
ATOM      7  N   UNL     1      -1.389  -1.995   0.196  0.00  0.00    -0.171 NA
ATOM      8  C   UNL     1      -0.578  -2.530   1.302  0.00  0.00    +0.140 C 
ATOM      9  C   UNL     1       0.818  -1.901   1.226  0.00  0.00    +0.131 C 
ATOM     10  O   UNL     1       0.691  -0.479   1.161  0.00  0.00    -0.371 OA
ATOM     11  C   UNL     1       1.621  -2.288   2.469  0.00  0.00    +0.039 C 
ENDBRANCH   1   7
BRANCH   1  12
ATOM     12  C   UNL     1      -1.152  -3.408  -2.154  0.00  0.00    +0.144 A 
ATOM     13  C   UNL     1      -0.279  -4.438  -2.267  0.00  0.00    +0.038 A 
ATOM     14  C   UNL     1       0.470  -4.558  -3.424  0.00  0.00    +0.030 A 
ATOM     15  C   UNL     1       0.307  -3.641  -4.410  0.00  0.00    +0.080 A 
ATOM     16  S   UNL     1      -0.939  -2.568  -3.715  0.00  0.00    -0.057 S 
ATOM     17 CL   UNL     1       1.100  -3.540  -5.951  0.00  0.00    -0.076 Cl
ENDBRANCH   1  12
TORSDOF 2
