REMARK  Name = ZINC36854073
REMARK  7 active torsions:
REMARK  status: ('A' for Active; 'I' for Inactive)
REMARK    1  A    between atoms: C_1  and  C_2
REMARK    2  A    between atoms: C_2  and  C_3
REMARK    3  A    between atoms: C_3  and  C_5
REMARK    4  A    between atoms: C_3  and  N_6
REMARK    5  A    between atoms: C_10  and  N_14
REMARK    6  A    between atoms: N_14  and  C_15
REMARK    7  A    between atoms: C_18  and  C_22
REMARK                            x       y       z     vdW  Elec       q    Type
REMARK                         _______ _______ _______ _____ _____    ______ ____
ROOT
ATOM      1  N   UNL     1       2.125  -0.091  -1.209  0.00  0.00    -0.238 N 
ATOM      2  C   UNL     1       2.959  -0.479  -0.237  0.00  0.00    +0.224 C 
ATOM      3  O   UNL     1       2.664  -1.194   0.697  0.00  0.00    -0.275 OA
ATOM      4  C   UNL     1       4.328   0.114  -0.488  0.00  0.00    +0.128 C 
ATOM      5  C   UNL     1       4.138   0.922  -1.788  0.00  0.00    +0.166 C 
ATOM      6  C   UNL     1       2.684   0.695  -2.138  0.00  0.00    +0.243 C 
ATOM      7  O   UNL     1       2.114   1.154  -3.105  0.00  0.00    -0.273 OA
ENDROOT
BRANCH   1   8
ATOM      8  C   UNL     1       0.718  -0.497  -1.257  0.00  0.00    +0.081 C 
ATOM      9  C   UNL     1       0.630  -2.023  -1.329  0.00  0.00    +0.028 C 
BRANCH   8  11
ATOM     10  C   UNL     1      -0.019   1.526   0.010  0.00  0.00    +0.006 C 
ATOM     11  C   UNL     1       0.002  -0.004   0.002  0.00  0.00    +0.019 C 
ENDBRANCH   8  11
ENDBRANCH   1   8
BRANCH   5  12
ATOM     12  N   UNL     1       5.008   0.405  -2.848  0.00  0.00    -0.332 N 
ATOM     13  H   UNL     1       5.310  -0.516  -2.821  0.00  0.00    +0.147 HD
BRANCH  12  14
ATOM     14  C   UNL     1       5.404   1.240  -3.896  0.00  0.00    +0.042 A 
ATOM     15  C   UNL     1       4.978   2.561  -3.933  0.00  0.00    +0.024 A 
ATOM     16  C   UNL     1       5.370   3.384  -4.970  0.00  0.00    +0.005 A 
ATOM     17  C   UNL     1       6.188   2.893  -5.972  0.00  0.00    -0.049 A 
ATOM     18  C   UNL     1       6.614   1.579  -5.940  0.00  0.00    +0.020 A 
ATOM     19  C   UNL     1       6.229   0.751  -4.902  0.00  0.00    +0.039 A 
ATOM     20 BR   UNL     1       6.819  -1.045  -4.854  0.00  0.00    -0.048 Br
ATOM     21  C   UNL     1       6.614   3.794  -7.103  0.00  0.00    +0.044 C 
ENDBRANCH  12  14
ENDBRANCH   5  12
TORSDOF 4
