REMARK  Name = ZINC22374736
REMARK  12 active torsions:
REMARK  status: ('A' for Active; 'I' for Inactive)
REMARK    1  A    between atoms: C_1  and  C_2
REMARK    2  A    between atoms: C_5  and  N_33
REMARK    3  A    between atoms: C_7  and  N_8
REMARK    4  A    between atoms: N_8  and  C_9
REMARK    5  A    between atoms: N_8  and  S_29
REMARK    6  A    between atoms: C_9  and  C_10
REMARK    7  A    between atoms: N_12  and  C_13
REMARK    8  A    between atoms: C_13  and  C_14
REMARK    9  A    between atoms: C_17  and  O_20
REMARK   10  A    between atoms: O_20  and  C_21
REMARK   11  A    between atoms: C_21  and  C_22
REMARK   12  A    between atoms: S_29  and  C_32
REMARK                            x       y       z     vdW  Elec       q    Type
REMARK                         _______ _______ _______ _____ _____    ______ ____
ROOT
ATOM      1  C   UNL     1      -0.461  -0.118  -2.828  0.00  0.00    +0.232 C 
ATOM      2  O   UNL     1       0.644  -0.607  -2.929  0.00  0.00    -0.274 OA
ATOM      3  N   UNL     1      -1.109  -0.155  -1.646  0.00  0.00    -0.310 N 
ATOM      4  H   UNL     1      -2.111   0.289  -1.554  0.00  0.00    +0.149 HD
ENDROOT
BRANCH   1   5
ATOM      5  C   UNL     1      -1.109   0.533  -4.022  0.00  0.00    +0.226 C 
BRANCH   5   6
ATOM      6  N   UNL     1      -0.210   0.444  -5.175  0.00  0.00    -0.198 N 
BRANCH   6  13
ATOM      7  C   UNL     1      -0.814   2.706  -6.790  0.00  0.00    +0.046 C 
ATOM      8  C   UNL     1       0.534   2.527  -6.141  0.00  0.00    -0.028 A 
ATOM      9  C   UNL     1       1.521   3.477  -6.322  0.00  0.00    +0.007 A 
ATOM     10  C   UNL     1       2.758   3.312  -5.726  0.00  0.00    +0.033 A 
ATOM     11  C   UNL     1       3.012   2.198  -4.948  0.00  0.00    +0.128 A 
ATOM     12  C   UNL     1       2.028   1.247  -4.758  0.00  0.00    +0.057 A 
ATOM     13  C   UNL     1       0.786   1.406  -5.360  0.00  0.00    +0.056 A 
BRANCH  11  14
ATOM     14  N   UNL     1       4.337   2.026  -4.312  0.00  0.00    +0.056 N 
ATOM     15  O   UNL     1       5.204   2.867  -4.474  0.00  0.00    -0.126 OA
ATOM     16  O   UNL     1       4.562   1.045  -3.627  0.00  0.00    -0.126 OA
ENDBRANCH  11  14
ENDBRANCH   6  13
BRANCH   6  17
ATOM     17  S   UNL     1      -0.373  -0.797  -6.259  0.00  0.00    +0.043 S 
ATOM     18  O   UNL     1       0.862  -0.830  -6.962  0.00  0.00    -0.155 OA
ATOM     19  O   UNL     1      -0.791  -1.908  -5.478  0.00  0.00    -0.155 OA
ATOM     20  C   UNL     1      -1.709  -0.275  -7.369  0.00  0.00    +0.218 C 
ENDBRANCH   6  17
ENDBRANCH   5   6
ENDBRANCH   1   5
BRANCH   3  21
ATOM     21  C   UNL     1      -0.478  -0.787  -0.485  0.00  0.00    +0.139 C 
BRANCH  21  22
ATOM     22  C   UNL     1      -1.403  -0.696   0.701  0.00  0.00    -0.030 A 
ATOM     23  C   UNL     1      -1.331   0.392   1.551  0.00  0.00    +0.009 A 
ATOM     24  C   UNL     1      -2.182   0.481   2.635  0.00  0.00    +0.046 A 
ATOM     25  C   UNL     1      -3.102  -0.528   2.878  0.00  0.00    +0.121 A 
ATOM     26  C   UNL     1      -3.169  -1.622   2.027  0.00  0.00    +0.046 A 
ATOM     27  C   UNL     1      -2.320  -1.703   0.940  0.00  0.00    +0.009 A 
BRANCH  25  28
ATOM     28  O   UNL     1      -3.937  -0.446   3.947  0.00  0.00    -0.487 OA
BRANCH  28  29
ATOM     29  C   UNL     1      -3.812   0.709   4.780  0.00  0.00    +0.264 C 
BRANCH  29  30
ATOM     30  C   UNL     1      -4.811   0.626   5.905  0.00  0.00    -0.010 A 
ATOM     31  C   UNL     1      -6.074   1.168   5.749  0.00  0.00    +0.010 A 
ATOM     32  C   UNL     1      -6.992   1.089   6.778  0.00  0.00    +0.039 A 
ATOM     33  C   UNL     1      -6.644   0.477   7.971  0.00  0.00    +0.123 A 
ATOM     34  C   UNL     1      -5.378  -0.060   8.128  0.00  0.00    +0.039 A 
ATOM     35  C   UNL     1      -4.463   0.015   7.095  0.00  0.00    +0.010 A 
ATOM     36  F   UNL     1      -7.540   0.403   8.979  0.00  0.00    -0.205 F 
ENDBRANCH  29  30
ENDBRANCH  28  29
ENDBRANCH  25  28
ENDBRANCH  21  22
ENDBRANCH   3  21
TORSDOF 10
