REMARK  Name = ZINC29910710
REMARK  10 active torsions:
REMARK  status: ('A' for Active; 'I' for Inactive)
REMARK    1  A    between atoms: C_1  and  C_2
REMARK    2  A    between atoms: C_2  and  C_3
REMARK    3  A    between atoms: C_3  and  C_5
REMARK    4  A    between atoms: C_3  and  N_26
REMARK    5  A    between atoms: C_5  and  N_6
REMARK    6  A    between atoms: C_7  and  C_9
REMARK    7  A    between atoms: C_12  and  S_15
REMARK    8  A    between atoms: S_15  and  N_18
REMARK    9  A    between atoms: N_18  and  C_19
REMARK   10  A    between atoms: C_24  and  C_25
REMARK                            x       y       z     vdW  Elec       q    Type
REMARK                         _______ _______ _______ _____ _____    ______ ____
ROOT
ATOM      1  N   UNL     1      -2.667  -1.288   1.881  0.00  0.00    -0.313 N 
ATOM      2  C   UNL     1      -3.178  -0.361   2.715  0.00  0.00    +0.244 C 
ATOM      3  O   UNL     1      -2.517   0.612   3.020  0.00  0.00    -0.270 OA
ATOM      4  H   UNL     1      -3.266  -2.168   1.604  0.00  0.00    +0.149 HD
ENDROOT
BRANCH   2   5
ATOM      5  C   UNL     1      -4.542  -0.528   3.260  0.00  0.00    +0.037 A 
ATOM      6  C   UNL     1      -5.306  -1.641   2.907  0.00  0.00    +0.015 A 
ATOM      7  C   UNL     1      -6.577  -1.794   3.423  0.00  0.00    +0.029 A 
ATOM      8  C   UNL     1      -7.098  -0.840   4.279  0.00  0.00    +0.109 A 
ATOM      9  C   UNL     1      -6.348   0.269   4.629  0.00  0.00    +0.029 A 
ATOM     10  C   UNL     1      -5.074   0.430   4.125  0.00  0.00    +0.015 A 
BRANCH   8  11
ATOM     11  S   UNL     1      -8.724  -1.040   4.929  0.00  0.00    +0.072 S 
ATOM     12  O   UNL     1      -9.012  -2.430   4.883  0.00  0.00    -0.150 OA
ATOM     13  O   UNL     1      -8.774  -0.290   6.135  0.00  0.00    -0.150 OA
BRANCH  11  14
ATOM     14  N   UNL     1      -9.766  -0.306   3.872  0.00  0.00    -0.216 N 
ATOM     15  H   UNL     1     -10.422   0.505   4.221  0.00  0.00    +0.174 HD
BRANCH  14  16
ATOM     16  C   UNL     1      -9.813  -0.717   2.538  0.00  0.00    +0.051 A 
ATOM     17  C   UNL     1      -9.567  -2.044   2.209  0.00  0.00    +0.025 A 
ATOM     18  C   UNL     1      -9.618  -2.448   0.890  0.00  0.00    +0.002 A 
ATOM     19  C   UNL     1      -9.904  -1.530  -0.105  0.00  0.00    +0.000 A 
ATOM     20  C   UNL     1     -10.144  -0.208   0.218  0.00  0.00    +0.005 A 
ATOM     21  C   UNL     1     -10.099   0.202   1.536  0.00  0.00    -0.028 A 
ATOM     22  C   UNL     1     -10.360   1.644   1.887  0.00  0.00    +0.046 C 
ENDBRANCH  14  16
ENDBRANCH  11  14
ENDBRANCH   8  11
ENDBRANCH   2   5
BRANCH   1  23
ATOM     23  C   UNL     1      -1.315  -1.122   1.341  0.00  0.00    +0.089 C 
BRANCH  23  24
ATOM     24  C   UNL     1      -1.029  -2.236   0.332  0.00  0.00    -0.051 C 
BRANCH  24  25
ATOM     25  N   UNL     1      -2.078  -2.247  -0.696  0.00  0.00    +0.385 N 
ATOM     26  C   UNL     1      -2.166  -3.564  -1.347  0.00  0.00    -0.073 C 
ATOM     27  C   UNL     1      -3.481  -3.636  -2.123  0.00  0.00    +0.017 C 
ATOM     28  C   UNL     1      -3.627  -2.418  -3.000  0.00  0.00    -0.048 A 
ATOM     29  C   UNL     1      -4.553  -2.454  -4.032  0.00  0.00    +0.004 A 
ATOM     30  C   UNL     1      -4.721  -1.360  -4.856  0.00  0.00    +0.000 A 
ATOM     31  C   UNL     1      -3.963  -0.222  -4.652  0.00  0.00    +0.000 A 
ATOM     32  C   UNL     1      -3.041  -0.186  -3.626  0.00  0.00    +0.002 A 
ATOM     33  C   UNL     1      -2.869  -1.286  -2.798  0.00  0.00    -0.061 A 
ATOM     34  C   UNL     1      -1.844  -1.201  -1.697  0.00  0.00    -0.042 C 
ATOM     35  H   UNL     1      -3.036  -2.038  -0.197  0.00  0.00    -0.081 HD
ENDBRANCH  24  25
BRANCH  24  37
ATOM     36  C   UNL     1       0.645  -3.138  -1.289  0.00  0.00    +0.002 C 
ATOM     37  C   UNL     1       0.329  -1.990  -0.328  0.00  0.00    -0.017 C 
ENDBRANCH  24  37
ENDBRANCH  23  24
ENDBRANCH   1  23
TORSDOF 8
