REMARK  Name = ZINC63372981
REMARK  9 active torsions:
REMARK  status: ('A' for Active; 'I' for Inactive)
REMARK    1  A    between atoms: C_1  and  C_2
REMARK    2  A    between atoms: C_2  and  C_3
REMARK    3  A    between atoms: C_2  and  C_4
REMARK    4  A    between atoms: C_4  and  C_5
REMARK    5  A    between atoms: C_5  and  N_6
REMARK    6  A    between atoms: C_12  and  C_28
REMARK    7  A    between atoms: C_24  and  C_27
REMARK    8  A    between atoms: C_33  and  O_34
REMARK    9  A    between atoms: O_34  and  C_35
REMARK                            x       y       z     vdW  Elec       q    Type
REMARK                         _______ _______ _______ _____ _____    ______ ____
ROOT
ATOM      1  N   UNL     1       2.873  -0.545  -2.413  0.00  0.00    -0.291 N 
ATOM      2  C   UNL     1       3.486  -1.863  -2.383  0.00  0.00    +0.203 C 
ATOM      3  C   UNL     1       4.164  -2.198  -3.669  0.00  0.00    +0.234 C 
ATOM      4  O   UNL     1       4.711  -3.277  -3.751  0.00  0.00    -0.274 OA
ATOM      5  N   UNL     1       4.213  -1.397  -4.739  0.00  0.00    -0.283 N 
ATOM      6  C   UNL     1       4.960  -1.864  -5.923  0.00  0.00    +0.121 C 
ATOM      7  C   UNL     1       4.013  -1.911  -7.136  0.00  0.00    +0.068 C 
ATOM      8  C   UNL     1       3.250  -0.610  -7.140  0.00  0.00    -0.027 C 
ATOM      9  C   UNL     1       3.059   0.296  -8.090  0.00  0.00    -0.000 A 
ATOM     10  C   UNL     1       3.421   0.312  -9.517  0.00  0.00    +0.010 A 
ATOM     11  C   UNL     1       3.086   1.434 -10.208  0.00  0.00    +0.001 A 
ATOM     12  C   UNL     1       2.435   2.528  -9.630  0.00  0.00    +0.002 A 
ATOM     13  C   UNL     1       2.056   2.595  -8.328  0.00  0.00    +0.026 A 
ATOM     14  C   UNL     1       2.346   1.471  -7.502  0.00  0.00    +0.043 A 
ATOM     15  N   UNL     1       2.079   1.258  -6.247  0.00  0.00    -0.375 N 
ATOM     16  C   UNL     1       2.528  -0.091  -5.902  0.00  0.00    +0.139 C 
ATOM     17  C   UNL     1       3.561  -0.086  -4.770  0.00  0.00    +0.135 C 
ATOM     18  C   UNL     1       2.897   0.253  -3.478  0.00  0.00    +0.242 C 
ATOM     19  O   UNL     1       2.345   1.330  -3.390  0.00  0.00    -0.273 OA
ATOM     20  C   UNL     1       4.614   0.983  -5.068  0.00  0.00    +0.044 C 
ATOM     21  H   UNL     1       1.656   1.888  -5.642  0.00  0.00    +0.160 HD
ENDROOT
BRANCH   7  22
ATOM     22  C   UNL     1       4.811  -2.048  -8.407  0.00  0.00    +0.003 A 
ATOM     23  C   UNL     1       5.737  -1.082  -8.750  0.00  0.00    +0.008 A 
ATOM     24  C   UNL     1       6.468  -1.206  -9.916  0.00  0.00    +0.001 A 
ATOM     25  C   UNL     1       6.275  -2.298 -10.743  0.00  0.00    +0.004 A 
ATOM     26  C   UNL     1       5.350  -3.267 -10.405  0.00  0.00    +0.046 A 
ATOM     27  C   UNL     1       4.619  -3.147  -9.232  0.00  0.00    +0.124 A 
BRANCH  27  28
ATOM     28  O   UNL     1       3.712  -4.101  -8.895  0.00  0.00    -0.495 OA
ATOM     29  C   UNL     1       3.568  -5.204  -9.791  0.00  0.00    +0.277 C 
ENDBRANCH  27  28
ENDBRANCH   7  22
BRANCH   1  30
ATOM     30  C   UNL     1       2.187  -0.073  -1.207  0.00  0.00    +0.108 C 
BRANCH  30  31
ATOM     31  C   UNL     1       0.718  -0.497  -1.257  0.00  0.00    +0.022 C 
BRANCH  31  33
ATOM     32  C   UNL     1      -0.019   1.526   0.010  0.00  0.00    +0.007 C 
ATOM     33  C   UNL     1       0.002  -0.004   0.002  0.00  0.00    -0.016 C 
ATOM     34  C   UNL     1      -1.433  -0.534   0.013  0.00  0.00    +0.007 C 
ENDBRANCH  31  33
ENDBRANCH  30  31
ENDBRANCH   1  30
TORSDOF 5
