REMARK  Name = ZINC21675130
REMARK  11 active torsions:
REMARK  status: ('A' for Active; 'I' for Inactive)
REMARK    1  A    between atoms: C_1  and  C_2
REMARK    2  A    between atoms: C_2  and  C_4
REMARK    3  A    between atoms: C_2  and  O_15
REMARK    4  A    between atoms: N_6  and  C_7
REMARK    5  A    between atoms: O_15  and  C_16
REMARK    6  A    between atoms: C_16  and  C_18
REMARK    7  A    between atoms: C_19  and  C_20
REMARK    8  A    between atoms: C_23  and  S_26
REMARK    9  A    between atoms: S_26  and  N_29
REMARK   10  A    between atoms: N_29  and  C_30
REMARK   11  A    between atoms: C_30  and  C_31
REMARK                            x       y       z     vdW  Elec       q    Type
REMARK                         _______ _______ _______ _____ _____    ______ ____
ROOT
ATOM      1  C   UNL     1      -4.097  -4.651  -1.150  0.00  0.00    +0.092 C 
ATOM      2  C   UNL     1      -4.977  -5.398  -1.848  0.00  0.00    +0.015 C 
ENDROOT
BRANCH   2   3
ATOM      3  C   UNL     1      -4.757  -6.846  -1.996  0.00  0.00    -0.025 A 
ATOM      4  C   UNL     1      -3.635  -7.449  -1.420  0.00  0.00    +0.010 A 
ATOM      5  C   UNL     1      -3.439  -8.807  -1.560  0.00  0.00    +0.029 A 
ATOM      6  C   UNL     1      -4.344  -9.570  -2.276  0.00  0.00    +0.105 A 
ATOM      7  C   UNL     1      -5.454  -8.980  -2.854  0.00  0.00    +0.029 A 
ATOM      8  C   UNL     1      -5.667  -7.624  -2.719  0.00  0.00    +0.010 A 
BRANCH   6   9
ATOM      9  S   UNL     1      -4.081 -11.304  -2.455  0.00  0.00    +0.059 S 
ATOM     10  O   UNL     1      -3.263 -11.704  -1.364  0.00  0.00    -0.153 OA
ATOM     11  O   UNL     1      -5.353 -11.884  -2.706  0.00  0.00    -0.153 OA
BRANCH   9  12
ATOM     12  N   UNL     1      -3.180 -11.524  -3.827  0.00  0.00    -0.183 NA
ATOM     13  H   UNL     1      -3.669 -11.909  -4.734  0.00  0.00    +0.148 HD
BRANCH  12  14
ATOM     14  C   UNL     1      -1.811 -11.008  -3.895  0.00  0.00    +0.180 C 
BRANCH  14  15
ATOM     15  C   UNL     1      -1.094 -11.639  -5.061  0.00  0.00    +0.120 A 
ATOM     16  C   UNL     1      -1.057 -11.157  -6.316  0.00  0.00    +0.046 A 
ATOM     17  C   UNL     1      -0.279 -12.058  -7.078  0.00  0.00    +0.041 A 
ATOM     18  C   UNL     1       0.113 -13.037  -6.243  0.00  0.00    +0.195 A 
ATOM     19  O   UNL     1      -0.378 -12.775  -5.021  0.00  0.00    -0.466 OA
ENDBRANCH  14  15
ENDBRANCH  12  14
ENDBRANCH   9  12
ENDBRANCH   6   9
ENDBRANCH   2   3
BRANCH   1  20
ATOM     20  C   UNL     1      -4.315  -3.212  -1.003  0.00  0.00    +0.333 C 
ATOM     21  O   UNL     1      -5.290  -2.690  -1.509  0.00  0.00    -0.246 OA
BRANCH  20  22
ATOM     22  O   UNL     1      -3.435  -2.464  -0.305  0.00  0.00    -0.449 OA
BRANCH  22  24
ATOM     23  C   UNL     1      -4.564  -0.805   1.042  0.00  0.00    +0.062 C 
ATOM     24  C   UNL     1      -3.711  -1.066  -0.201  0.00  0.00    +0.259 C 
BRANCH  24  25
ATOM     25  C   UNL     1      -2.414  -0.305  -0.090  0.00  0.00    +0.258 C 
ATOM     26  O   UNL     1      -1.359  -0.902  -0.098  0.00  0.00    -0.271 OA
ATOM     27  N   UNL     1      -2.429   1.038   0.019  0.00  0.00    -0.280 N 
ATOM     28  H   UNL     1      -3.385   1.571   0.118  0.00  0.00    +0.155 HD
BRANCH  27  29
ATOM     29  C   UNL     1      -1.224   1.754   0.006  0.00  0.00    +0.069 A 
ATOM     30  C   UNL     1      -0.102   1.217  -0.610  0.00  0.00    +0.029 A 
ATOM     31  C   UNL     1       1.082   1.928  -0.626  0.00  0.00    +0.040 A 
ATOM     32  C   UNL     1       1.154   3.173  -0.025  0.00  0.00    +0.126 A 
ATOM     33  C   UNL     1       0.038   3.710   0.595  0.00  0.00    +0.078 A 
ATOM     34  C   UNL     1      -1.150   3.003   0.614  0.00  0.00    +0.147 A 
ATOM     35  F   UNL     1      -2.239   3.526   1.218  0.00  0.00    -0.203 F 
ATOM     36  F   UNL     1       2.314   3.865  -0.043  0.00  0.00    -0.205 F 
ENDBRANCH  27  29
ENDBRANCH  24  25
ENDBRANCH  22  24
ENDBRANCH  20  22
ENDBRANCH   1  20
TORSDOF 10
