REMARK  Name = ZINC39869616
REMARK  6 active torsions:
REMARK  status: ('A' for Active; 'I' for Inactive)
REMARK    1  A    between atoms: C_1  and  C_2
REMARK    2  A    between atoms: C_5  and  O_24
REMARK    3  A    between atoms: C_6  and  N_8
REMARK    4  A    between atoms: C_14  and  C_15
REMARK    5  A    between atoms: C_19  and  O_21
REMARK    6  A    between atoms: O_21  and  C_22
REMARK                            x       y       z     vdW  Elec       q    Type
REMARK                         _______ _______ _______ _____ _____    ______ ____
ROOT
ATOM      1  N   UNL     1      -1.944  -2.702   2.970  0.00  0.00    -0.293 N 
ATOM      2  C   UNL     1      -1.363  -2.049   4.024  0.00  0.00    +0.156 C 
ATOM      3  N   UNL     1      -1.230  -0.745   4.209  0.00  0.00    -0.154 NA
ATOM      4  C   UNL     1      -0.647  -0.239   5.273  0.00  0.00    +0.276 C 
ATOM      5  O   UNL     1      -0.530   0.965   5.433  0.00  0.00    -0.267 OA
ATOM      6  C   UNL     1      -0.138  -1.214   6.269  0.00  0.00    +0.079 C 
ATOM      7  C   UNL     1       0.498  -1.001   7.447  0.00  0.00    +0.028 C 
ATOM      8  S   UNL     1      -0.608  -2.750   5.483  0.00  0.00    -0.051 S 
ATOM      9  H   UNL     1      -2.015  -3.670   2.979  0.00  0.00    +0.154 HD
ENDROOT
BRANCH   1  15
ATOM     10  C   UNL     1      -2.791   1.634   0.813  0.00  0.00    +0.044 C 
ATOM     11  C   UNL     1      -2.860   0.128   0.807  0.00  0.00    -0.048 A 
ATOM     12  C   UNL     1      -3.410  -0.533  -0.276  0.00  0.00    +0.007 A 
ATOM     13  C   UNL     1      -3.476  -1.913  -0.287  0.00  0.00    +0.047 A 
ATOM     14  C   UNL     1      -2.991  -2.639   0.788  0.00  0.00    +0.138 A 
ATOM     15  C   UNL     1      -2.436  -1.974   1.880  0.00  0.00    +0.075 A 
ATOM     16  C   UNL     1      -2.369  -0.588   1.882  0.00  0.00    +0.030 A 
BRANCH  14  17
ATOM     17  O   UNL     1      -3.055  -3.998   0.779  0.00  0.00    -0.505 OA
ATOM     18  H   UNL     1      -2.279  -4.426   0.393  0.00  0.00    +0.292 HD
ENDBRANCH  14  17
ENDBRANCH   1  15
BRANCH   7  19
ATOM     19  C   UNL     1       0.719  -2.119   8.376  0.00  0.00    -0.020 A 
ATOM     20  C   UNL     1       1.523  -1.943   9.508  0.00  0.00    +0.008 A 
ATOM     21  C   UNL     1       1.727  -2.994  10.377  0.00  0.00    +0.004 A 
ATOM     22  C   UNL     1       1.139  -4.223  10.134  0.00  0.00    +0.045 A 
ATOM     23  C   UNL     1       0.340  -4.408   9.014  0.00  0.00    +0.121 A 
ATOM     24  C   UNL     1       0.122  -3.360   8.136  0.00  0.00    +0.053 A 
BRANCH  23  25
ATOM     25  O   UNL     1      -0.234  -5.618   8.782  0.00  0.00    -0.495 OA
ATOM     26  C   UNL     1       0.028  -6.653   9.731  0.00  0.00    +0.277 C 
ENDBRANCH  23  25
ENDBRANCH   7  19
TORSDOF 4
