REMARK  Name = ZINC04497812
REMARK  14 active torsions:
REMARK  status: ('A' for Active; 'I' for Inactive)
REMARK    1  A    between atoms: C_1  and  C_2
REMARK    2  A    between atoms: C_2  and  C_3
REMARK    3  A    between atoms: C_3  and  C_29
REMARK    4  A    between atoms: C_5  and  C_9
REMARK    5  A    between atoms: C_5  and  C_21
REMARK    6  A    between atoms: C_9  and  C_10
REMARK    7  A    between atoms: C_10  and  N_67
REMARK    8  A    between atoms: C_11  and  C_12
REMARK    9  A    between atoms: C_11  and  N_67
REMARK   10  A    between atoms: C_15  and  N_18
REMARK   11  A    between atoms: N_18  and  C_19
REMARK   12  A    between atoms: N_18  and  C_20
REMARK   13  A    between atoms: C_26  and  O_27
REMARK   14  A    between atoms: O_27  and  C_28
REMARK                            x       y       z     vdW  Elec       q    Type
REMARK                         _______ _______ _______ _____ _____    ______ ____
ROOT
ATOM      1  C   UNL     1      -2.242   4.435   0.306  0.00  0.00    +0.067 C 
ATOM      2  C   UNL     1      -0.806   3.963   0.063  0.00  0.00    +0.046 C 
ATOM      3  C   UNL     1      -0.826   2.489  -0.354  0.00  0.00    +0.002 C 
ATOM      4  C   UNL     1      -1.531   1.671   0.732  0.00  0.00    +0.040 C 
ATOM      5  C   UNL     1      -2.938   2.232   0.950  0.00  0.00    +0.161 C 
ATOM      6  O   UNL     1      -2.849   3.614   1.305  0.00  0.00    -0.374 OA
ATOM      7  C   UNL     1      -3.040   4.332  -0.995  0.00  0.00    +0.041 C 
ENDROOT
BRANCH   3   8
ATOM      8  C   UNL     1       0.588   1.993  -0.521  0.00  0.00    +0.001 A 
ATOM      9  C   UNL     1       1.648   2.870  -0.393  0.00  0.00    +0.008 A 
ATOM     10  C   UNL     1       2.944   2.417  -0.551  0.00  0.00    +0.001 A 
ATOM     11  C   UNL     1       3.184   1.086  -0.839  0.00  0.00    +0.004 A 
ATOM     12  C   UNL     1       2.127   0.205  -0.968  0.00  0.00    +0.046 A 
ATOM     13  C   UNL     1       0.825   0.657  -0.810  0.00  0.00    +0.124 A 
BRANCH  13  14
ATOM     14  O   UNL     1      -0.215  -0.207  -0.936  0.00  0.00    -0.495 OA
ATOM     15  C   UNL     1       0.104  -1.568  -1.233  0.00  0.00    +0.277 C 
ENDBRANCH  13  14
ENDBRANCH   3   8
BRANCH   1  17
ATOM     16  C   UNL     1      -3.654   6.335   1.107  0.00  0.00    +0.007 C 
ATOM     17  C   UNL     1      -2.226   5.889   0.782  0.00  0.00    +0.031 C 
ENDBRANCH   1  17
BRANCH   3  18
ATOM     18  C   UNL     1      -1.580   2.340  -1.677  0.00  0.00    -0.007 C 
BRANCH  18  19
ATOM     19  C   UNL     1      -0.930   3.231  -2.738  0.00  0.00    -0.081 C 
BRANCH  19  20
ATOM     20  N   UNL     1      -1.746   3.193  -3.967  0.00  0.00    +0.382 N 
ATOM     21  H   UNL     1      -2.691   3.535  -3.756  0.00  0.00    -0.085 HD
ATOM     22  H   UNL     1      -1.799   2.227  -4.308  0.00  0.00    -0.085 HD
BRANCH  20  23
ATOM     23  C   UNL     1      -1.141   4.045  -5.009  0.00  0.00    -0.047 C 
BRANCH  23  24
ATOM     24  C   UNL     1      -1.995   3.987  -6.249  0.00  0.00    -0.064 A 
ATOM     25  C   UNL     1      -1.744   3.030  -7.215  0.00  0.00    +0.003 A 
ATOM     26  C   UNL     1      -2.528   2.970  -8.351  0.00  0.00    +0.023 A 
ATOM     27  C   UNL     1      -3.561   3.882  -8.528  0.00  0.00    +0.029 A 
ATOM     28  C   UNL     1      -3.806   4.846  -7.559  0.00  0.00    +0.023 A 
ATOM     29  C   UNL     1      -3.022   4.896  -6.423  0.00  0.00    +0.003 A 
BRANCH  27  30
ATOM     30  N   UNL     1      -4.352   3.828  -9.678  0.00  0.00    -0.336 N 
ATOM     31  C   UNL     1      -5.361   4.862  -9.922  0.00  0.00    +0.129 C 
ATOM     32  C   UNL     1      -4.173   2.738 -10.639  0.00  0.00    +0.129 C 
ENDBRANCH  27  30
ENDBRANCH  23  24
ENDBRANCH  20  23
ENDBRANCH  19  20
ENDBRANCH  18  19
ENDBRANCH   3  18
TORSDOF 9
