REMARK  Name = ZINC35928337
REMARK  6 active torsions:
REMARK  status: ('A' for Active; 'I' for Inactive)
REMARK    1  A    between atoms: C_1  and  S_2
REMARK    2  A    between atoms: S_2  and  C_5
REMARK    3  A    between atoms: C_7  and  C_22
REMARK    4  A    between atoms: C_9  and  N_21
REMARK    5  A    between atoms: N_10  and  C_14
REMARK    6  A    between atoms: C_14  and  C_15
REMARK                            x       y       z     vdW  Elec       q    Type
REMARK                         _______ _______ _______ _____ _____    ______ ____
ROOT
ATOM      1  C   UNL     1       0.829  -0.926  -1.381  0.00  0.00    +0.272 A 
ATOM      2  N   UNL     1       0.101  -1.105  -2.471  0.00  0.00    -0.211 NA
ATOM      3  C   UNL     1       0.629  -1.067  -3.689  0.00  0.00    +0.090 A 
ATOM      4  C   UNL     1       2.015  -0.827  -3.807  0.00  0.00    +0.086 A 
ATOM      5  C   UNL     1       2.924  -0.715  -4.853  0.00  0.00    +0.126 A 
ATOM      6  N   UNL     1       4.133  -0.477  -4.316  0.00  0.00    -0.244 N 
ATOM      7  N   UNL     1       4.034  -0.430  -2.921  0.00  0.00    -0.149 NA
ATOM      8  C   UNL     1       2.785  -0.634  -2.564  0.00  0.00    +0.188 A 
ATOM      9  N   UNL     1       2.118  -0.693  -1.396  0.00  0.00    -0.190 NA
ENDROOT
BRANCH   3  10
ATOM     10  C   UNL     1      -0.212  -1.271  -4.890  0.00  0.00    +0.020 A 
ATOM     11  C   UNL     1       0.096  -2.285  -5.798  0.00  0.00    +0.011 A 
ATOM     12  C   UNL     1      -0.692  -2.470  -6.915  0.00  0.00    +0.001 A 
ATOM     13  C   UNL     1      -1.786  -1.653  -7.137  0.00  0.00    +0.001 A 
ATOM     14  C   UNL     1      -2.099  -0.646  -6.242  0.00  0.00    +0.020 A 
ATOM     15  C   UNL     1      -1.322  -0.454  -5.116  0.00  0.00    +0.050 A 
ATOM     16 CL   UNL     1      -1.719   0.805  -3.989  0.00  0.00    -0.083 Cl
ENDBRANCH   3  10
BRANCH   1  18
ATOM     17  C   UNL     1      -0.510   0.706   0.511  0.00  0.00    +0.204 C 
ATOM     18  S   UNL     1       0.017  -0.998   0.181  0.00  0.00    +0.029 S 
ATOM     19  O   UNL     1       1.030  -1.384   1.099  0.00  0.00    -0.167 OA
ATOM     20  O   UNL     1      -1.117  -1.827  -0.038  0.00  0.00    -0.167 OA
ENDBRANCH   1  18
BRANCH   5  21
ATOM     21  N   UNL     1       2.636  -0.828  -6.201  0.00  0.00    -0.343 N 
ATOM     22  H   UNL     1       1.714  -0.884  -6.497  0.00  0.00    +0.144 HD
ATOM     23  H   UNL     1       3.357  -0.852  -6.850  0.00  0.00    +0.144 HD
ENDBRANCH   5  21
BRANCH   6  24
ATOM     24  C   UNL     1       5.370  -0.295  -5.078  0.00  0.00    +0.180 C 
BRANCH  24  25
ATOM     25  C   UNL     1       5.548   1.166  -5.404  0.00  0.00    -0.026 A 
ATOM     26  C   UNL     1       5.019   1.683  -6.572  0.00  0.00    +0.005 A 
ATOM     27  C   UNL     1       5.183   3.022  -6.871  0.00  0.00    +0.000 A 
ATOM     28  C   UNL     1       5.875   3.845  -6.003  0.00  0.00    +0.000 A 
ATOM     29  C   UNL     1       6.403   3.328  -4.835  0.00  0.00    +0.000 A 
ATOM     30  C   UNL     1       6.236   1.990  -4.533  0.00  0.00    +0.005 A 
ENDBRANCH  24  25
ENDBRANCH   6  24
TORSDOF 5
