REMARK  Name = ZINC12134273
REMARK  8 active torsions:
REMARK  status: ('A' for Active; 'I' for Inactive)
REMARK    1  A    between atoms: C_1  and  C_2
REMARK    2  A    between atoms: C_2  and  C_32
REMARK    3  A    between atoms: C_7  and  C_11
REMARK    4  A    between atoms: C_11  and  N_66
REMARK    5  A    between atoms: C_14  and  C_17
REMARK    6  A    between atoms: C_17  and  C_24
REMARK    7  A    between atoms: C_24  and  C_25
REMARK    8  A    between atoms: C_25  and  C_26
REMARK                            x       y       z     vdW  Elec       q    Type
REMARK                         _______ _______ _______ _____ _____    ______ ____
ROOT
ATOM      1  C   UNL     1       0.028   1.139   5.016  0.00  0.00    -0.078 C 
ATOM      2  C   UNL     1      -0.737   1.585   3.767  0.00  0.00    -0.013 C 
ATOM      3  C   UNL     1       0.059   1.191   2.520  0.00  0.00    +0.018 C 
ATOM      4  C   UNL     1       0.292  -0.322   2.529  0.00  0.00    -0.013 C 
ATOM      5  C   UNL     1       1.027  -0.712   3.813  0.00  0.00    -0.078 C 
ATOM      6  N   UNL     1       0.198  -0.329   4.976  0.00  0.00    +0.382 N 
ATOM      7  H   UNL     1      -0.725  -0.769   4.886  0.00  0.00    -0.081 HD
ENDROOT
BRANCH   3   8
ATOM      8  C   UNL     1      -0.729   1.579   1.267  0.00  0.00    +0.115 C 
ATOM      9  C   UNL     1      -2.138   1.025   1.330  0.00  0.00    +0.244 C 
ATOM     10  O   UNL     1      -2.465  -0.141   1.389  0.00  0.00    -0.273 OA
ATOM     11  N   UNL     1      -2.952   2.104   1.306  0.00  0.00    -0.238 N 
ATOM     12  C   UNL     1      -2.257   3.245   1.239  0.00  0.00    +0.307 C 
ATOM     13  O   UNL     1      -2.770   4.347   1.207  0.00  0.00    -0.252 OA
ATOM     14  N   UNL     1      -0.929   3.038   1.211  0.00  0.00    -0.285 N 
ATOM     15  H   UNL     1      -3.920   2.056   1.333  0.00  0.00    +0.159 HD
ATOM     16  H   UNL     1      -0.237   3.716   1.165  0.00  0.00    +0.151 HD
BRANCH   8  17
ATOM     17  C   UNL     1      -0.013   1.086   0.008  0.00  0.00    +0.040 C 
BRANCH  17  18
ATOM     18  C   UNL     1      -0.753   1.593  -1.232  0.00  0.00    +0.038 C 
BRANCH  18  19
ATOM     19  C   UNL     1      -0.047   1.107  -2.471  0.00  0.00    -0.047 A 
ATOM     20  C   UNL     1       0.950   1.873  -3.045  0.00  0.00    +0.003 A 
ATOM     21  C   UNL     1       1.601   1.425  -4.179  0.00  0.00    +0.000 A 
ATOM     22  C   UNL     1       1.246   0.215  -4.747  0.00  0.00    +0.000 A 
ATOM     23  C   UNL     1       0.245  -0.549  -4.176  0.00  0.00    +0.000 A 
ATOM     24  C   UNL     1      -0.402  -0.103  -3.039  0.00  0.00    +0.003 A 
ENDBRANCH  18  19
ENDBRANCH  17  18
ENDBRANCH   8  17
ENDBRANCH   3   8
BRANCH   6  25
ATOM     25  C   UNL     1       0.833  -0.797   6.225  0.00  0.00    -0.047 C 
BRANCH  25  31
ATOM     26  C   UNL     1      -2.170  -4.769   5.917  0.00  0.00    +0.012 C 
ATOM     27  C   UNL     1      -0.781  -4.157   5.719  0.00  0.00    -0.025 C 
ATOM     28  C   UNL     1       0.352  -4.958   6.383  0.00  0.00    -0.000 C 
ATOM     29  C   UNL     1       1.754  -4.542   5.916  0.00  0.00    +0.031 C 
ATOM     30  C   UNL     1       1.819  -3.019   5.848  0.00  0.00    -0.029 C 
ATOM     31  C   UNL     1       0.795  -2.304   6.253  0.00  0.00    -0.086 C 
ATOM     32  C   UNL     1      -0.430  -3.053   6.746  0.00  0.00    +0.019 C 
ATOM     33  C   UNL     1      -0.038  -4.215   7.677  0.00  0.00    +0.012 C 
ATOM     34  C   UNL     1      -0.497  -3.767   4.267  0.00  0.00    +0.012 C 
ENDBRANCH  25  31
ENDBRANCH   6  25
TORSDOF 6
