REMARK  Name = ZINC09332338
REMARK  11 active torsions:
REMARK  status: ('A' for Active; 'I' for Inactive)
REMARK    1  A    between atoms: C_1  and  C_2
REMARK    2  A    between atoms: C_2  and  C_4
REMARK    3  A    between atoms: C_2  and  S_14
REMARK    4  A    between atoms: N_6  and  C_7
REMARK    5  A    between atoms: C_7  and  C_8
REMARK    6  A    between atoms: C_7  and  C_9
REMARK    7  A    between atoms: C_7  and  C_11
REMARK    8  A    between atoms: C_11  and  C_12
REMARK    9  A    between atoms: C_11  and  C_13
REMARK   10  A    between atoms: S_14  and  C_15
REMARK   11  A    between atoms: N_28  and  C_29
REMARK                            x       y       z     vdW  Elec       q    Type
REMARK                         _______ _______ _______ _____ _____    ______ ____
ROOT
ATOM      1  C   UNL     1      -2.335  -0.110   1.573  0.00  0.00    +0.178 A 
ATOM      2  N   UNL     1      -1.566   0.581   2.391  0.00  0.00    -0.215 NA
ATOM      3  C   UNL     1      -2.019   0.987   3.571  0.00  0.00    +0.117 A 
ATOM      4  C   UNL     1      -3.325   0.706   4.007  0.00  0.00    +0.076 A 
ATOM      5  C   UNL     1      -3.681   1.219   5.332  0.00  0.00    -0.023 A 
ATOM      6  C   UNL     1      -2.730   1.904   5.998  0.00  0.00    -0.004 A 
ATOM      7  S   UNL     1      -1.324   1.909   4.918  0.00  0.00    -0.073 S 
ATOM      8  C   UNL     1      -2.843   2.526   7.356  0.00  0.00    +0.043 C 
ATOM      9  C   UNL     1      -4.329   2.590   7.738  0.00  0.00    +0.005 C 
ATOM     10  C   UNL     1      -4.968   1.227   7.457  0.00  0.00    +0.005 C 
ATOM     11  C   UNL     1      -5.059   0.997   5.948  0.00  0.00    +0.037 C 
ATOM     12  C   UNL     1      -4.138  -0.045   3.100  0.00  0.00    +0.268 A 
ATOM     13  O   UNL     1      -5.285  -0.335   3.393  0.00  0.00    -0.267 OA
ATOM     14  N   UNL     1      -3.620  -0.422   1.916  0.00  0.00    -0.253 N 
ENDROOT
BRANCH  14  15
ATOM     15  C   UNL     1      -4.413  -1.153   1.021  0.00  0.00    +0.087 A 
ATOM     16  C   UNL     1      -4.429  -2.540   1.078  0.00  0.00    +0.029 A 
ATOM     17  C   UNL     1      -5.211  -3.258   0.195  0.00  0.00    +0.002 A 
ATOM     18  C   UNL     1      -5.978  -2.598  -0.748  0.00  0.00    +0.003 A 
ATOM     19  C   UNL     1      -5.965  -1.217  -0.810  0.00  0.00    +0.040 A 
ATOM     20  C   UNL     1      -5.189  -0.491   0.076  0.00  0.00    +0.147 A 
ATOM     21  F   UNL     1      -5.182   0.859   0.020  0.00  0.00    -0.203 F 
ENDBRANCH  14  15
BRANCH   1  22
ATOM     22  S   UNL     1      -1.700  -0.632   0.015  0.00  0.00    -0.075 S 
BRANCH  22  24
ATOM     23  C   UNL     1      -0.019   1.526   0.010  0.00  0.00    +0.029 C 
ATOM     24  C   UNL     1       0.002  -0.004   0.002  0.00  0.00    +0.137 C 
BRANCH  24  25
ATOM     25  C   UNL     1       0.707  -0.490  -1.238  0.00  0.00    +0.227 C 
ATOM     26  O   UNL     1       0.066  -0.782  -2.225  0.00  0.00    -0.275 OA
ATOM     27  N   UNL     1       2.051  -0.601  -1.250  0.00  0.00    -0.296 N 
ATOM     28  H   UNL     1       2.563  -0.367  -0.460  0.00  0.00    +0.150 HD
BRANCH  27  29
ATOM     29  C   UNL     1       2.736  -1.073  -2.455  0.00  0.00    +0.121 C 
ATOM     30  C   UNL     1       2.433  -0.127  -3.618  0.00  0.00    +0.048 C 
BRANCH  29  31
ATOM     31  C   UNL     1       4.245  -1.105  -2.204  0.00  0.00    +0.020 C 
ATOM     32  C   UNL     1       4.561  -2.144  -1.125  0.00  0.00    +0.010 C 
ATOM     33  C   UNL     1       4.970  -1.478  -3.498  0.00  0.00    +0.010 C 
ENDBRANCH  29  31
BRANCH  29  34
ATOM     34  C   UNL     1       2.265  -2.427  -2.788  0.00  0.00    +0.088 C 
ATOM     35  N   UNL     1       1.902  -3.472  -3.046  0.00  0.00    -0.194 NA
ENDBRANCH  29  34
ENDBRANCH  27  29
ENDBRANCH  24  25
ENDBRANCH  22  24
ENDBRANCH   1  22
TORSDOF 7
