REMARK  Name = ZINC36528718
REMARK  10 active torsions:
REMARK  status: ('A' for Active; 'I' for Inactive)
REMARK    1  A    between atoms: C_1  and  C_2
REMARK    2  A    between atoms: C_5  and  S_8
REMARK    3  A    between atoms: S_8  and  C_11
REMARK    4  A    between atoms: C_11  and  N_12
REMARK    5  A    between atoms: C_13  and  C_15
REMARK    6  A    between atoms: C_15  and  C_17
REMARK    7  A    between atoms: C_15  and  N_25
REMARK    8  A    between atoms: N_25  and  C_26
REMARK    9  A    between atoms: C_27  and  C_29
REMARK   10  A    between atoms: C_34  and  O_35
REMARK                            x       y       z     vdW  Elec       q    Type
REMARK                         _______ _______ _______ _____ _____    ______ ____
ROOT
ATOM      1  C   UNL     1       3.708  -5.549   2.777  0.00  0.00    +0.195 C 
ENDROOT
BRANCH   1   2
ATOM      2  C   UNL     1       2.669  -4.458   2.802  0.00  0.00    +0.018 A 
ATOM      3  C   UNL     1       2.761  -3.436   3.729  0.00  0.00    +0.048 A 
ATOM      4  C   UNL     1       1.807  -2.434   3.751  0.00  0.00    +0.020 A 
ATOM      5  C   UNL     1       0.762  -2.454   2.846  0.00  0.00    +0.003 A 
ATOM      6  C   UNL     1       0.670  -3.475   1.919  0.00  0.00    +0.020 A 
ATOM      7  C   UNL     1       1.627  -4.475   1.893  0.00  0.00    +0.048 A 
ATOM      8 CL   UNL     1       1.514  -5.753   0.724  0.00  0.00    -0.083 Cl
ATOM      9 CL   UNL     1       4.073  -3.410   4.866  0.00  0.00    -0.083 Cl
ENDBRANCH   1   2
BRANCH   1  11
ATOM     10  N   UNL     1       4.678  -4.943   0.584  0.00  0.00    -0.294 N 
ATOM     11  C   UNL     1       4.067  -5.870   1.349  0.00  0.00    +0.239 C 
ATOM     12  O   UNL     1       3.807  -6.961   0.889  0.00  0.00    -0.273 OA
ATOM     13  H   UNL     1       4.745  -4.026   0.894  0.00  0.00    +0.150 HD
BRANCH  10  14
ATOM     14  C   UNL     1       5.240  -5.321  -0.715  0.00  0.00    +0.278 C 
BRANCH  14  15
ATOM     15  S   UNL     1       4.074  -4.875  -2.031  0.00  0.00    +0.013 S 
ATOM     16  O   UNL     1       2.923  -5.705  -1.968  0.00  0.00    -0.168 OA
ATOM     17  O   UNL     1       4.768  -4.690  -3.257  0.00  0.00    -0.168 OA
BRANCH  15  22
ATOM     18  C   UNL     1       2.086   0.625  -0.545  0.00  0.00    +0.044 C 
ATOM     19  C   UNL     1       2.582  -0.749  -0.916  0.00  0.00    -0.050 A 
ATOM     20  C   UNL     1       3.826  -0.899  -1.501  0.00  0.00    +0.005 A 
ATOM     21  C   UNL     1       4.281  -2.159  -1.841  0.00  0.00    +0.027 A 
ATOM     22  C   UNL     1       3.494  -3.268  -1.596  0.00  0.00    +0.090 A 
ATOM     23  C   UNL     1       2.251  -3.118  -1.011  0.00  0.00    +0.027 A 
ATOM     24  C   UNL     1       1.797  -1.858  -0.667  0.00  0.00    +0.005 A 
ENDBRANCH  15  22
ENDBRANCH  14  15
ENDBRANCH  10  14
ENDBRANCH   1  11
BRANCH   1  25
ATOM     25  N   UNL     1       3.171  -6.748   3.427  0.00  0.00    -0.285 N 
ATOM     26  C   UNL     1       1.875  -7.288   3.011  0.00  0.00    +0.133 C 
ATOM     27  C   UNL     1       3.871  -7.354   4.406  0.00  0.00    +0.251 C 
ATOM     28  O   UNL     1       4.907  -6.861   4.808  0.00  0.00    -0.270 OA
BRANCH  27  29
ATOM     29  C   UNL     1       3.380  -8.617   4.991  0.00  0.00    +0.078 A 
ATOM     30  C   UNL     1       3.012  -9.679   4.161  0.00  0.00    +0.017 A 
ATOM     31  C   UNL     1       2.555 -10.855   4.714  0.00  0.00    +0.001 A 
ATOM     32  C   UNL     1       2.457 -10.991   6.089  0.00  0.00    +0.004 A 
ATOM     33  C   UNL     1       2.817  -9.949   6.920  0.00  0.00    +0.046 A 
ATOM     34  C   UNL     1       3.285  -8.759   6.382  0.00  0.00    +0.129 A 
BRANCH  34  35
ATOM     35  O   UNL     1       3.644  -7.737   7.198  0.00  0.00    -0.506 OA
ATOM     36  H   UNL     1       2.921  -7.130   7.409  0.00  0.00    +0.292 HD
ENDBRANCH  34  35
ENDBRANCH  27  29
ENDBRANCH   1  25
TORSDOF 8
