REMARK  Name = ZINC45594239
REMARK  8 active torsions:
REMARK  status: ('A' for Active; 'I' for Inactive)
REMARK    1  A    between atoms: C_1  and  C_2
REMARK    2  A    between atoms: C_2  and  C_4
REMARK    3  A    between atoms: C_2  and  S_14
REMARK    4  A    between atoms: N_10  and  C_11
REMARK    5  A    between atoms: N_10  and  C_12
REMARK    6  A    between atoms: S_14  and  C_15
REMARK    7  A    between atoms: C_18  and  C_21
REMARK    8  A    between atoms: N_19  and  N_20
REMARK                            x       y       z     vdW  Elec       q    Type
REMARK                         _______ _______ _______ _____ _____    ______ ____
ROOT
ATOM      1  S   UNL     1      -1.754  -0.444  -0.062  0.00  0.00    -0.074 S 
ENDROOT
BRANCH   1   2
ATOM      2  C   UNL     1      -2.357  -0.036   1.543  0.00  0.00    +0.209 A 
ATOM      3  N   UNL     1      -1.665   0.506   2.521  0.00  0.00    -0.121 NA
ATOM      4  N   UNL     1      -2.413   0.668   3.553  0.00  0.00    -0.127 NA
ATOM      5  C   UNL     1      -3.627   0.241   3.298  0.00  0.00    +0.183 A 
ATOM      6  N   UNL     1      -3.630  -0.218   2.001  0.00  0.00    -0.224 N 
BRANCH   5   7
ATOM      7  C   UNL     1      -4.777   0.255   4.228  0.00  0.00    +0.035 A 
ATOM      8  C   UNL     1      -5.566  -0.886   4.385  0.00  0.00    +0.013 A 
ATOM      9  C   UNL     1      -6.636  -0.866   5.254  0.00  0.00    +0.001 A 
ATOM     10  C   UNL     1      -6.930   0.281   5.970  0.00  0.00    +0.001 A 
ATOM     11  C   UNL     1      -6.153   1.415   5.819  0.00  0.00    +0.016 A 
ATOM     12  C   UNL     1      -5.075   1.408   4.957  0.00  0.00    +0.029 A 
ATOM     13 BR   UNL     1      -4.010   2.957   4.758  0.00  0.00    -0.050 Br
ENDBRANCH   5   7
BRANCH   6  14
ATOM     14  N   UNL     1      -4.686  -0.748   1.315  0.00  0.00    -0.295 N 
ATOM     15  H   UNL     1      -4.783  -1.734   1.507  0.00  0.00    +0.163 HD
ATOM     16  H   UNL     1      -5.539  -0.253   1.526  0.00  0.00    +0.163 HD
ENDBRANCH   6  14
ENDBRANCH   1   2
BRANCH   1  18
ATOM     17  C   UNL     1       0.090   1.564   0.151  0.00  0.00    +0.028 C 
ATOM     18  C   UNL     1      -0.009   0.046  -0.013  0.00  0.00    +0.119 C 
BRANCH  18  19
ATOM     19  C   UNL     1       0.664  -0.365  -1.298  0.00  0.00    +0.149 A 
ATOM     20  N   UNL     1       0.070  -0.135  -2.456  0.00  0.00    -0.198 NA
ATOM     21  C   UNL     1       0.661  -0.495  -3.592  0.00  0.00    +0.217 A 
ATOM     22  N   UNL     1       1.850  -1.088  -3.562  0.00  0.00    -0.181 NA
ATOM     23  C   UNL     1       2.444  -1.317  -2.396  0.00  0.00    +0.222 A 
ATOM     24  N   UNL     1       1.849  -0.949  -1.264  0.00  0.00    -0.198 NA
ATOM     25  N   UNL     1       3.679  -1.932  -2.359  0.00  0.00    -0.306 N 
ATOM     26  C   UNL     1       4.336  -2.333  -3.606  0.00  0.00    +0.132 C 
ATOM     27  C   UNL     1       4.333  -2.185  -1.073  0.00  0.00    +0.132 C 
ATOM     28  N   UNL     1       0.040  -0.255  -4.801  0.00  0.00    -0.327 N 
ATOM     29  H   UNL     1      -0.828   0.177  -4.823  0.00  0.00    +0.145 HD
ATOM     30  H   UNL     1       0.471  -0.518  -5.629  0.00  0.00    +0.145 HD
ENDBRANCH  18  19
ENDBRANCH   1  18
TORSDOF 5
