REMARK  Name = ZINC51999427
REMARK  6 active torsions:
REMARK  status: ('A' for Active; 'I' for Inactive)
REMARK    1  A    between atoms: C_1  and  O_2
REMARK    2  A    between atoms: O_2  and  C_3
REMARK    3  A    between atoms: C_6  and  C_10
REMARK    4  A    between atoms: C_10  and  N_11
REMARK    5  A    between atoms: N_11  and  C_12
REMARK    6  A    between atoms: C_18  and  O_20
REMARK                            x       y       z     vdW  Elec       q    Type
REMARK                         _______ _______ _______ _____ _____    ______ ____
ROOT
ATOM      1  C   UNL     1      -4.983  -2.629   0.035  0.00  0.00    -0.046 C 
ENDROOT
BRANCH   1   5
ATOM      2  C   UNL     1      -1.201  -0.638   0.010  0.00  0.00    +0.148 A 
ATOM      3  C   UNL     1      -1.807  -0.963   1.215  0.00  0.00    +0.061 A 
ATOM      4  C   UNL     1      -3.030  -1.607   1.220  0.00  0.00    +0.020 A 
ATOM      5  C   UNL     1      -3.649  -1.927   0.027  0.00  0.00    -0.062 A 
ATOM      6  C   UNL     1      -3.047  -1.605  -1.176  0.00  0.00    +0.020 A 
ATOM      7  C   UNL     1      -1.827  -0.955  -1.187  0.00  0.00    +0.061 A 
ATOM      8 BR   UNL     1      -1.008  -0.507  -2.832  0.00  0.00    -0.046 Br
ATOM      9 BR   UNL     1      -0.960  -0.526   2.849  0.00  0.00    -0.046 Br
BRANCH   2  11
ATOM     10  C   UNL     1      -0.017   1.425   0.010  0.00  0.00    +0.277 C 
ATOM     11  O   UNL     1       0.002  -0.004   0.002  0.00  0.00    -0.493 OA
ENDBRANCH   2  11
ENDBRANCH   1   5
BRANCH   1  12
ATOM     12  N   UNL     1      -6.061  -1.632   0.044  0.00  0.00    +0.385 N 
ATOM     13  H   UNL     1      -5.979  -1.056   0.868  0.00  0.00    -0.085 HD
ATOM     14  H   UNL     1      -5.991  -1.054  -0.779  0.00  0.00    -0.085 HD
BRANCH  12  15
ATOM     15  C   UNL     1      -7.361  -2.317   0.053  0.00  0.00    -0.042 C 
ATOM     16  C   UNL     1      -7.538  -3.092  -1.254  0.00  0.00    -0.013 C 
ATOM     17  C   UNL     1      -8.891  -3.806  -1.245  0.00  0.00    -0.001 C 
ATOM     18  C   UNL     1     -10.011  -2.772  -1.109  0.00  0.00    +0.002 C 
ATOM     19  C   UNL     1      -9.835  -1.996   0.197  0.00  0.00    +0.030 C 
ATOM     20  C   UNL     1      -8.481  -1.283   0.188  0.00  0.00    +0.101 C 
BRANCH  20  21
ATOM     21  O   UNL     1      -8.428  -0.376  -0.915  0.00  0.00    -0.393 OA
ATOM     22  H   UNL     1      -9.111   0.308  -0.894  0.00  0.00    +0.210 HD
ENDBRANCH  20  21
ENDBRANCH  12  15
ENDBRANCH   1  12
TORSDOF 5
