REMARK  Name = ZINC03268280
REMARK  5 active torsions:
REMARK  status: ('A' for Active; 'I' for Inactive)
REMARK    1  A    between atoms: C_8  and  C_10
REMARK    2  A    between atoms: N_12  and  C_17
REMARK    3  A    between atoms: C_17  and  C_18
REMARK    4  A    between atoms: C_18  and  C_20
REMARK    5  A    between atoms: C_23  and  N_26
REMARK                            x       y       z     vdW  Elec       q    Type
REMARK                         _______ _______ _______ _____ _____    ______ ____
ROOT
ATOM      1  C   UNL     1       2.947  -4.149   0.176  0.00  0.00    +0.065 C 
ATOM      2  C   UNL     1       4.255  -4.398  -0.087  0.00  0.00    +0.073 C 
ATOM      3  N   UNL     1       5.281  -3.485  -0.253  0.00  0.00    -0.258 N 
ATOM      4  C   UNL     1       6.524  -3.857  -0.508  0.00  0.00    +0.231 C 
ATOM      5  O   UNL     1       7.420  -3.053  -0.652  0.00  0.00    -0.274 OA
ATOM      6  C   UNL     1       6.759  -5.356  -0.611  0.00  0.00    +0.171 C 
ATOM      7  S   UNL     1       5.057  -5.980  -0.295  0.00  0.00    -0.100 S 
ENDROOT
BRANCH   1  15
ATOM      8  C   UNL     1       1.141   1.432  -1.534  0.00  0.00    +0.002 A 
ATOM      9  C   UNL     1       0.788   1.790  -0.241  0.00  0.00    +0.001 A 
ATOM     10  C   UNL     1       0.957   0.877   0.786  0.00  0.00    +0.017 A 
ATOM     11  C   UNL     1       1.469  -0.365   0.510  0.00  0.00    +0.040 A 
ATOM     12  C   UNL     1       1.840  -0.765  -0.795  0.00  0.00    +0.079 A 
ATOM     13  C   UNL     1       1.654   0.193  -1.819  0.00  0.00    +0.029 A 
ATOM     14  N   UNL     1       2.329  -2.017  -0.907  0.00  0.00    -0.240 NA
ATOM     15  C   UNL     1       2.456  -2.822   0.134  0.00  0.00    +0.105 A 
ATOM     16  S   UNL     1       1.849  -1.808   1.475  0.00  0.00    -0.068 S 
ENDBRANCH   1  15
BRANCH   3  17
ATOM     17  C   UNL     1       4.981  -2.056  -0.141  0.00  0.00    +0.193 C 
BRANCH  17  18
ATOM     18  C   UNL     1       4.645  -1.724   1.291  0.00  0.00    +0.181 C 
ATOM     19  O   UNL     1       4.521  -2.613   2.106  0.00  0.00    -0.290 OA
BRANCH  18  20
ATOM     20  C   UNL     1       4.468  -0.321   1.699  0.00  0.00    +0.019 A 
ATOM     21  C   UNL     1       4.722   0.712   0.791  0.00  0.00    +0.013 A 
ATOM     22  C   UNL     1       4.554   2.024   1.181  0.00  0.00    +0.033 A 
ATOM     23  C   UNL     1       4.136   2.320   2.467  0.00  0.00    +0.126 A 
ATOM     24  C   UNL     1       3.883   1.303   3.371  0.00  0.00    +0.033 A 
ATOM     25  C   UNL     1       4.040  -0.014   2.994  0.00  0.00    +0.013 A 
BRANCH  23  26
ATOM     26  N   UNL     1       3.959   3.731   2.877  0.00  0.00    +0.056 N 
ATOM     27  O   UNL     1       4.179   4.621   2.090  0.00  0.00    -0.126 OA
ATOM     28  O   UNL     1       3.594   3.992   4.000  0.00  0.00    -0.126 OA
ENDBRANCH  23  26
ENDBRANCH  18  20
ENDBRANCH  17  18
ENDBRANCH   3  17
TORSDOF 5
