REMARK  Name = ZINC39198062
REMARK  10 active torsions:
REMARK  status: ('A' for Active; 'I' for Inactive)
REMARK    1  A    between atoms: C_4  and  C_7
REMARK    2  A    between atoms: C_7  and  C_9
REMARK    3  A    between atoms: C_7  and  C_15
REMARK    4  A    between atoms: C_20  and  C_23
REMARK    5  A    between atoms: C_23  and  C_24
REMARK    6  A    between atoms: C_24  and  C_25
REMARK    7  A    between atoms: C_25  and  C_26
REMARK    8  A    between atoms: N_29  and  C_32
REMARK    9  A    between atoms: C_32  and  C_33
REMARK   10  A    between atoms: C_33  and  O_34
REMARK                            x       y       z     vdW  Elec       q    Type
REMARK                         _______ _______ _______ _____ _____    ______ ____
ROOT
ATOM      1  C   UNL     1       3.814  -1.554   1.153  0.00  0.00    +0.223 C 
ATOM      2  O   UNL     1       2.864  -1.646   1.900  0.00  0.00    -0.275 OA
ATOM      3  N   UNL     1       4.951  -2.225   1.422  0.00  0.00    -0.301 N 
ATOM      4  C   UNL     1       6.149  -2.032   0.593  0.00  0.00    +0.108 C 
ATOM      5  C   UNL     1       6.634  -3.399   0.102  0.00  0.00    +0.022 C 
ATOM      6  C   UNL     1       6.844  -4.324   1.303  0.00  0.00    -0.008 C 
ATOM      7  C   UNL     1       5.515  -4.519   2.037  0.00  0.00    +0.022 C 
ATOM      8  C   UNL     1       5.019  -3.160   2.554  0.00  0.00    +0.108 C 
ENDROOT
BRANCH   1   9
ATOM      9  C   UNL     1       3.723  -0.689  -0.078  0.00  0.00    +0.108 C 
BRANCH   9  13
ATOM     10  C   UNL     1       5.313   3.182   0.780  0.00  0.00    +0.000 A 
ATOM     11  C   UNL     1       5.880   2.407  -0.214  0.00  0.00    +0.000 A 
ATOM     12  C   UNL     1       5.365   1.154  -0.492  0.00  0.00    +0.004 A 
ATOM     13  C   UNL     1       4.285   0.676   0.225  0.00  0.00    -0.035 A 
ATOM     14  C   UNL     1       3.718   1.451   1.220  0.00  0.00    +0.004 A 
ATOM     15  C   UNL     1       4.231   2.704   1.496  0.00  0.00    +0.000 A 
ENDBRANCH   9  13
BRANCH   9  16
ATOM     16  C   UNL     1       2.259  -0.556  -0.501  0.00  0.00    +0.005 C 
ATOM     17  C   UNL     1       1.725  -1.925  -0.927  0.00  0.00    +0.004 C 
ATOM     18  C   UNL     1       0.261  -1.792  -1.351  0.00  0.00    +0.000 C 
ATOM     19  C   UNL     1       0.155  -0.816  -2.524  0.00  0.00    +0.000 C 
ATOM     20  C   UNL     1       0.689   0.553  -2.098  0.00  0.00    +0.000 C 
ATOM     21  C   UNL     1       2.154   0.420  -1.674  0.00  0.00    +0.004 C 
ENDBRANCH   9  16
ENDBRANCH   1   9
BRANCH   6  22
ATOM     22  C   UNL     1       7.361  -5.680   0.818  0.00  0.00    +0.003 C 
BRANCH  22  23
ATOM     23  C   UNL     1       7.689  -6.562   2.025  0.00  0.00    +0.001 C 
BRANCH  23  24
ATOM     24  C   UNL     1       8.207  -7.917   1.540  0.00  0.00    +0.003 C 
BRANCH  24  25
ATOM     25  C   UNL     1       8.534  -8.799   2.747  0.00  0.00    -0.014 C 
ATOM     26  C   UNL     1       9.700  -8.186   3.528  0.00  0.00    -0.015 C 
ATOM     27  C   UNL     1      10.075  -9.113   4.686  0.00  0.00    -0.078 C 
ATOM     28  N   UNL     1      10.472 -10.424   4.160  0.00  0.00    +0.381 N 
ATOM     29  C   UNL     1       9.336 -11.050   3.472  0.00  0.00    -0.078 C 
ATOM     30  C   UNL     1       8.934 -10.197   2.266  0.00  0.00    -0.015 C 
ATOM     31  H   UNL     1      11.235 -10.308   3.510  0.00  0.00    -0.082 HD
BRANCH  28  32
ATOM     32  C   UNL     1      10.904 -11.285   5.269  0.00  0.00    -0.051 C 
BRANCH  32  33
ATOM     33  C   UNL     1      11.435 -12.607   4.712  0.00  0.00    +0.137 C 
BRANCH  33  34
ATOM     34  O   UNL     1      12.615 -12.360   3.943  0.00  0.00    -0.397 OA
ATOM     35  H   UNL     1      13.007 -13.156   3.558  0.00  0.00    +0.209 HD
ENDBRANCH  33  34
ENDBRANCH  32  33
ENDBRANCH  28  32
ENDBRANCH  24  25
ENDBRANCH  23  24
ENDBRANCH  22  23
ENDBRANCH   6  22
TORSDOF 10
