REMARK  Name = ZINC37352580
REMARK  5 active torsions:
REMARK  status: ('A' for Active; 'I' for Inactive)
REMARK    1  A    between atoms: C_1  and  C_2
REMARK    2  A    between atoms: C_4  and  C_8
REMARK    3  A    between atoms: C_5  and  C_7
REMARK    4  A    between atoms: C_10  and  N_21
REMARK    5  A    between atoms: N_11  and  C_13
REMARK                            x       y       z     vdW  Elec       q    Type
REMARK                         _______ _______ _______ _____ _____    ______ ____
ROOT
ATOM      1  C   UNL     1      -1.374  -3.426  -0.010  0.00  0.00    +0.069 A 
ATOM      2  C   UNL     1      -1.084  -4.590  -0.745  0.00  0.00    +0.070 A 
ATOM      3  C   UNL     1      -2.054  -5.504  -0.475  0.00  0.00    +0.113 A 
ATOM      4  N   UNL     1      -2.925  -4.936   0.399  0.00  0.00    -0.268 N 
ATOM      5  N   UNL     1      -2.475  -3.639   0.678  0.00  0.00    -0.295 N 
ATOM      6  H   UNL     1      -2.903  -3.006   1.276  0.00  0.00    +0.187 HD
ENDROOT
BRANCH   1  10
ATOM      7  C   UNL     1      -0.018   1.503   0.010  0.00  0.00    +0.086 C 
ATOM      8  C   UNL     1       0.002  -0.004   0.002  0.00  0.00    +0.103 A 
ATOM      9  C   UNL     1      -1.081  -0.799   0.003  0.00  0.00    +0.054 A 
ATOM     10  C   UNL     1      -0.573  -2.176  -0.007  0.00  0.00    +0.041 A 
ATOM     11  C   UNL     1       0.780  -2.070  -0.013  0.00  0.00    +0.111 A 
ATOM     12  O   UNL     1       1.105  -0.768  -0.013  0.00  0.00    -0.464 OA
ATOM     13  C   UNL     1       1.753  -3.220  -0.024  0.00  0.00    +0.087 C 
ENDBRANCH   1  10
BRANCH   4  14
ATOM     14  C   UNL     1      -4.122  -5.570   0.956  0.00  0.00    +0.129 C 
ATOM     15  C   UNL     1      -5.365  -4.738   0.599  0.00  0.00    +0.051 C 
ATOM     16  C   UNL     1      -6.576  -5.211   1.438  0.00  0.00    +0.168 C 
ATOM     17  S   UNL     1      -5.781  -5.864   2.963  0.00  0.00    -0.029 S 
ATOM     18  O   UNL     1      -6.053  -7.254   3.067  0.00  0.00    -0.174 OA
ATOM     19  O   UNL     1      -6.094  -5.005   4.051  0.00  0.00    -0.174 OA
ATOM     20  C   UNL     1      -4.011  -5.632   2.506  0.00  0.00    +0.192 C 
ENDBRANCH   4  14
BRANCH   3  21
ATOM     21  N   UNL     1      -2.139  -6.790  -1.001  0.00  0.00    -0.343 N 
ATOM     22  H   UNL     1      -1.464  -7.107  -1.621  0.00  0.00    +0.144 HD
ATOM     23  H   UNL     1      -2.874  -7.371  -0.746  0.00  0.00    +0.144 HD
ENDBRANCH   3  21
TORSDOF 3
