REMARK  Name = ZINC33028217
REMARK  12 active torsions:
REMARK  status: ('A' for Active; 'I' for Inactive)
REMARK    1  A    between atoms: C_1  and  O_2
REMARK    2  A    between atoms: O_2  and  C_3
REMARK    3  A    between atoms: C_8  and  C_9
REMARK    4  A    between atoms: C_9  and  C_11
REMARK    5  A    between atoms: C_9  and  N_33
REMARK    6  A    between atoms: C_11  and  N_12
REMARK    7  A    between atoms: C_13  and  C_15
REMARK    8  A    between atoms: C_18  and  S_21
REMARK    9  A    between atoms: S_21  and  N_24
REMARK   10  A    between atoms: N_24  and  C_25
REMARK   11  A    between atoms: C_30  and  O_31
REMARK   12  A    between atoms: O_31  and  C_32
REMARK                            x       y       z     vdW  Elec       q    Type
REMARK                         _______ _______ _______ _____ _____    ______ ____
ROOT
ATOM      1  N   UNL     1      -0.688   5.699  -6.591  0.00  0.00    -0.313 N 
ATOM      2  C   UNL     1      -1.144   4.441  -6.427  0.00  0.00    +0.244 C 
ATOM      3  O   UNL     1      -1.480   3.786  -7.394  0.00  0.00    -0.270 OA
ATOM      4  H   UNL     1      -0.384   6.292  -5.717  0.00  0.00    +0.149 HD
ENDROOT
BRANCH   2   5
ATOM      5  C   UNL     1      -1.236   3.860  -5.071  0.00  0.00    +0.037 A 
ATOM      6  C   UNL     1      -1.708   2.558  -4.897  0.00  0.00    +0.015 A 
ATOM      7  C   UNL     1      -1.791   2.021  -3.629  0.00  0.00    +0.029 A 
ATOM      8  C   UNL     1      -1.407   2.769  -2.531  0.00  0.00    +0.109 A 
ATOM      9  C   UNL     1      -0.943   4.062  -2.696  0.00  0.00    +0.029 A 
ATOM     10  C   UNL     1      -0.850   4.610  -3.959  0.00  0.00    +0.015 A 
BRANCH   8  11
ATOM     11  S   UNL     1      -1.516   2.076  -0.915  0.00  0.00    +0.072 S 
ATOM     12  O   UNL     1      -2.498   1.051  -0.979  0.00  0.00    -0.150 OA
ATOM     13  O   UNL     1      -1.612   3.168  -0.010  0.00  0.00    -0.150 OA
BRANCH  11  14
ATOM     14  N   UNL     1      -0.071   1.329  -0.604  0.00  0.00    -0.213 N 
ATOM     15  H   UNL     1      -0.044   0.250  -0.392  0.00  0.00    +0.174 HD
BRANCH  14  16
ATOM     16  C   UNL     1       1.116   2.071  -0.610  0.00  0.00    +0.090 A 
ATOM     17  C   UNL     1       1.122   3.377  -0.142  0.00  0.00    +0.028 A 
ATOM     18  C   UNL     1       2.296   4.106  -0.145  0.00  0.00    +0.002 A 
ATOM     19  C   UNL     1       3.464   3.541  -0.623  0.00  0.00    +0.004 A 
ATOM     20  C   UNL     1       3.464   2.241  -1.095  0.00  0.00    +0.047 A 
ATOM     21  C   UNL     1       2.292   1.502  -1.091  0.00  0.00    +0.142 A 
BRANCH  21  22
ATOM     22  O   UNL     1       2.291   0.224  -1.557  0.00  0.00    -0.493 OA
ATOM     23  C   UNL     1       3.534  -0.294  -2.035  0.00  0.00    +0.277 C 
ENDBRANCH  21  22
ENDBRANCH  14  16
ENDBRANCH  11  14
ENDBRANCH   8  11
ENDBRANCH   2   5
BRANCH   1  24
ATOM     24  C   UNL     1      -0.597   6.275  -7.935  0.00  0.00    +0.094 C 
BRANCH  24  25
ATOM     25  C   UNL     1       0.061   7.654  -7.855  0.00  0.00    -0.017 C 
BRANCH  25  31
ATOM     26  C   UNL     1       1.086   7.928 -10.127  0.00  0.00    +0.122 A 
ATOM     27  C   UNL     1       1.110   8.503 -11.389  0.00  0.00    +0.046 A 
ATOM     28  C   UNL     1       0.143   9.422 -11.747  0.00  0.00    +0.004 A 
ATOM     29  C   UNL     1      -0.849   9.768 -10.848  0.00  0.00    +0.000 A 
ATOM     30  C   UNL     1      -0.878   9.193  -9.591  0.00  0.00    +0.005 A 
ATOM     31  C   UNL     1       0.091   8.277  -9.227  0.00  0.00    -0.018 A 
BRANCH  26  33
ATOM     32  C   UNL     1       3.032   6.711 -10.750  0.00  0.00    +0.277 C 
ATOM     33  O   UNL     1       2.037   7.024  -9.773  0.00  0.00    -0.495 OA
ENDBRANCH  26  33
ENDBRANCH  25  31
BRANCH  25  34
ATOM     34  N   UNL     1      -0.709   8.512  -6.944  0.00  0.00    +0.385 N 
ATOM     35  C   UNL     1      -0.312   9.936  -7.091  0.00  0.00    -0.078 C 
ATOM     36  C   UNL     1      -1.521  10.704  -6.501  0.00  0.00    -0.020 C 
ATOM     37  C   UNL     1      -2.729   9.859  -6.969  0.00  0.00    -0.020 C 
ATOM     38  C   UNL     1      -2.152   8.461  -7.261  0.00  0.00    -0.078 C 
ATOM     39  H   UNL     1      -0.504   8.133  -5.932  0.00  0.00    -0.081 HD
ENDBRANCH  25  34
ENDBRANCH  24  25
ENDBRANCH   1  24
TORSDOF 10
