REMARK  Name = ZINC31052939
REMARK  9 active torsions:
REMARK  status: ('A' for Active; 'I' for Inactive)
REMARK    1  A    between atoms: C_1  and  C_2
REMARK    2  A    between atoms: C_5  and  C_34
REMARK    3  A    between atoms: C_6  and  C_8
REMARK    4  A    between atoms: C_8  and  C_10
REMARK    5  A    between atoms: C_8  and  N_11
REMARK    6  A    between atoms: C_12  and  C_14
REMARK    7  A    between atoms: N_19  and  C_21
REMARK    8  A    between atoms: C_21  and  C_22
REMARK    9  A    between atoms: C_24  and  C_27
REMARK                            x       y       z     vdW  Elec       q    Type
REMARK                         _______ _______ _______ _____ _____    ______ ____
ROOT
ATOM      1  C   UNL     1       0.444  -0.634   4.162  0.00  0.00    +0.058 C 
ATOM      2  C   UNL     1       0.160   0.298   5.344  0.00  0.00    +0.009 C 
ATOM      3  C   UNL     1       0.855  -0.249   6.593  0.00  0.00    -0.018 C 
ATOM      4  C   UNL     1       0.360  -1.672   6.865  0.00  0.00    -0.078 C 
ATOM      5  N   UNL     1       0.656  -2.524   5.706  0.00  0.00    +0.386 N 
ATOM      6  C   UNL     1      -0.039  -2.045   4.504  0.00  0.00    -0.065 C 
ATOM      7  H   UNL     1       1.738  -2.465   5.514  0.00  0.00    -0.081 HD
ENDROOT
BRANCH   1   9
ATOM      8  N   UNL     1      -0.020   1.094   2.454  0.00  0.00    -0.309 N 
ATOM      9  C   UNL     1      -0.285  -0.134   2.941  0.00  0.00    +0.215 C 
ATOM     10  O   UNL     1      -1.109  -0.838   2.397  0.00  0.00    -0.276 OA
ATOM     11  H   UNL     1       0.728   1.732   2.947  0.00  0.00    +0.149 HD
BRANCH   8  12
ATOM     12  C   UNL     1      -0.729   1.579   1.267  0.00  0.00    +0.100 C 
ATOM     13  C   UNL     1      -0.013   1.086   0.008  0.00  0.00    +0.033 C 
BRANCH  12  19
ATOM     14  C   UNL     1       1.275   5.933   2.707  0.00  0.00    +0.044 C 
ATOM     15  C   UNL     1       0.210   5.169   1.964  0.00  0.00    -0.050 A 
ATOM     16  C   UNL     1      -0.786   5.851   1.290  0.00  0.00    +0.003 A 
ATOM     17  C   UNL     1      -1.763   5.150   0.608  0.00  0.00    +0.004 A 
ATOM     18  C   UNL     1      -1.742   3.768   0.597  0.00  0.00    -0.046 A 
ATOM     19  C   UNL     1      -0.749   3.086   1.275  0.00  0.00    -0.024 A 
ATOM     20  C   UNL     1       0.229   3.787   1.956  0.00  0.00    +0.009 A 
ATOM     21  C   UNL     1      -2.805   3.004  -0.151  0.00  0.00    +0.044 C 
ENDBRANCH  12  19
ENDBRANCH   8  12
ENDBRANCH   1   9
BRANCH   5  22
ATOM     22  C   UNL     1       0.321  -3.927   5.984  0.00  0.00    +0.022 C 
BRANCH  22  23
ATOM     23  C   UNL     1       0.848  -4.309   7.343  0.00  0.00    +0.211 A 
ATOM     24  N   UNL     1       0.210  -4.202   8.482  0.00  0.00    -0.193 NA
ATOM     25  C   UNL     1       1.067  -4.663   9.422  0.00  0.00    +0.202 A 
ATOM     26  N   UNL     1       2.163  -5.018   8.804  0.00  0.00    -0.056 NA
ATOM     27  O   UNL     1       2.050  -4.826   7.612  0.00  0.00    -0.340 OA
BRANCH  25  28
ATOM     28  C   UNL     1       0.811  -4.748  10.882  0.00  0.00    +0.024 A 
ATOM     29  C   UNL     1      -0.409  -4.324  11.403  0.00  0.00    +0.012 A 
ATOM     30  C   UNL     1      -0.644  -4.408  12.761  0.00  0.00    +0.002 A 
ATOM     31  C   UNL     1       0.333  -4.904  13.605  0.00  0.00    +0.020 A 
ATOM     32  C   UNL     1       1.549  -5.323  13.093  0.00  0.00    +0.042 A 
ATOM     33  C   UNL     1       1.793  -5.246  11.735  0.00  0.00    +0.031 A 
ATOM     34 CL   UNL     1       2.771  -5.944  14.159  0.00  0.00    -0.084 Cl
ENDBRANCH  25  28
ENDBRANCH  22  23
ENDBRANCH   5  22
TORSDOF 6
