REMARK  Name = ZINC05799359
REMARK  8 active torsions:
REMARK  status: ('A' for Active; 'I' for Inactive)
REMARK    1  A    between atoms: C_1  and  C_2
REMARK    2  A    between atoms: C_2  and  C_3
REMARK    3  A    between atoms: C_3  and  C_4
REMARK    4  A    between atoms: C_11  and  N_26
REMARK    5  A    between atoms: C_12  and  C_24
REMARK    6  A    between atoms: C_13  and  C_15
REMARK    7  A    between atoms: C_20  and  O_21
REMARK    8  A    between atoms: O_21  and  C_22
REMARK                            x       y       z     vdW  Elec       q    Type
REMARK                         _______ _______ _______ _____ _____    ______ ____
ROOT
ATOM      1  C   UNL     1       3.936   2.754   2.482  0.00  0.00    +0.044 A 
ATOM      2  C   UNL     1       3.741   3.079   1.195  0.00  0.00    +0.049 A 
ATOM      3  C   UNL     1       3.597   4.481   1.113  0.00  0.00    +0.245 A 
ATOM      4  N   UNL     1       3.701   4.968   2.316  0.00  0.00    -0.135 NA
ATOM      5  N   UNL     1       3.916   3.900   3.202  0.00  0.00    -0.278 N 
ATOM      6  H   UNL     1       4.034   3.973   4.192  0.00  0.00    +0.189 HD
ATOM      7  O   UNL     1       3.388   5.117  -0.071  0.00  0.00    -0.421 OA
ATOM      8  C   UNL     1       3.591   4.410  -1.200  0.00  0.00    +0.201 C 
ATOM      9  C   UNL     1       3.731   3.068  -1.247  0.00  0.00    +0.098 C 
ATOM     10  C   UNL     1       3.671   2.191  -0.022  0.00  0.00    +0.105 C 
ENDROOT
BRANCH  10  11
ATOM     11  C   UNL     1       2.378   1.418  -0.013  0.00  0.00    +0.008 A 
ATOM     12  C   UNL     1       1.171   2.089   0.002  0.00  0.00    +0.023 A 
ATOM     13  C   UNL     1      -0.017   1.379   0.010  0.00  0.00    +0.018 A 
ATOM     14  C   UNL     1       0.002  -0.004   0.002  0.00  0.00    +0.019 A 
ATOM     15  C   UNL     1       1.207  -0.679  -0.013  0.00  0.00    +0.047 A 
ATOM     16  C   UNL     1       2.399   0.031  -0.021  0.00  0.00    +0.124 A 
ATOM     17 BR   UNL     1      -1.668   2.301   0.022  0.00  0.00    -0.050 Br
BRANCH  16  18
ATOM     18  O   UNL     1       3.586  -0.632  -0.035  0.00  0.00    -0.495 OA
ATOM     19  C   UNL     1       3.531  -2.060  -0.042  0.00  0.00    +0.277 C 
ENDBRANCH  16  18
ENDBRANCH  10  11
BRANCH   8  20
ATOM     20  N   UNL     1       3.659   5.101  -2.383  0.00  0.00    -0.328 N 
ATOM     21  H   UNL     1       3.804   4.624  -3.216  0.00  0.00    +0.145 HD
ATOM     22  H   UNL     1       3.563   6.066  -2.388  0.00  0.00    +0.145 HD
ENDBRANCH   8  20
BRANCH   9  23
ATOM     23  C   UNL     1       3.947   2.449  -2.520  0.00  0.00    +0.101 C 
ATOM     24  N   UNL     1       4.118   1.958  -3.530  0.00  0.00    -0.191 NA
ENDBRANCH   9  23
BRANCH   1  25
ATOM     25  C   UNL     1       4.138   1.364   3.027  0.00  0.00    +0.055 C 
BRANCH  25  27
ATOM     26  C   UNL     1       5.822  -0.428   3.471  0.00  0.00    +0.004 C 
ATOM     27  C   UNL     1       5.616   0.983   2.917  0.00  0.00    +0.003 C 
ENDBRANCH  25  27
ENDBRANCH   1  25
TORSDOF 6
