REMARK  Name = ZINC12402180
REMARK  7 active torsions:
REMARK  status: ('A' for Active; 'I' for Inactive)
REMARK    1  A    between atoms: C_1  and  C_2
REMARK    2  A    between atoms: C_2  and  C_35
REMARK    3  A    between atoms: C_9  and  C_20
REMARK    4  A    between atoms: C_9  and  N_24
REMARK    5  A    between atoms: N_12  and  C_13
REMARK    6  A    between atoms: C_13  and  C_14
REMARK    7  A    between atoms: C_25  and  C_27
REMARK                            x       y       z     vdW  Elec       q    Type
REMARK                         _______ _______ _______ _____ _____    ______ ____
ROOT
ATOM      1  C   UNL     1       3.870  -1.267   4.399  0.00  0.00    +0.011 C 
ATOM      2  C   UNL     1       5.197  -0.578   4.075  0.00  0.00    -0.023 C 
ATOM      3  C   UNL     1       5.072   0.158   2.736  0.00  0.00    +0.058 C 
ATOM      4  C   UNL     1       4.853  -0.873   1.647  0.00  0.00    +0.023 C 
ATOM      5  C   UNL     1       5.298  -2.152   1.779  0.00  0.00    +0.053 C 
ATOM      6  C   UNL     1       6.005  -2.616   2.898  0.00  0.00    +0.164 C 
ATOM      7  O   UNL     1       6.363  -3.774   2.978  0.00  0.00    -0.292 OA
ATOM      8  C   UNL     1       6.308  -1.627   4.003  0.00  0.00    +0.086 C 
ATOM      9  C   UNL     1       4.888  -2.885   0.532  0.00  0.00    +0.237 C 
ATOM     10  C   UNL     1       4.165  -1.821  -0.275  0.00  0.00    +0.257 C 
ATOM     11  O   UNL     1       3.657  -1.955  -1.367  0.00  0.00    -0.272 OA
ATOM     12  N   UNL     1       4.202  -0.696   0.468  0.00  0.00    -0.270 N 
ATOM     13  C   UNL     1       5.525   0.433   5.176  0.00  0.00    +0.011 C 
ENDROOT
BRANCH   9  14
ATOM     14  C   UNL     1       3.945  -4.042   0.867  0.00  0.00    +0.424 C 
ATOM     15  F   UNL     1       3.498  -4.637  -0.318  0.00  0.00    -0.167 F 
ATOM     16  F   UNL     1       4.627  -4.991   1.636  0.00  0.00    -0.167 F 
ATOM     17  F   UNL     1       2.849  -3.557   1.587  0.00  0.00    -0.167 F 
ENDBRANCH   9  14
BRANCH   9  18
ATOM     18  N   UNL     1       6.065  -3.372  -0.192  0.00  0.00    -0.287 N 
ATOM     19  C   UNL     1       5.918  -3.973  -1.390  0.00  0.00    +0.247 C 
ATOM     20  O   UNL     1       4.810  -4.112  -1.869  0.00  0.00    -0.270 OA
ATOM     21  H   UNL     1       6.950  -3.261   0.190  0.00  0.00    +0.151 HD
BRANCH  19  22
ATOM     22  C   UNL     1       7.105  -4.464  -2.120  0.00  0.00    +0.055 A 
ATOM     23  C   UNL     1       8.380  -4.301  -1.575  0.00  0.00    +0.016 A 
ATOM     24  C   UNL     1       9.483  -4.767  -2.258  0.00  0.00    +0.021 A 
ATOM     25  C   UNL     1       9.330  -5.385  -3.489  0.00  0.00    +0.042 A 
ATOM     26  C   UNL     1       8.070  -5.544  -4.038  0.00  0.00    +0.040 A 
ATOM     27  C   UNL     1       6.956  -5.088  -3.361  0.00  0.00    +0.054 A 
ATOM     28 CL   UNL     1       5.376  -5.289  -4.050  0.00  0.00    -0.083 Cl
ATOM     29 CL   UNL     1      10.726  -5.961  -4.346  0.00  0.00    -0.083 Cl
ENDBRANCH  19  22
ENDBRANCH   9  18
BRANCH  12  30
ATOM     30  C   UNL     1       3.613   0.577   0.047  0.00  0.00    +0.145 C 
BRANCH  30  31
ATOM     31  C   UNL     1       2.161   0.650   0.525  0.00  0.00    +0.136 C 
ATOM     32  C   UNL     1       1.477   1.937  -0.002  0.00  0.00    +0.035 C 
ATOM     33  C   UNL     1      -0.019   1.537   0.011  0.00  0.00    +0.031 C 
ATOM     34  C   UNL     1       0.002  -0.004   0.002  0.00  0.00    +0.160 C 
ATOM     35  O   UNL     1       1.379  -0.412  -0.062  0.00  0.00    -0.375 OA
ENDBRANCH  30  31
ENDBRANCH  12  30
TORSDOF 5
