REMARK  Name = ZINC59958661
REMARK  8 active torsions:
REMARK  status: ('A' for Active; 'I' for Inactive)
REMARK    1  A    between atoms: C_4  and  C_7
REMARK    2  A    between atoms: C_7  and  N_8
REMARK    3  A    between atoms: N_8  and  C_9
REMARK    4  A    between atoms: N_8  and  C_16
REMARK    5  A    between atoms: C_9  and  C_10
REMARK    6  A    between atoms: C_16  and  C_17
REMARK    7  A    between atoms: N_19  and  C_20
REMARK    8  A    between atoms: C_25  and  N_26
REMARK                            x       y       z     vdW  Elec       q    Type
REMARK                         _______ _______ _______ _____ _____    ______ ____
ROOT
ATOM      1  N   UNL     1       4.080  -0.823   1.466  0.00  0.00    +0.390 N 
ATOM      2  H   UNL     1       4.045  -0.065   2.130  0.00  0.00    -0.081 HD
ENDROOT
BRANCH   1   3
ATOM      3  C   UNL     1       3.621  -0.347   0.154  0.00  0.00    -0.042 C 
BRANCH   3   7
ATOM      4  C   UNL     1      -0.261   1.393   0.549  0.00  0.00    +0.000 A 
ATOM      5  C   UNL     1       0.867   2.179   0.699  0.00  0.00    +0.000 A 
ATOM      6  C   UNL     1       2.123   1.615   0.571  0.00  0.00    +0.002 A 
ATOM      7  C   UNL     1       2.251   0.267   0.294  0.00  0.00    -0.064 A 
ATOM      8  C   UNL     1       1.123  -0.518   0.146  0.00  0.00    +0.002 A 
ATOM      9  C   UNL     1      -0.133   0.045   0.272  0.00  0.00    +0.000 A 
ENDBRANCH   3   7
ENDBRANCH   1   3
BRANCH   1  10
ATOM     10  C   UNL     1       3.210  -1.915   1.923  0.00  0.00    -0.046 C 
BRANCH  10  11
ATOM     11  C   UNL     1       3.547  -2.262   3.374  0.00  0.00    +0.102 C 
ATOM     12  C   UNL     1       2.572  -3.341   3.909  0.00  0.00    +0.032 C 
ATOM     13  C   UNL     1       3.430  -3.981   5.035  0.00  0.00    +0.030 C 
ATOM     14  C   UNL     1       4.857  -3.888   4.453  0.00  0.00    +0.160 C 
ATOM     15  O   UNL     1       4.851  -2.860   3.454  0.00  0.00    -0.378 OA
ENDBRANCH  10  11
ENDBRANCH   1  10
BRANCH   1  16
ATOM     16  C   UNL     1       5.461  -1.312   1.353  0.00  0.00    +0.019 C 
BRANCH  16  17
ATOM     17  C   UNL     1       6.376  -0.161   1.023  0.00  0.00    +0.201 C 
ATOM     18  O   UNL     1       5.924   0.958   0.904  0.00  0.00    -0.278 OA
ATOM     19  N   UNL     1       7.697  -0.375   0.861  0.00  0.00    -0.285 N 
ATOM     20  H   UNL     1       8.049  -1.279   0.892  0.00  0.00    +0.155 HD
BRANCH  19  21
ATOM     21  C   UNL     1       8.560   0.706   0.647  0.00  0.00    +0.064 A 
ATOM     22  C   UNL     1       8.302   1.931   1.248  0.00  0.00    +0.027 A 
ATOM     23  C   UNL     1       9.156   2.996   1.036  0.00  0.00    +0.022 A 
ATOM     24  C   UNL     1      10.267   2.842   0.226  0.00  0.00    +0.043 A 
ATOM     25  C   UNL     1      10.527   1.623  -0.373  0.00  0.00    +0.054 A 
ATOM     26  C   UNL     1       9.679   0.553  -0.160  0.00  0.00    +0.149 A 
ATOM     27 CL   UNL     1      11.338   4.183  -0.039  0.00  0.00    -0.083 Cl
BRANCH  26  28
ATOM     28  N   UNL     1       9.960  -0.753  -0.797  0.00  0.00    +0.058 N 
ATOM     29  O   UNL     1      10.990  -0.918  -1.409  0.00  0.00    -0.126 OA
ATOM     30  O   UNL     1       9.161  -1.655  -0.705  0.00  0.00    -0.126 OA
ENDBRANCH  26  28
ENDBRANCH  19  21
ENDBRANCH  16  17
ENDBRANCH   1  16
TORSDOF 8
