REMARK  Name = ZINC33534846
REMARK  10 active torsions:
REMARK  status: ('A' for Active; 'I' for Inactive)
REMARK    1  A    between atoms: C_1  and  C_2
REMARK    2  A    between atoms: C_2  and  C_3
REMARK    3  A    between atoms: C_3  and  C_5
REMARK    4  A    between atoms: C_3  and  C_6
REMARK    5  A    between atoms: C_6  and  C_36
REMARK    6  A    between atoms: C_11  and  C_14
REMARK    7  A    between atoms: C_16  and  C_21
REMARK    8  A    between atoms: C_19  and  C_20
REMARK    9  A    between atoms: N_24  and  C_27
REMARK   10  A    between atoms: C_31  and  N_33
REMARK                            x       y       z     vdW  Elec       q    Type
REMARK                         _______ _______ _______ _____ _____    ______ ____
ROOT
ATOM      1  C   UNL     1       2.559   2.123   0.288  0.00  0.00    +0.051 C 
ATOM      2  C   UNL     1       1.115   2.103   0.003  0.00  0.00    +0.086 C 
ATOM      3  C   UNL     1       0.588   3.291   0.902  0.00  0.00    +0.077 C 
ATOM      4  C   UNL     1       1.608   4.343   0.464  0.00  0.00    -0.026 C 
ATOM      5  N   UNL     1       2.874   3.591   0.216  0.00  0.00    +0.396 N 
ATOM      6  C   UNL     1      -0.797   3.328   0.312  0.00  0.00    +0.229 C 
ATOM      7  O   UNL     1      -1.489   4.307   0.131  0.00  0.00    -0.275 OA
ATOM      8  N   UNL     1      -1.113   2.031   0.018  0.00  0.00    -0.210 N 
ATOM      9  C   UNL     1      -0.014   1.208   0.009  0.00  0.00    +0.229 C 
ATOM     10  O   UNL     1       0.002  -0.004   0.002  0.00  0.00    -0.275 OA
ATOM     11  H   UNL     1       3.623   3.843   0.982  0.00  0.00    -0.083 HD
ATOM     12  H   UNL     1       3.272   3.833  -0.780  0.00  0.00    -0.083 HD
ENDROOT
BRANCH   4  13
ATOM     13  C   UNL     1       1.147   5.022  -0.800  0.00  0.00    -0.057 A 
ATOM     14  C   UNL     1       1.591   4.570  -2.029  0.00  0.00    +0.005 A 
ATOM     15  C   UNL     1       1.167   5.193  -3.188  0.00  0.00    -0.050 A 
ATOM     16  C   UNL     1       0.300   6.267  -3.118  0.00  0.00    +0.003 A 
ATOM     17  C   UNL     1      -0.144   6.719  -1.890  0.00  0.00    +0.004 A 
ATOM     18  C   UNL     1       0.276   6.093  -0.731  0.00  0.00    -0.049 A 
ATOM     19  C   UNL     1      -0.213   6.582   0.609  0.00  0.00    +0.044 C 
ATOM     20  C   UNL     1       1.651   4.700  -4.527  0.00  0.00    +0.044 C 
ENDBRANCH   4  13
BRANCH   8  21
ATOM     21  C   UNL     1      -2.417   1.588  -0.243  0.00  0.00    +0.046 A 
ATOM     22  C   UNL     1      -2.652   0.251  -0.537  0.00  0.00    +0.024 A 
ATOM     23  C   UNL     1      -3.938  -0.183  -0.789  0.00  0.00    +0.004 A 
ATOM     24  C   UNL     1      -4.991   0.714  -0.760  0.00  0.00    +0.033 A 
ATOM     25  C   UNL     1      -4.760   2.046  -0.473  0.00  0.00    +0.128 A 
ATOM     26  C   UNL     1      -3.476   2.486  -0.215  0.00  0.00    +0.056 A 
BRANCH  25  27
ATOM     27  N   UNL     1      -5.889   3.003  -0.443  0.00  0.00    +0.056 N 
ATOM     28  O   UNL     1      -5.686   4.177  -0.190  0.00  0.00    -0.126 OA
ATOM     29  O   UNL     1      -7.021   2.616  -0.670  0.00  0.00    -0.126 OA
ENDBRANCH  25  27
ENDBRANCH   8  21
BRANCH   1  30
ATOM     30  C   UNL     1       3.325   1.357  -0.760  0.00  0.00    +0.347 C 
ATOM     31  O   UNL     1       2.778   0.483  -1.390  0.00  0.00    -0.248 OA
ATOM     32  O   UNL     1       4.614   1.646  -0.994  0.00  0.00    -0.248 OA
ENDBRANCH   1  30
BRANCH   1  33
ATOM     33  C   UNL     1       2.848   1.570   1.685  0.00  0.00    -0.014 C 
ATOM     34  C   UNL     1       2.238   0.172   1.816  0.00  0.00    +0.006 C 
BRANCH  33  36
ATOM     35  C   UNL     1       4.649   1.055   3.338  0.00  0.00    +0.004 C 
ATOM     36  C   UNL     1       4.360   1.489   1.899  0.00  0.00    -0.001 C 
ENDBRANCH  33  36
ENDBRANCH   1  33
TORSDOF 6
