REMARK  Name = ZINC09158676
REMARK  12 active torsions:
REMARK  status: ('A' for Active; 'I' for Inactive)
REMARK    1  A    between atoms: C_1  and  C_2
REMARK    2  A    between atoms: N_7  and  C_8
REMARK    3  A    between atoms: C_11  and  O_14
REMARK    4  A    between atoms: O_14  and  C_15
REMARK    5  A    between atoms: C_16  and  C_17
REMARK    6  A    between atoms: C_16  and  N_64
REMARK    7  A    between atoms: N_19  and  C_20
REMARK    8  A    between atoms: C_24  and  O_34
REMARK    9  A    between atoms: C_29  and  C_30
REMARK   10  A    between atoms: C_30  and  O_32
REMARK   11  A    between atoms: O_32  and  C_33
REMARK   12  A    between atoms: O_34  and  C_35
REMARK                            x       y       z     vdW  Elec       q    Type
REMARK                         _______ _______ _______ _____ _____    ______ ____
ROOT
ATOM      1  C   UNL     1       2.738   0.578  -0.459  0.00  0.00    +0.201 C 
ATOM      2  O   UNL     1       1.873  -0.151  -0.895  0.00  0.00    -0.278 OA
ATOM      3  N   UNL     1       2.424   1.820  -0.039  0.00  0.00    -0.285 N 
ATOM      4  H   UNL     1       3.124   2.428   0.245  0.00  0.00    +0.155 HD
ENDROOT
BRANCH   3   5
ATOM      5  C   UNL     1       1.095   2.230  -0.014  0.00  0.00    +0.073 A 
ATOM      6  C   UNL     1      -0.079   1.381   0.198  0.00  0.00    +0.022 A 
ATOM      7  C   UNL     1      -0.245   0.009   0.423  0.00  0.00    +0.015 A 
ATOM      8  C   UNL     1      -1.497  -0.505   0.588  0.00  0.00    +0.046 A 
ATOM      9  C   UNL     1      -2.616   0.326   0.534  0.00  0.00    +0.122 A 
ATOM     10  C   UNL     1      -2.473   1.683   0.313  0.00  0.00    +0.072 A 
ATOM     11  C   UNL     1      -1.203   2.226   0.142  0.00  0.00    +0.052 A 
ATOM     12  N   UNL     1      -0.759   3.509  -0.083  0.00  0.00    -0.347 N 
ATOM     13  H   UNL     1      -1.329   4.290  -0.162  0.00  0.00    +0.166 HD
ATOM     14  C   UNL     1       0.626   3.517  -0.183  0.00  0.00    +0.147 A 
BRANCH  14  15
ATOM     15  C   UNL     1       1.427   4.662  -0.415  0.00  0.00    +0.357 C 
ATOM     16  O   UNL     1       2.641   4.573  -0.377  0.00  0.00    -0.243 OA
BRANCH  15  17
ATOM     17  O   UNL     1       0.846   5.851  -0.679  0.00  0.00    -0.463 OA
ATOM     18  C   UNL     1       1.715   6.963  -0.903  0.00  0.00    +0.280 C 
ENDBRANCH  15  17
ENDBRANCH  14  15
BRANCH   9  19
ATOM     19  O   UNL     1      -3.856  -0.203   0.701  0.00  0.00    -0.495 OA
ATOM     20  C   UNL     1      -3.936  -1.611   0.925  0.00  0.00    +0.277 C 
ENDBRANCH   9  19
ENDBRANCH   3   5
BRANCH   1  21
ATOM     21  C   UNL     1       4.163   0.096  -0.385  0.00  0.00    +0.019 C 
BRANCH  21  28
ATOM     22  C   UNL     1       6.964  -3.921  -0.865  0.00  0.00    +0.026 C 
ATOM     23  C   UNL     1       5.578  -3.320  -1.106  0.00  0.00    +0.054 C 
ATOM     24  C   UNL     1       5.563  -1.865  -0.629  0.00  0.00    -0.056 C 
ATOM     25  C   UNL     1       3.932  -1.324  -2.334  0.00  0.00    -0.059 C 
ATOM     26  C   UNL     1       3.947  -2.778  -2.811  0.00  0.00    +0.087 C 
ATOM     27  N   UNL     1       5.268  -3.365  -2.542  0.00  0.00    -0.331 N 
ATOM     28  N   UNL     1       4.224  -1.294  -0.885  0.00  0.00    +0.388 N 
ATOM     29  H   UNL     1       3.521  -1.857  -0.392  0.00  0.00    -0.081 HD
BRANCH  27  30
ATOM     30  C   UNL     1       5.343  -4.674  -3.030  0.00  0.00    +0.030 A 
ATOM     31  C   UNL     1       6.341  -5.023  -3.930  0.00  0.00    +0.027 A 
ATOM     32  C   UNL     1       6.418  -6.317  -4.408  0.00  0.00    +0.047 A 
ATOM     33  C   UNL     1       5.492  -7.264  -3.997  0.00  0.00    +0.120 A 
ATOM     34  C   UNL     1       4.492  -6.915  -3.102  0.00  0.00    +0.047 A 
ATOM     35  C   UNL     1       4.417  -5.623  -2.620  0.00  0.00    +0.027 A 
BRANCH  33  36
ATOM     36  O   UNL     1       5.566  -8.537  -4.471  0.00  0.00    -0.495 OA
ATOM     37  C   UNL     1       6.622  -8.827  -5.390  0.00  0.00    +0.277 C 
ENDBRANCH  33  36
ENDBRANCH  27  30
ENDBRANCH  21  28
ENDBRANCH   1  21
TORSDOF 8
