REMARK  Name = ZINC62834241
REMARK  7 active torsions:
REMARK  status: ('A' for Active; 'I' for Inactive)
REMARK    1  A    between atoms: C_1  and  C_2
REMARK    2  A    between atoms: C_2  and  C_4
REMARK    3  A    between atoms: C_2  and  N_9
REMARK    4  A    between atoms: N_6  and  C_7
REMARK    5  A    between atoms: N_6  and  C_8
REMARK    6  A    between atoms: C_10  and  C_12
REMARK    7  A    between atoms: C_16  and  N_22
REMARK                            x       y       z     vdW  Elec       q    Type
REMARK                         _______ _______ _______ _____ _____    ______ ____
ROOT
ATOM      1  C   UNL     1      -3.000  -1.582   1.736  0.00  0.00    +0.103 A 
ATOM      2  C   UNL     1      -3.567  -1.805   2.951  0.00  0.00    +0.041 A 
ATOM      3  C   UNL     1      -4.787  -2.490   2.738  0.00  0.00    +0.002 A 
ATOM      4  C   UNL     1      -5.780  -2.974   3.601  0.00  0.00    +0.032 A 
ATOM      5  C   UNL     1      -6.884  -3.618   3.079  0.00  0.00    +0.025 A 
ATOM      6  C   UNL     1      -7.013  -3.789   1.700  0.00  0.00    +0.025 A 
ATOM      7  C   UNL     1      -6.044  -3.320   0.843  0.00  0.00    +0.028 A 
ATOM      8  C   UNL     1      -4.923  -2.667   1.348  0.00  0.00    +0.047 A 
ATOM      9  N   UNL     1      -3.820  -2.098   0.752  0.00  0.00    -0.351 N 
ATOM     10  H   UNL     1      -3.646  -2.066  -0.202  0.00  0.00    +0.166 HD
ENDROOT
BRANCH   1  12
ATOM     11  N   UNL     1      -1.261  -0.728   0.250  0.00  0.00    -0.299 N 
ATOM     12  C   UNL     1      -1.720  -0.895   1.506  0.00  0.00    +0.261 C 
ATOM     13  O   UNL     1      -1.076  -0.477   2.450  0.00  0.00    -0.269 OA
ATOM     14  H   UNL     1      -1.775  -1.061  -0.502  0.00  0.00    +0.150 HD
BRANCH  11  16
ATOM     15  C   UNL     1      -0.219   1.468  -0.020  0.00  0.00    +0.038 C 
ATOM     16  C   UNL     1       0.014  -0.044   0.021  0.00  0.00    +0.156 C 
BRANCH  16  17
ATOM     17  C   UNL     1       0.599  -0.497  -1.292  0.00  0.00    +0.235 C 
ATOM     18  O   UNL     1      -0.090  -1.102  -2.086  0.00  0.00    -0.274 OA
ATOM     19  N   UNL     1       1.888  -0.232  -1.583  0.00  0.00    -0.306 N 
ATOM     20  C   UNL     1       2.434  -0.602  -2.890  0.00  0.00    +0.131 C 
ATOM     21  C   UNL     1       2.742   0.427  -0.592  0.00  0.00    +0.131 C 
ENDBRANCH  16  17
ENDBRANCH  11  16
ENDBRANCH   1  12
BRANCH   5  22
ATOM     22  N   UNL     1      -7.878  -4.102   3.936  0.00  0.00    -0.358 N 
ATOM     23  H   UNL     1      -7.790  -3.985   4.895  0.00  0.00    +0.142 HD
ATOM     24  H   UNL     1      -8.654  -4.556   3.572  0.00  0.00    +0.142 HD
ENDBRANCH   5  22
TORSDOF 4
