REMARK  Name = ZINC08690922
REMARK  10 active torsions:
REMARK  status: ('A' for Active; 'I' for Inactive)
REMARK    1  A    between atoms: C_1  and  C_2
REMARK    2  A    between atoms: C_5  and  C_33
REMARK    3  A    between atoms: C_6  and  N_8
REMARK    4  A    between atoms: N_8  and  C_9
REMARK    5  A    between atoms: C_9  and  N_11
REMARK    6  A    between atoms: N_12  and  C_13
REMARK    7  A    between atoms: C_16  and  S_24
REMARK    8  A    between atoms: N_20  and  C_23
REMARK    9  A    between atoms: C_21  and  O_22
REMARK   10  A    between atoms: S_24  and  N_27
REMARK                            x       y       z     vdW  Elec       q    Type
REMARK                         _______ _______ _______ _____ _____    ______ ____
ROOT
ATOM      1  C   UNL     1       0.399  -4.789   5.849  0.00  0.00    +0.150 A 
ATOM      2  C   UNL     1       0.441  -6.256   6.011  0.00  0.00    +0.032 A 
ATOM      3  C   UNL     1       0.381  -7.324   5.120  0.00  0.00    +0.040 A 
ATOM      4  C   UNL     1       0.447  -8.616   5.597  0.00  0.00    +0.106 A 
ATOM      5  C   UNL     1       0.573  -8.852   6.957  0.00  0.00    +0.030 A 
ATOM      6  C   UNL     1       0.634  -7.803   7.849  0.00  0.00    +0.028 A 
ATOM      7  C   UNL     1       0.569  -6.493   7.387  0.00  0.00    +0.054 A 
ATOM      8  N   UNL     1       0.603  -5.267   8.031  0.00  0.00    -0.313 N 
ATOM      9  C   UNL     1       0.510  -4.255   7.134  0.00  0.00    +0.221 A 
ATOM     10  C   UNL     1       0.729  -5.089   9.479  0.00  0.00    +0.152 C 
ENDROOT
BRANCH   1  12
ATOM     11  N   UNL     1       0.266  -2.819   4.715  0.00  0.00    -0.217 N 
ATOM     12  N   UNL     1       0.283  -4.109   4.702  0.00  0.00    -0.175 NA
ATOM     13  H   UNL     1       0.337  -2.342   5.557  0.00  0.00    +0.176 HD
BRANCH  11  14
ATOM     14  C   UNL     1       0.150  -2.134   3.561  0.00  0.00    +0.154 C 
ATOM     15  S   UNL     1       0.127  -0.423   3.579  0.00  0.00    -0.017 S 
BRANCH  14  16
ATOM     16  N   UNL     1       0.052  -2.797   2.391  0.00  0.00    -0.295 N 
ATOM     17  H   UNL     1      -0.015  -3.765   2.386  0.00  0.00    +0.154 HD
BRANCH  16  23
ATOM     18  C   UNL     1       1.920   0.767  -0.432  0.00  0.00    +0.044 C 
ATOM     19  C   UNL     1       0.941  -0.357  -0.210  0.00  0.00    -0.049 A 
ATOM     20  C   UNL     1       0.036  -0.690  -1.201  0.00  0.00    +0.004 A 
ATOM     21  C   UNL     1      -0.864  -1.721  -1.002  0.00  0.00    +0.005 A 
ATOM     22  C   UNL     1      -0.862  -2.421   0.188  0.00  0.00    -0.029 A 
ATOM     23  C   UNL     1       0.046  -2.090   1.185  0.00  0.00    +0.036 A 
ATOM     24  C   UNL     1       0.953  -1.057   0.980  0.00  0.00    +0.027 A 
ATOM     25  C   UNL     1      -1.843  -3.544   0.405  0.00  0.00    +0.045 C 
ENDBRANCH  16  23
ENDBRANCH  14  16
ENDBRANCH  11  14
ENDBRANCH   1  12
BRANCH   4  26
ATOM     26  S   UNL     1       0.371  -9.972   4.474  0.00  0.00    +0.061 S 
ATOM     27  O   UNL     1      -0.095 -11.090   5.217  0.00  0.00    -0.153 OA
ATOM     28  O   UNL     1      -0.295  -9.499   3.311  0.00  0.00    -0.153 OA
BRANCH  26  29
ATOM     29  N   UNL     1       1.925 -10.320   4.020  0.00  0.00    -0.172 NA
ATOM     30  C   UNL     1       2.537  -9.669   2.850  0.00  0.00    +0.137 C 
ATOM     31  C   UNL     1       3.896  -9.099   3.270  0.00  0.00    +0.177 C 
ATOM     32  O   UNL     1       4.665 -10.128   3.898  0.00  0.00    -0.377 OA
ATOM     33  C   UNL     1       4.086 -10.640   5.101  0.00  0.00    +0.177 C 
ATOM     34  C   UNL     1       2.738 -11.284   4.778  0.00  0.00    +0.137 C 
ENDBRANCH  26  29
ENDBRANCH   4  26
BRANCH   9  35
ATOM     35  O   UNL     1       0.520  -2.939   7.436  0.00  0.00    -0.492 OA
ATOM     36  H   UNL     1      -0.357  -2.568   7.605  0.00  0.00    +0.294 HD
ENDBRANCH   9  35
TORSDOF 7
