REMARK  Name = ZINC35730282
REMARK  14 active torsions:
REMARK  status: ('A' for Active; 'I' for Inactive)
REMARK    1  A    between atoms: C_1  and  C_2
REMARK    2  A    between atoms: C_9  and  C_11
REMARK    3  A    between atoms: C_11  and  C_12
REMARK    4  A    between atoms: C_12  and  C_13
REMARK    5  A    between atoms: C_18  and  C_20
REMARK    6  A    between atoms: C_20  and  C_22
REMARK    7  A    between atoms: C_20  and  N_33
REMARK    8  A    between atoms: C_22  and  C_23
REMARK    9  A    between atoms: C_34  and  C_36
REMARK   10  A    between atoms: C_36  and  C_37
REMARK   11  A    between atoms: C_37  and  C_38
REMARK   12  A    between atoms: C_38  and  C_39
REMARK   13  A    between atoms: C_39  and  C_40
REMARK   14  A    between atoms: C_40  and  N_41
REMARK                            x       y       z     vdW  Elec       q    Type
REMARK                         _______ _______ _______ _____ _____    ______ ____
ROOT
ATOM      1  C   UNL     1       0.937  -4.228  -1.765  0.00  0.00    +0.163 C 
ENDROOT
BRANCH   1  11
ATOM      2  C   UNL     1       4.366  -1.198   0.376  0.00  0.00    +0.029 C 
ATOM      3  C   UNL     1       3.396  -1.196  -0.807  0.00  0.00    +0.090 C 
ATOM      4  C   UNL     1       2.144  -2.006  -0.448  0.00  0.00    +0.130 C 
ATOM      5  N   UNL     1       1.124  -1.777  -1.482  0.00  0.00    -0.297 N 
ATOM      6  C   UNL     1       0.720  -0.398  -1.785  0.00  0.00    +0.127 C 
ATOM      7  C   UNL     1       1.971   0.413  -2.144  0.00  0.00    +0.127 C 
ATOM      8  N   UNL     1       2.994   0.185  -1.113  0.00  0.00    -0.296 N 
ATOM      9  C   UNL     1       3.550   1.222  -0.456  0.00  0.00    +0.216 C 
ATOM     10  O   UNL     1       4.456   1.029   0.327  0.00  0.00    -0.276 OA
ATOM     11  C   UNL     1       0.570  -2.815  -2.140  0.00  0.00    +0.236 C 
ATOM     12  O   UNL     1      -0.224  -2.612  -3.034  0.00  0.00    -0.274 OA
BRANCH   9  13
ATOM     13  C   UNL     1       3.047   2.622  -0.696  0.00  0.00    +0.096 C 
BRANCH  13  14
ATOM     14  C   UNL     1       3.842   3.605   0.167  0.00  0.00    +0.013 C 
BRANCH  14  15
ATOM     15  C   UNL     1       3.330   5.026  -0.076  0.00  0.00    -0.011 C 
ATOM     16  C   UNL     1       3.678   5.475  -1.510  0.00  0.00    +0.003 C 
ATOM     17  C   UNL     1       4.028   6.977  -1.363  0.00  0.00    +0.000 C 
ATOM     18  C   UNL     1       4.786   7.021  -0.013  0.00  0.00    +0.000 C 
ATOM     19  C   UNL     1       4.034   6.009   0.876  0.00  0.00    +0.003 C 
ENDBRANCH  14  15
ENDBRANCH  13  14
ENDBRANCH   9  13
ENDBRANCH   1  11
BRANCH   1  20
ATOM     20  N   UNL     1       0.403  -5.153  -2.767  0.00  0.00    -0.304 N 
ATOM     21  C   UNL     1       0.985  -6.355  -2.952  0.00  0.00    +0.214 C 
ATOM     22  O   UNL     1       1.950  -6.670  -2.289  0.00  0.00    -0.276 OA
ATOM     23  H   UNL     1      -0.369  -4.902  -3.297  0.00  0.00    +0.149 HD
BRANCH  21  24
ATOM     24  C   UNL     1       0.435  -7.307  -3.983  0.00  0.00    +0.096 C 
BRANCH  24  25
ATOM     25  C   UNL     1       1.272  -8.588  -3.991  0.00  0.00    +0.009 C 
BRANCH  25  26
ATOM     26  C   UNL     1       0.714  -9.555  -5.037  0.00  0.00    -0.001 C 
BRANCH  26  27
ATOM     27  C   UNL     1       1.550 -10.836  -5.045  0.00  0.00    -0.020 C 
BRANCH  27  28
ATOM     28  C   UNL     1       0.992 -11.803  -6.092  0.00  0.00    -0.086 C 
BRANCH  28  29
ATOM     29  N   UNL     1       1.796 -13.033  -6.100  0.00  0.00    +0.378 N 
ATOM     30  H   UNL     1       2.753 -12.808  -6.326  0.00  0.00    -0.090 HD
ATOM     31  H   UNL     1       1.758 -13.465  -5.189  0.00  0.00    -0.090 HD
ATOM     32  H   UNL     1       1.428 -13.670  -6.790  0.00  0.00    -0.090 HD
ENDBRANCH  28  29
ENDBRANCH  27  28
ENDBRANCH  26  27
ENDBRANCH  25  26
ENDBRANCH  24  25
ENDBRANCH  21  24
ENDBRANCH   1  20
BRANCH   1  33
ATOM     33  C   UNL     1       0.345  -4.562  -0.394  0.00  0.00    +0.069 C 
BRANCH  33  34
ATOM     34  C   UNL     1       0.844  -5.912   0.053  0.00  0.00    -0.020 A 
ATOM     35  C   UNL     1       0.220  -7.089  -0.114  0.00  0.00    +0.087 A 
ATOM     36  N   UNL     1       0.975  -8.097   0.421  0.00  0.00    -0.360 N 
ATOM     37  H   UNL     1       0.732  -9.036   0.422  0.00  0.00    +0.165 HD
ATOM     38  C   UNL     1       2.133  -7.580   0.959  0.00  0.00    +0.047 A 
ATOM     39  C   UNL     1       2.104  -6.189   0.746  0.00  0.00    +0.003 A 
ATOM     40  C   UNL     1       3.164  -5.395   1.187  0.00  0.00    +0.010 A 
ATOM     41  C   UNL     1       4.228  -5.974   1.821  0.00  0.00    +0.001 A 
ATOM     42  C   UNL     1       4.263  -7.345   2.030  0.00  0.00    +0.002 A 
ATOM     43  C   UNL     1       3.223  -8.147   1.611  0.00  0.00    +0.026 A 
ENDBRANCH  33  34
ENDBRANCH   1  33
TORSDOF 13
