REMARK  Name = ZINC08751227
REMARK  10 active torsions:
REMARK  status: ('A' for Active; 'I' for Inactive)
REMARK    1  A    between atoms: C_1  and  C_2
REMARK    2  A    between atoms: C_5  and  N_8
REMARK    3  A    between atoms: C_12  and  C_13
REMARK    4  A    between atoms: C_23  and  S_24
REMARK    5  A    between atoms: S_24  and  C_25
REMARK    6  A    between atoms: C_25  and  C_26
REMARK    7  A    between atoms: N_31  and  C_32
REMARK    8  A    between atoms: C_32  and  C_33
REMARK    9  A    between atoms: C_33  and  C_34
REMARK   10  A    between atoms: C_33  and  C_35
REMARK                            x       y       z     vdW  Elec       q    Type
REMARK                         _______ _______ _______ _____ _____    ______ ____
ROOT
ATOM      1  N   UNL     1       2.725  -2.313  -0.332  0.00  0.00    -0.214 N 
ATOM      2  C   UNL     1       1.388  -2.130  -0.266  0.00  0.00    +0.275 C 
ATOM      3  O   UNL     1       0.524  -2.986  -0.311  0.00  0.00    -0.268 OA
ATOM      4  C   UNL     1       1.197  -0.674  -0.131  0.00  0.00    +0.129 C 
ATOM      5  C   UNL     1       0.001  -0.001  -0.031  0.00  0.00    +0.041 C 
ATOM      6  N   UNL     1       2.451  -0.130  -0.121  0.00  0.00    -0.220 NA
ATOM      7  C   UNL     1       3.335  -1.085  -0.238  0.00  0.00    +0.169 C 
ENDROOT
BRANCH   5   8
ATOM      8  C   UNL     1      -0.016   1.464  -0.010  0.00  0.00    -0.019 A 
ATOM      9  C   UNL     1      -1.236   2.154  -0.043  0.00  0.00    +0.012 A 
ATOM     10  C   UNL     1      -1.248   3.531  -0.024  0.00  0.00    +0.050 A 
ATOM     11  C   UNL     1      -0.055   4.241   0.028  0.00  0.00    +0.166 A 
ATOM     12  C   UNL     1       1.164   3.561   0.061  0.00  0.00    +0.167 A 
ATOM     13  C   UNL     1       1.186   2.181   0.048  0.00  0.00    +0.057 A 
ATOM     14  O   UNL     1       2.174   4.480   0.110  0.00  0.00    -0.453 OA
ATOM     15  C   UNL     1       1.551   5.712   0.519  0.00  0.00    +0.466 C 
ATOM     16  O   UNL     1       0.195   5.582   0.055  0.00  0.00    -0.453 OA
ENDBRANCH   5   8
BRANCH   1  21
ATOM     17  C   UNL     1       5.370  -7.305  -0.880  0.00  0.00    +0.044 C 
ATOM     18  C   UNL     1       4.668  -5.979  -0.734  0.00  0.00    -0.050 A 
ATOM     19  C   UNL     1       3.792  -5.774   0.316  0.00  0.00    +0.005 A 
ATOM     20  C   UNL     1       3.147  -4.560   0.452  0.00  0.00    +0.024 A 
ATOM     21  C   UNL     1       3.378  -3.546  -0.467  0.00  0.00    +0.044 A 
ATOM     22  C   UNL     1       4.254  -3.757  -1.524  0.00  0.00    +0.024 A 
ATOM     23  C   UNL     1       4.901  -4.971  -1.651  0.00  0.00    +0.005 A 
ENDBRANCH   1  21
BRANCH   7  24
ATOM     24  S   UNL     1       5.079  -0.833  -0.270  0.00  0.00    -0.080 S 
BRANCH  24  25
ATOM     25  C   UNL     1       5.138   0.969  -0.105  0.00  0.00    +0.173 C 
BRANCH  25  26
ATOM     26  C   UNL     1       6.574   1.427  -0.109  0.00  0.00    +0.231 C 
ATOM     27  O   UNL     1       7.468   0.615  -0.213  0.00  0.00    -0.274 OA
ATOM     28  N   UNL     1       6.864   2.738   0.004  0.00  0.00    -0.240 N 
ATOM     29  C   UNL     1       8.148   3.147   0.001  0.00  0.00    +0.306 C 
ATOM     30  O   UNL     1       9.044   2.334  -0.104  0.00  0.00    -0.252 OA
ATOM     31  N   UNL     1       8.437   4.459   0.113  0.00  0.00    -0.299 N 
ATOM     32  H   UNL     1       6.148   3.387   0.087  0.00  0.00    +0.159 HD
ATOM     33  H   UNL     1       7.721   5.108   0.196  0.00  0.00    +0.150 HD
BRANCH  31  34
ATOM     34  C   UNL     1       9.833   4.904   0.109  0.00  0.00    +0.108 C 
BRANCH  34  35
ATOM     35  C   UNL     1       9.883   6.426   0.249  0.00  0.00    -0.000 C 
ATOM     36  C   UNL     1       9.333   6.831   1.618  0.00  0.00    +0.009 C 
ATOM     37  C   UNL     1      11.332   6.903   0.120  0.00  0.00    +0.009 C 
ENDBRANCH  34  35
ENDBRANCH  31  34
ENDBRANCH  25  26
ENDBRANCH  24  25
ENDBRANCH   7  24
TORSDOF 7
