REMARK  Name = ZINC00893962
REMARK  7 active torsions:
REMARK  status: ('A' for Active; 'I' for Inactive)
REMARK    1  A    between atoms: C_1  and  C_2
REMARK    2  A    between atoms: C_6  and  C_15
REMARK    3  A    between atoms: C_13  and  C_14
REMARK    4  A    between atoms: C_15  and  C_17
REMARK    5  A    between atoms: C_15  and  N_61
REMARK    6  A    between atoms: N_21  and  C_22
REMARK    7  A    between atoms: C_22  and  C_23
REMARK                            x       y       z     vdW  Elec       q    Type
REMARK                         _______ _______ _______ _____ _____    ______ ____
ROOT
ATOM      1  C   UNL     1       2.849   4.724   1.887  0.00  0.00    +0.039 C 
ENDROOT
BRANCH   1   7
ATOM      2  C   UNL     1       5.086  -1.244   5.759  0.00  0.00    +0.044 C 
ATOM      3  C   UNL     1       4.303   0.039   5.659  0.00  0.00    -0.047 A 
ATOM      4  C   UNL     1       4.322   0.756   4.495  0.00  0.00    +0.013 A 
ATOM      5  C   UNL     1       3.595   1.947   4.402  0.00  0.00    -0.001 A 
ATOM      6  C   UNL     1       3.594   2.739   3.170  0.00  0.00    +0.017 A 
ATOM      7  C   UNL     1       2.871   3.885   3.138  0.00  0.00    +0.011 A 
ATOM      8  C   UNL     1       2.144   4.299   4.275  0.00  0.00    +0.251 A 
ATOM      9  O   UNL     1       1.504   5.335   4.226  0.00  0.00    -0.268 OA
ATOM     10  N   UNL     1       2.135   3.576   5.409  0.00  0.00    -0.322 N 
ATOM     11  H   UNL     1       1.602   3.895   6.192  0.00  0.00    +0.169 HD
ATOM     12  C   UNL     1       2.849   2.401   5.506  0.00  0.00    +0.049 A 
ATOM     13  C   UNL     1       2.844   1.655   6.680  0.00  0.00    +0.030 A 
ATOM     14  C   UNL     1       3.568   0.484   6.749  0.00  0.00    -0.046 A 
ATOM     15  C   UNL     1       3.561  -0.323   8.022  0.00  0.00    +0.044 C 
ENDBRANCH   1   7
BRANCH   1  21
ATOM     16  C   UNL     1       3.153   6.968   1.030  0.00  0.00    -0.077 C 
ATOM     17  C   UNL     1       3.417   8.419   1.437  0.00  0.00    -0.019 C 
ATOM     18  C   UNL     1       4.806   8.521   2.075  0.00  0.00    -0.004 C 
ATOM     19  C   UNL     1       4.878   7.575   3.277  0.00  0.00    -0.019 C 
ATOM     20  C   UNL     1       4.572   6.148   2.816  0.00  0.00    -0.077 C 
ATOM     21  N   UNL     1       3.213   6.113   2.235  0.00  0.00    +0.389 N 
ATOM     22  H   UNL     1       2.544   6.468   2.929  0.00  0.00    -0.080 HD
ENDBRANCH   1  21
BRANCH   1  23
ATOM     23  C   UNL     1       1.460   4.715   1.300  0.00  0.00    +0.143 A 
ATOM     24  N   UNL     1       0.416   5.366   1.751  0.00  0.00    -0.115 NA
ATOM     25  N   UNL     1      -0.582   5.101   0.981  0.00  0.00    -0.023 NA
ATOM     26  N   UNL     1      -0.200   4.301   0.046  0.00  0.00    -0.044 NA
ATOM     27  N   UNL     1       1.052   4.035   0.213  0.00  0.00    -0.228 N 
BRANCH  27  28
ATOM     28  C   UNL     1       1.875   3.163  -0.628  0.00  0.00    +0.178 C 
BRANCH  28  29
ATOM     29  C   UNL     1       1.819   1.732  -0.088  0.00  0.00    +0.140 C 
ATOM     30  C   UNL     1       2.692   0.788  -0.952  0.00  0.00    +0.035 C 
ATOM     31  C   UNL     1       2.035  -0.590  -0.693  0.00  0.00    +0.031 C 
ATOM     32  C   UNL     1       0.617  -0.244  -0.198  0.00  0.00    +0.160 C 
ATOM     33  O   UNL     1       0.489   1.187  -0.232  0.00  0.00    -0.375 OA
ENDBRANCH  28  29
ENDBRANCH  27  28
ENDBRANCH   1  23
TORSDOF 5
