REMARK  Name = ZINC12706150
REMARK  12 active torsions:
REMARK  status: ('A' for Active; 'I' for Inactive)
REMARK    1  A    between atoms: C_1  and  C_2
REMARK    2  A    between atoms: C_5  and  C_8
REMARK    3  A    between atoms: C_8  and  C_10
REMARK    4  A    between atoms: C_8  and  N_20
REMARK    5  A    between atoms: N_12  and  C_13
REMARK    6  A    between atoms: C_13  and  C_14
REMARK    7  A    between atoms: N_20  and  C_21
REMARK    8  A    between atoms: C_25  and  C_28
REMARK    9  A    between atoms: C_26  and  C_27
REMARK   10  A    between atoms: C_29  and  C_31
REMARK   11  A    between atoms: C_32  and  N_39
REMARK   12  A    between atoms: C_33  and  C_36
REMARK                            x       y       z     vdW  Elec       q    Type
REMARK                         _______ _______ _______ _____ _____    ______ ____
ROOT
ATOM      1  N   UNL     1      -5.145   1.010   3.588  0.00  0.00    -0.251 N 
ATOM      2  C   UNL     1      -6.425   0.613   3.728  0.00  0.00    +0.262 C 
ATOM      3  O   UNL     1      -6.881  -0.243   2.993  0.00  0.00    -0.269 OA
ENDROOT
BRANCH   1   4
ATOM      4  C   UNL     1      -4.622   1.994   4.433  0.00  0.00    +0.041 A 
ATOM      5  C   UNL     1      -4.920   3.332   4.211  0.00  0.00    +0.024 A 
ATOM      6  C   UNL     1      -4.406   4.301   5.050  0.00  0.00    +0.002 A 
ATOM      7  C   UNL     1      -3.585   3.941   6.104  0.00  0.00    +0.004 A 
ATOM      8  C   UNL     1      -3.282   2.610   6.324  0.00  0.00    -0.046 A 
ATOM      9  C   UNL     1      -3.798   1.636   5.492  0.00  0.00    -0.026 A 
ATOM     10  C   UNL     1      -3.467   0.185   5.733  0.00  0.00    +0.046 C 
ATOM     11  C   UNL     1      -2.388   2.222   7.474  0.00  0.00    +0.044 C 
ENDBRANCH   1   4
BRANCH   2  12
ATOM     12  C   UNL     1      -7.268   1.212   4.764  0.00  0.00    +0.116 A 
ATOM     13  C   UNL     1      -8.603   0.952   5.079  0.00  0.00    +0.076 A 
ATOM     14  C   UNL     1      -9.063   1.731   6.141  0.00  0.00    +0.155 A 
ATOM     15  N   UNL     1      -8.245   2.586   6.713  0.00  0.00    -0.203 NA
ATOM     16  S   UNL     1      -6.863   2.462   5.966  0.00  0.00    +0.019 S 
BRANCH  14  17
ATOM     17  C   UNL     1     -10.452   1.595   6.617  0.00  0.00    +0.262 C 
ATOM     18  O   UNL     1     -11.203   0.802   6.084  0.00  0.00    -0.269 OA
ATOM     19  N   UNL     1     -10.889   2.351   7.644  0.00  0.00    -0.324 N 
ATOM     20  H   UNL     1     -10.290   2.984   8.069  0.00  0.00    +0.145 HD
ATOM     21  H   UNL     1     -11.803   2.262   7.957  0.00  0.00    +0.145 HD
ENDBRANCH  14  17
BRANCH  13  22
ATOM     22  N   UNL     1      -9.386   0.021   4.409  0.00  0.00    -0.355 N 
ATOM     23  H   UNL     1      -9.010  -0.492   3.677  0.00  0.00    +0.142 HD
ATOM     24  H   UNL     1     -10.309  -0.116   4.674  0.00  0.00    +0.142 HD
ENDBRANCH  13  22
ENDBRANCH   2  12
BRANCH   1  25
ATOM     25  C   UNL     1      -4.301   0.411   2.551  0.00  0.00    +0.197 C 
BRANCH  25  30
ATOM     26  C   UNL     1      -6.278   1.938  -2.660  0.00  0.00    +0.044 C 
ATOM     27  C   UNL     1      -5.762   1.539  -1.301  0.00  0.00    -0.050 A 
ATOM     28  C   UNL     1      -5.472   0.215  -1.033  0.00  0.00    +0.004 A 
ATOM     29  C   UNL     1      -4.999  -0.150   0.213  0.00  0.00    +0.006 A 
ATOM     30  C   UNL     1      -4.817   0.809   1.192  0.00  0.00    -0.018 A 
ATOM     31  C   UNL     1      -5.112   2.133   0.926  0.00  0.00    +0.006 A 
ATOM     32  C   UNL     1      -5.581   2.499  -0.323  0.00  0.00    +0.004 A 
ENDBRANCH  25  30
BRANCH  25  33
ATOM     33  C   UNL     1      -2.884   0.897   2.713  0.00  0.00    +0.239 C 
ATOM     34  O   UNL     1      -2.671   2.017   3.126  0.00  0.00    -0.273 OA
ATOM     35  N   UNL     1      -1.854   0.087   2.399  0.00  0.00    -0.311 N 
ATOM     36  H   UNL     1      -2.024  -0.809   2.069  0.00  0.00    +0.149 HD
BRANCH  35  37
ATOM     37  C   UNL     1      -0.476   0.559   2.557  0.00  0.00    +0.135 C 
BRANCH  37  38
ATOM     38  C   UNL     1       0.494  -0.546   2.135  0.00  0.00    +0.135 C 
ATOM     39  C   UNL     1       1.954  -0.101   2.374  0.00  0.00    +0.035 C 
ATOM     40  C   UNL     1       2.728  -0.696   1.177  0.00  0.00    +0.031 C 
ATOM     41  C   UNL     1       1.645  -1.431   0.356  0.00  0.00    +0.160 C 
ATOM     42  O   UNL     1       0.407  -0.778   0.712  0.00  0.00    -0.375 OA
ENDBRANCH  37  38
ENDBRANCH  35  37
ENDBRANCH  25  33
ENDBRANCH   1  25
TORSDOF 9
