REMARK  Name = ZINC00713911
REMARK  11 active torsions:
REMARK  status: ('A' for Active; 'I' for Inactive)
REMARK    1  A    between atoms: C_1  and  C_2
REMARK    2  A    between atoms: C_2  and  O_3
REMARK    3  A    between atoms: O_3  and  C_4
REMARK    4  A    between atoms: C_7  and  C_10
REMARK    5  A    between atoms: N_19  and  C_28
REMARK    6  A    between atoms: C_20  and  N_27
REMARK    7  A    between atoms: C_21  and  C_22
REMARK    8  A    between atoms: C_22  and  O_24
REMARK    9  A    between atoms: O_24  and  C_25
REMARK   10  A    between atoms: C_25  and  C_26
REMARK   11  A    between atoms: C_32  and  N_34
REMARK                            x       y       z     vdW  Elec       q    Type
REMARK                         _______ _______ _______ _____ _____    ______ ____
ROOT
ATOM      1  C   UNL     1      -0.119   7.692   1.344  0.00  0.00    +0.094 C 
ATOM      2  C   UNL     1      -1.344   7.236   0.592  0.00  0.00    +0.025 C 
ATOM      3  C   UNL     1      -1.294   6.170  -0.236  0.00  0.00    +0.024 C 
ATOM      4  C   UNL     1      -2.517   5.714  -0.990  0.00  0.00    +0.052 C 
ATOM      5  C   UNL     1      -3.775   6.041  -0.182  0.00  0.00    +0.014 C 
ATOM      6  C   UNL     1      -3.807   7.551   0.076  0.00  0.00    +0.080 C 
ATOM      7  C   UNL     1      -2.538   7.955   0.776  0.00  0.00    +0.162 C 
ATOM      8  O   UNL     1      -2.546   8.921   1.513  0.00  0.00    -0.292 OA
ATOM      9  N   UNL     1      -0.127   5.470  -0.402  0.00  0.00    -0.260 N 
ATOM     10  C   UNL     1       1.082   6.046  -0.090  0.00  0.00    +0.103 C 
ATOM     11  C   UNL     1       1.131   7.121   0.743  0.00  0.00    +0.084 C 
ENDROOT
BRANCH   1  15
ATOM     12  C   UNL     1      -0.424   6.423   5.413  0.00  0.00    +0.121 A 
ATOM     13  C   UNL     1      -0.359   7.775   5.111  0.00  0.00    +0.046 A 
ATOM     14  C   UNL     1      -0.260   8.183   3.794  0.00  0.00    +0.008 A 
ATOM     15  C   UNL     1      -0.227   7.245   2.779  0.00  0.00    -0.035 A 
ATOM     16  C   UNL     1      -0.297   5.896   3.078  0.00  0.00    +0.008 A 
ATOM     17  C   UNL     1      -0.390   5.483   4.393  0.00  0.00    +0.046 A 
BRANCH  12  18
ATOM     18  O   UNL     1      -0.522   6.019   6.707  0.00  0.00    -0.492 OA
BRANCH  18  20
ATOM     19  C   UNL     1      -0.692   4.352   8.448  0.00  0.00    +0.048 C 
ATOM     20  C   UNL     1      -0.585   4.611   6.944  0.00  0.00    +0.225 C 
ENDBRANCH  18  20
ENDBRANCH  12  18
ENDBRANCH   1  15
BRANCH   9  21
ATOM     21  C   UNL     1      -0.166   4.162  -0.897  0.00  0.00    +0.042 A 
ATOM     22  C   UNL     1      -0.583   3.119  -0.079  0.00  0.00    +0.024 A 
ATOM     23  C   UNL     1      -0.625   1.830  -0.572  0.00  0.00    +0.004 A 
ATOM     24  C   UNL     1      -0.242   1.575  -1.876  0.00  0.00    +0.033 A 
ATOM     25  C   UNL     1       0.173   2.610  -2.693  0.00  0.00    +0.128 A 
ATOM     26  C   UNL     1       0.212   3.902  -2.208  0.00  0.00    +0.056 A 
BRANCH  25  27
ATOM     27  N   UNL     1       0.577   2.332  -4.090  0.00  0.00    +0.056 N 
ATOM     28  O   UNL     1       0.543   1.193  -4.519  0.00  0.00    -0.126 OA
ATOM     29  O   UNL     1       0.943   3.244  -4.811  0.00  0.00    -0.126 OA
ENDBRANCH  25  27
ENDBRANCH   9  21
BRANCH  10  30
ATOM     30  N   UNL     1       2.239   5.536  -0.620  0.00  0.00    -0.346 N 
ATOM     31  H   UNL     1       2.957   6.134  -0.883  0.00  0.00    +0.143 HD
ATOM     32  H   UNL     1       2.341   4.578  -0.731  0.00  0.00    +0.143 HD
ENDBRANCH  10  30
BRANCH  11  33
ATOM     33  C   UNL     1       2.370   7.704   1.044  0.00  0.00    +0.339 C 
ATOM     34  O   UNL     1       3.400   7.179   0.659  0.00  0.00    -0.245 OA
BRANCH  33  35
ATOM     35  O   UNL     1       2.422   8.847   1.762  0.00  0.00    -0.462 OA
BRANCH  35  36
ATOM     36  C   UNL     1       3.718   9.386   2.032  0.00  0.00    +0.229 C 
ATOM     37  C   UNL     1       3.576  10.671   2.849  0.00  0.00    +0.048 C 
ENDBRANCH  35  36
ENDBRANCH  33  35
ENDBRANCH  11  33
TORSDOF 9
