REMARK  Name = ZINC64179225
REMARK  9 active torsions:
REMARK  status: ('A' for Active; 'I' for Inactive)
REMARK    1  A    between atoms: C_1  and  C_2
REMARK    2  A    between atoms: C_4  and  C_12
REMARK    3  A    between atoms: C_12  and  C_14
REMARK    4  A    between atoms: C_14  and  C_16
REMARK    5  A    between atoms: C_14  and  O_17
REMARK    6  A    between atoms: O_17  and  C_18
REMARK    7  A    between atoms: C_18  and  C_20
REMARK    8  A    between atoms: C_24  and  S_26
REMARK    9  A    between atoms: S_26  and  C_27
REMARK                            x       y       z     vdW  Elec       q    Type
REMARK                         _______ _______ _______ _____ _____    ______ ____
ROOT
ATOM      1  C   UNL     1      -3.787  -0.953  -0.721  0.00  0.00    +0.244 C 
ATOM      2  C   UNL     1      -3.714  -2.450  -1.030  0.00  0.00    +0.061 C 
ENDROOT
BRANCH   1   3
ATOM      3  C   UNL     1      -2.428  -0.333  -0.919  0.00  0.00    +0.202 C 
ATOM      4  O   UNL     1      -2.209   0.349  -1.899  0.00  0.00    -0.288 OA
BRANCH   3   7
ATOM      5  C   UNL     1      -0.019   1.526   0.010  0.00  0.00    +0.035 C 
ATOM      6  C   UNL     1       0.002  -0.004   0.002  0.00  0.00    +0.111 C 
ATOM      7  C   UNL     1      -1.411  -0.544   0.036  0.00  0.00    +0.030 C 
ATOM      8  C   UNL     1      -1.496  -1.289   1.198  0.00  0.00    +0.007 A 
ATOM      9  C   UNL     1      -2.543  -2.035   1.788  0.00  0.00    +0.010 A 
ATOM     10  C   UNL     1      -2.344  -2.680   2.960  0.00  0.00    +0.001 A 
ATOM     11  C   UNL     1      -1.116  -2.646   3.640  0.00  0.00    +0.002 A 
ATOM     12  C   UNL     1      -0.053  -1.963   3.162  0.00  0.00    +0.026 A 
ATOM     13  C   UNL     1      -0.185  -1.232   1.891  0.00  0.00    +0.043 A 
ATOM     14  N   UNL     1       0.660  -0.506   1.212  0.00  0.00    -0.377 N 
ATOM     15  H   UNL     1       1.578  -0.327   1.468  0.00  0.00    +0.160 HD
ENDBRANCH   3   7
ENDBRANCH   1   3
BRANCH   1  16
ATOM     16  O   UNL     1      -4.727  -0.331  -1.600  0.00  0.00    -0.449 OA
BRANCH  16  17
ATOM     17  C   UNL     1      -6.006  -0.271  -1.183  0.00  0.00    +0.360 C 
ATOM     18  O   UNL     1      -6.316  -0.734  -0.104  0.00  0.00    -0.243 OA
BRANCH  17  19
ATOM     19  C   UNL     1      -7.037   0.360  -2.042  0.00  0.00    +0.170 A 
ATOM     20  C   UNL     1      -8.366   0.433  -1.619  0.00  0.00    +0.091 A 
ATOM     21  C   UNL     1      -9.295   1.034  -2.459  0.00  0.00    +0.136 A 
ATOM     22  N   UNL     1      -8.897   1.515  -3.623  0.00  0.00    -0.229 NA
ATOM     23  C   UNL     1      -7.627   1.430  -3.998  0.00  0.00    +0.189 A 
ATOM     24  N   UNL     1      -6.709   0.871  -3.227  0.00  0.00    -0.214 NA
ATOM     25 CL   UNL     1      -8.845  -0.212  -0.080  0.00  0.00    -0.080 Cl
BRANCH  23  26
ATOM     26  S   UNL     1      -7.150   2.087  -5.562  0.00  0.00    -0.089 S 
ATOM     27  C   UNL     1      -8.693   2.744  -6.252  0.00  0.00    +0.093 C 
ENDBRANCH  23  26
ENDBRANCH  17  19
ENDBRANCH  16  17
ENDBRANCH   1  16
TORSDOF 6
