REMARK  Name = ZINC13915531
REMARK  10 active torsions:
REMARK  status: ('A' for Active; 'I' for Inactive)
REMARK    1  A    between atoms: C_1  and  C_2
REMARK    2  A    between atoms: C_2  and  O_3
REMARK    3  A    between atoms: O_3  and  C_4
REMARK    4  A    between atoms: C_5  and  O_30
REMARK    5  A    between atoms: C_8  and  C_10
REMARK    6  A    between atoms: C_15  and  C_16
REMARK    7  A    between atoms: C_19  and  O_25
REMARK    8  A    between atoms: C_20  and  O_22
REMARK    9  A    between atoms: O_22  and  C_23
REMARK   10  A    between atoms: C_23  and  C_24
REMARK                            x       y       z     vdW  Elec       q    Type
REMARK                         _______ _______ _______ _____ _____    ______ ____
ROOT
ATOM      1  C   UNL     1      -0.040  -4.978   0.581  0.00  0.00    +0.015 C 
ATOM      2  C   UNL     1      -0.056  -6.307   0.337  0.00  0.00    +0.000 C 
ATOM      3  C   UNL     1      -0.735  -7.314   1.146  0.00  0.00    +0.185 C 
ATOM      4  O   UNL     1      -1.381  -7.083   2.155  0.00  0.00    -0.287 OA
ATOM      5  C   UNL     1      -0.528  -8.640   0.569  0.00  0.00    +0.000 C 
ATOM      6  C   UNL     1      -1.015  -9.800   1.061  0.00  0.00    +0.015 C 
ATOM      7  C   UNL     1       0.322  -8.495  -0.669  0.00  0.00    +0.044 C 
ATOM      8  C   UNL     1       0.619  -6.998  -0.822  0.00  0.00    +0.044 C 
ENDROOT
BRANCH   1  13
ATOM      9  C   UNL     1       0.998  -1.817  -1.151  0.00  0.00    +0.164 A 
ATOM     10  C   UNL     1       1.704  -2.328  -2.239  0.00  0.00    +0.177 A 
ATOM     11  C   UNL     1       1.839  -3.701  -2.403  0.00  0.00    +0.087 A 
ATOM     12  C   UNL     1       1.274  -4.565  -1.489  0.00  0.00    +0.031 A 
ATOM     13  C   UNL     1       0.564  -4.059  -0.394  0.00  0.00    -0.020 A 
ATOM     14  C   UNL     1       0.434  -2.675  -0.228  0.00  0.00    +0.057 A 
ATOM     15 CL   UNL     1       2.719  -4.329  -3.760  0.00  0.00    -0.080 Cl
BRANCH  10  16
ATOM     16  O   UNL     1       2.262  -1.480  -3.143  0.00  0.00    -0.502 OA
ATOM     17  H   UNL     1       3.168  -1.218  -2.929  0.00  0.00    +0.292 HD
ENDBRANCH  10  16
BRANCH   9  18
ATOM     18  O   UNL     1       0.869  -0.472  -0.996  0.00  0.00    -0.489 OA
BRANCH  18  20
ATOM     19  C   UNL     1       0.099   1.512   0.151  0.00  0.00    +0.048 C 
ATOM     20  C   UNL     1       0.137  -0.018   0.145  0.00  0.00    +0.226 C 
ENDBRANCH  18  20
ENDBRANCH   9  18
ENDBRANCH   1  13
BRANCH   6  21
ATOM     21  C   UNL     1      -0.619 -11.079   0.456  0.00  0.00    -0.020 A 
ATOM     22  C   UNL     1       0.125 -11.093  -0.730  0.00  0.00    +0.031 A 
ATOM     23  C   UNL     1       0.495 -12.294  -1.296  0.00  0.00    +0.087 A 
ATOM     24  C   UNL     1       0.132 -13.492  -0.692  0.00  0.00    +0.177 A 
ATOM     25  C   UNL     1      -0.609 -13.485   0.489  0.00  0.00    +0.164 A 
ATOM     26  C   UNL     1      -0.979 -12.286   1.066  0.00  0.00    +0.057 A 
ATOM     27 CL   UNL     1       1.416 -12.311  -2.768  0.00  0.00    -0.080 Cl
BRANCH  24  28
ATOM     28  O   UNL     1       0.499 -14.673  -1.254  0.00  0.00    -0.502 OA
ATOM     29  H   UNL     1       1.354 -15.005  -0.948  0.00  0.00    +0.292 HD
ENDBRANCH  24  28
BRANCH  25  30
ATOM     30  O   UNL     1      -0.963 -14.659   1.077  0.00  0.00    -0.489 OA
BRANCH  30  31
ATOM     31  C   UNL     1      -1.721 -14.578   2.285  0.00  0.00    +0.226 C 
ATOM     32  C   UNL     1      -2.023 -15.989   2.794  0.00  0.00    +0.048 C 
ENDBRANCH  30  31
ENDBRANCH  25  30
ENDBRANCH   6  21
TORSDOF 8
