REMARK  Name = ZINC34906213
REMARK  10 active torsions:
REMARK  status: ('A' for Active; 'I' for Inactive)
REMARK    1  A    between atoms: C_1  and  C_2
REMARK    2  A    between atoms: C_2  and  N_3
REMARK    3  A    between atoms: N_6  and  C_7
REMARK    4  A    between atoms: C_13  and  N_15
REMARK    5  A    between atoms: C_16  and  C_18
REMARK    6  A    between atoms: C_21  and  C_23
REMARK    7  A    between atoms: C_23  and  O_24
REMARK    8  A    between atoms: O_24  and  C_25
REMARK    9  A    between atoms: C_27  and  C_32
REMARK   10  A    between atoms: C_29  and  C_31
REMARK                            x       y       z     vdW  Elec       q    Type
REMARK                         _______ _______ _______ _____ _____    ______ ____
ROOT
ATOM      1  N   UNL     1       4.083  -3.429   2.913  0.00  0.00    -0.305 N 
ATOM      2  C   UNL     1       5.296  -3.942   3.198  0.00  0.00    +0.263 C 
ATOM      3  O   UNL     1       5.400  -4.839   4.013  0.00  0.00    -0.269 OA
ATOM      4  H   UNL     1       4.000  -2.713   2.263  0.00  0.00    +0.149 HD
ENDROOT
BRANCH   1  10
ATOM      5  C   UNL     1       1.661  -3.700   2.708  0.00  0.00    +0.095 C 
ATOM      6  C   UNL     1       0.415  -4.245   3.409  0.00  0.00    +0.024 C 
ATOM      7  C   UNL     1       0.236  -3.538   4.754  0.00  0.00    +0.002 C 
ATOM      8  C   UNL     1       1.465  -3.788   5.630  0.00  0.00    +0.002 C 
ATOM      9  C   UNL     1       2.711  -3.243   4.929  0.00  0.00    +0.024 C 
ATOM     10  C   UNL     1       2.890  -3.950   3.584  0.00  0.00    +0.093 C 
BRANCH   5  14
ATOM     11  N   UNL     1       0.711  -0.489   1.189  0.00  0.00    -0.300 N 
ATOM     12  C   UNL     1       0.854  -1.814   1.394  0.00  0.00    +0.300 C 
ATOM     13  O   UNL     1       0.395  -2.606   0.593  0.00  0.00    -0.253 OA
ATOM     14  N   UNL     1       1.506  -2.260   2.486  0.00  0.00    -0.295 N 
ATOM     15  H   UNL     1       1.077   0.142   1.827  0.00  0.00    +0.150 HD
ATOM     16  H   UNL     1       1.872  -1.628   3.124  0.00  0.00    +0.151 HD
BRANCH  11  18
ATOM     17  C   UNL     1      -0.019   1.526   0.010  0.00  0.00    +0.024 C 
ATOM     18  C   UNL     1       0.002  -0.004   0.002  0.00  0.00    +0.102 C 
ENDBRANCH  11  18
ENDBRANCH   5  14
ENDBRANCH   1  10
BRANCH   2  19
ATOM     19  C   UNL     1       6.495  -3.417   2.523  0.00  0.00    +0.133 A 
ATOM     20  C   UNL     1       7.746  -3.913   2.779  0.00  0.00    +0.080 A 
ATOM     21  S   UNL     1       8.716  -2.984   1.769  0.00  0.00    -0.076 S 
ATOM     22  C   UNL     1       7.534  -2.018   1.070  0.00  0.00    +0.116 A 
ATOM     23  N   UNL     1       6.426  -2.433   1.621  0.00  0.00    -0.236 NA
BRANCH  22  24
ATOM     24  C   UNL     1       7.710  -0.931   0.042  0.00  0.00    +0.291 C 
BRANCH  24  25
ATOM     25  O   UNL     1       7.924   0.318   0.701  0.00  0.00    -0.485 OA
BRANCH  25  26
ATOM     26  C   UNL     1       8.103   1.410  -0.088  0.00  0.00    +0.122 A 
ATOM     27  C   UNL     1       8.067   1.282  -1.469  0.00  0.00    +0.049 A 
ATOM     28  C   UNL     1       8.248   2.394  -2.269  0.00  0.00    -0.047 A 
ATOM     29  C   UNL     1       8.466   3.633  -1.695  0.00  0.00    +0.007 A 
ATOM     30  C   UNL     1       8.502   3.762  -0.319  0.00  0.00    -0.047 A 
ATOM     31  C   UNL     1       8.316   2.655   0.486  0.00  0.00    +0.049 A 
ATOM     32  C   UNL     1       8.740   5.114   0.304  0.00  0.00    +0.044 C 
ATOM     33  C   UNL     1       8.209   2.256  -3.769  0.00  0.00    +0.044 C 
ENDBRANCH  25  26
ENDBRANCH  24  25
ENDBRANCH  22  24
ENDBRANCH   2  19
TORSDOF 7
