REMARK  Name = ZINC35920811
REMARK  9 active torsions:
REMARK  status: ('A' for Active; 'I' for Inactive)
REMARK    1  A    between atoms: C_1  and  C_2
REMARK    2  A    between atoms: C_2  and  C_3
REMARK    3  A    between atoms: C_2  and  N_4
REMARK    4  A    between atoms: N_4  and  C_5
REMARK    5  A    between atoms: C_5  and  C_6
REMARK    6  A    between atoms: N_9  and  C_20
REMARK    7  A    between atoms: C_11  and  C_13
REMARK    8  A    between atoms: C_20  and  C_21
REMARK    9  A    between atoms: C_27  and  C_29
REMARK                            x       y       z     vdW  Elec       q    Type
REMARK                         _______ _______ _______ _____ _____    ______ ____
ROOT
ATOM      1  C   UNL     1      -1.610  -2.265  -1.449  0.00  0.00    -0.005 C 
ATOM      2  C   UNL     1      -2.322  -3.128  -0.385  0.00  0.00    -0.073 C 
ATOM      3  N   UNL     1      -3.401  -3.826  -1.130  0.00  0.00    +0.384 N 
ATOM      4  C   UNL     1      -2.776  -4.183  -2.429  0.00  0.00    -0.070 C 
ATOM      5  C   UNL     1      -1.907  -2.958  -2.795  0.00  0.00    +0.005 C 
ATOM      6  H   UNL     1      -4.186  -3.208  -1.274  0.00  0.00    -0.081 HD
ENDROOT
BRANCH   5   7
ATOM      7  C   UNL     1      -0.624  -3.401  -3.449  0.00  0.00    -0.046 A 
ATOM      8  C   UNL     1       0.205  -4.301  -2.806  0.00  0.00    +0.006 A 
ATOM      9  C   UNL     1       1.382  -4.708  -3.405  0.00  0.00    +0.038 A 
ATOM     10  C   UNL     1       1.730  -4.215  -4.651  0.00  0.00    +0.123 A 
ATOM     11  C   UNL     1       0.899  -3.314  -5.295  0.00  0.00    +0.038 A 
ATOM     12  C   UNL     1      -0.280  -2.912  -4.696  0.00  0.00    +0.006 A 
ATOM     13  F   UNL     1       2.880  -4.612  -5.239  0.00  0.00    -0.205 F 
ENDBRANCH   5   7
BRANCH   1  14
ATOM     14  C   UNL     1      -2.177  -0.844  -1.446  0.00  0.00    +0.110 C 
BRANCH  14  15
ATOM     15  N   UNL     1      -1.763  -0.155  -0.221  0.00  0.00    -0.299 N 
ATOM     16  C   UNL     1      -2.692   0.364   0.606  0.00  0.00    +0.219 C 
ATOM     17  O   UNL     1      -2.348   1.011   1.573  0.00  0.00    -0.275 OA
BRANCH  16  18
ATOM     18  C   UNL     1      -4.156   0.142   0.330  0.00  0.00    +0.075 C 
ATOM     19  C   UNL     1      -4.658  -1.130   1.058  0.00  0.00    +0.013 C 
ATOM     20  C   UNL     1      -6.181  -0.873   1.183  0.00  0.00    +0.001 C 
ATOM     21  C   UNL     1      -6.286   0.637   1.479  0.00  0.00    +0.001 C 
ATOM     22  C   UNL     1      -4.999   1.282   0.937  0.00  0.00    +0.013 C 
ENDBRANCH  16  18
BRANCH  15  24
ATOM     23  C   UNL     1       0.051   1.448   0.123  0.00  0.00    +0.028 C 
ATOM     24  C   UNL     1      -0.340  -0.031   0.104  0.00  0.00    +0.070 C 
ATOM     25  C   UNL     1      -0.076  -0.646   1.480  0.00  0.00    +0.028 C 
ENDBRANCH  15  24
ENDBRANCH  14  15
ENDBRANCH   1  14
BRANCH   3  26
ATOM     26  C   UNL     1      -3.822  -5.036  -0.411  0.00  0.00    -0.025 C 
BRANCH  26  27
ATOM     27  C   UNL     1      -5.009  -5.648  -1.110  0.00  0.00    -0.001 A 
ATOM     28  C   UNL     1      -6.304  -5.436  -0.800  0.00  0.00    +0.020 A 
ATOM     29  C   UNL     1      -7.082  -6.196  -1.696  0.00  0.00    +0.019 A 
ATOM     30  C   UNL     1      -6.232  -6.843  -2.519  0.00  0.00    +0.082 A 
ATOM     31  N   UNL     1      -4.959  -6.506  -2.168  0.00  0.00    -0.366 N 
ATOM     32  H   UNL     1      -4.151  -6.826  -2.598  0.00  0.00    +0.165 HD
ENDBRANCH  26  27
ENDBRANCH   3  26
TORSDOF 7
