REMARK  Name = ZINC36039577
REMARK  9 active torsions:
REMARK  status: ('A' for Active; 'I' for Inactive)
REMARK    1  A    between atoms: C_1  and  C_2
REMARK    2  A    between atoms: C_2  and  C_3
REMARK    3  A    between atoms: C_2  and  C_4
REMARK    4  A    between atoms: C_4  and  N_5
REMARK    5  A    between atoms: N_5  and  C_6
REMARK    6  A    between atoms: C_6  and  C_7
REMARK    7  A    between atoms: C_7  and  N_9
REMARK    8  A    between atoms: C_12  and  C_23
REMARK    9  A    between atoms: N_14  and  C_15
REMARK                            x       y       z     vdW  Elec       q    Type
REMARK                         _______ _______ _______ _____ _____    ______ ____
ROOT
ATOM      1  N   UNL     1       5.081  -0.468  -3.364  0.00  0.00    -0.148 NA
ATOM      2  C   UNL     1       6.361  -0.098  -3.321  0.00  0.00    +0.205 A 
ATOM      3  N   UNL     1       6.956   0.602  -2.321  0.00  0.00    -0.326 N 
ATOM      4  C   UNL     1       8.292   0.780  -2.662  0.00  0.00    +0.066 A 
ATOM      5  C   UNL     1       8.496   0.193  -3.854  0.00  0.00    +0.120 A 
ATOM      6  N   UNL     1       7.301  -0.360  -4.268  0.00  0.00    -0.287 N 
ATOM      7  H   UNL     1       6.526   0.921  -1.512  0.00  0.00    +0.169 HD
ENDROOT
BRANCH   6   8
ATOM      8  C   UNL     1       7.093  -1.068  -5.460  0.00  0.00    +0.051 A 
ATOM      9  C   UNL     1       5.832  -1.567  -5.760  0.00  0.00    +0.029 A 
ATOM     10  C   UNL     1       5.627  -2.263  -6.935  0.00  0.00    +0.042 A 
ATOM     11  C   UNL     1       6.678  -2.465  -7.813  0.00  0.00    +0.142 A 
ATOM     12  C   UNL     1       7.937  -1.969  -7.516  0.00  0.00    +0.078 A 
ATOM     13  C   UNL     1       8.144  -1.266  -6.344  0.00  0.00    +0.049 A 
ATOM     14 CL   UNL     1       9.254  -2.224  -8.618  0.00  0.00    -0.081 Cl
ATOM     15  F   UNL     1       6.476  -3.147  -8.962  0.00  0.00    -0.204 F 
ENDBRANCH   6   8
BRANCH   4  16
ATOM     16  C   UNL     1       9.309   1.491  -1.856  0.00  0.00    -0.000 A 
ATOM     17  C   UNL     1      10.620   1.602  -2.321  0.00  0.00    +0.010 A 
ATOM     18  C   UNL     1      11.563   2.266  -1.565  0.00  0.00    +0.001 A 
ATOM     19  C   UNL     1      11.212   2.821  -0.347  0.00  0.00    +0.000 A 
ATOM     20  C   UNL     1       9.915   2.714   0.120  0.00  0.00    +0.001 A 
ATOM     21  C   UNL     1       8.960   2.058  -0.629  0.00  0.00    +0.010 A 
ENDBRANCH   4  16
BRANCH   1  22
ATOM     22  C   UNL     1       4.263  -0.146  -2.369  0.00  0.00    +0.222 C 
ATOM     23  O   UNL     1       4.682   0.487  -1.418  0.00  0.00    -0.276 OA
BRANCH  22  24
ATOM     24  C   UNL     1       2.816  -0.564  -2.418  0.00  0.00    +0.017 C 
BRANCH  24  25
ATOM     25  N   UNL     1       2.129  -0.090  -1.209  0.00  0.00    +0.385 N 
ATOM     26  H   UNL     1       2.187   0.916  -1.162  0.00  0.00    -0.085 HD
ATOM     27  H   UNL     1       2.567  -0.491  -0.394  0.00  0.00    -0.085 HD
BRANCH  25  28
ATOM     28  C   UNL     1       0.718  -0.497  -1.257  0.00  0.00    -0.079 C 
BRANCH  28  30
ATOM     29  C   UNL     1      -0.019   1.526   0.010  0.00  0.00    +0.005 C 
ATOM     30  C   UNL     1       0.002  -0.004   0.002  0.00  0.00    -0.034 C 
ATOM     31  C   UNL     1      -1.433  -0.534   0.013  0.00  0.00    +0.005 C 
ENDBRANCH  28  30
ENDBRANCH  25  28
ENDBRANCH  24  25
ENDBRANCH  22  24
ENDBRANCH   1  22
TORSDOF 7
