REMARK  Name = ZINC63351480
REMARK  4 active torsions:
REMARK  status: ('A' for Active; 'I' for Inactive)
REMARK    1  A    between atoms: C_8  and  C_16
REMARK    2  A    between atoms: N_22  and  C_25
REMARK    3  A    between atoms: C_25  and  C_26
REMARK    4  A    between atoms: C_26  and  C_27
REMARK                            x       y       z     vdW  Elec       q    Type
REMARK                         _______ _______ _______ _____ _____    ______ ____
ROOT
ATOM      1  C   UNL     1       5.153  -3.159   0.824  0.00  0.00    +0.100 A 
ATOM      2  H   UNL     1       8.026  -2.565   2.197  0.00  0.00    +0.173 HD
ATOM      3  C   UNL     1       6.046  -2.676   1.734  0.00  0.00    +0.263 A 
ATOM      4  N   UNL     1       7.387  -2.906   1.552  0.00  0.00    -0.274 N 
ATOM      5  C   UNL     1       7.820  -3.602   0.485  0.00  0.00    +0.332 A 
ATOM      6  O   UNL     1       9.012  -3.796   0.341  0.00  0.00    -0.246 OA
ATOM      7  N   UNL     1       6.955  -4.087  -0.424  0.00  0.00    -0.260 N 
ATOM      8  C   UNL     1       5.630  -3.889  -0.280  0.00  0.00    +0.265 A 
ATOM      9  O   UNL     1       4.849  -4.334  -1.104  0.00  0.00    -0.267 OA
ATOM     10  O   UNL     1       5.615  -1.977   2.805  0.00  0.00    -0.267 OA
ENDROOT
BRANCH   1  17
ATOM     11  C   UNL     1      -0.016   1.347   0.009  0.00  0.00    +0.001 A 
ATOM     12  C   UNL     1       1.165   2.101   0.002  0.00  0.00    +0.002 A 
ATOM     13  C   UNL     1       2.390   1.534  -0.017  0.00  0.00    +0.026 A 
ATOM     14  C   UNL     1       2.529   0.120  -0.031  0.00  0.00    +0.043 A 
ATOM     15  N   UNL     1       3.593  -0.653  -0.026  0.00  0.00    -0.376 N 
ATOM     16  C   UNL     1       3.155  -2.041  -0.140  0.00  0.00    +0.128 C 
ATOM     17  C   UNL     1       3.676  -2.919   1.001  0.00  0.00    +0.121 C 
ATOM     18  N   UNL     1       2.957  -4.202   0.964  0.00  0.00    -0.307 NA
ATOM     19  C   UNL     1       1.532  -4.075   1.282  0.00  0.00    +0.086 C 
ATOM     20  C   UNL     1       0.819  -3.248   0.195  0.00  0.00    +0.048 C 
ATOM     21  C   UNL     1       1.640  -1.996  -0.015  0.00  0.00    -0.035 C 
ATOM     22  C   UNL     1       1.294  -0.703  -0.014  0.00  0.00    -0.001 A 
ATOM     23  C   UNL     1       0.002  -0.004   0.002  0.00  0.00    +0.010 A 
ATOM     24  H   UNL     1       3.089  -4.665   0.077  0.00  0.00    +0.123 HD
ATOM     25  H   UNL     1       4.512  -0.352   0.043  0.00  0.00    +0.160 HD
ENDBRANCH   1  17
BRANCH   7  26
ATOM     26  C   UNL     1       7.456  -4.841  -1.575  0.00  0.00    +0.134 C 
BRANCH  26  27
ATOM     27  C   UNL     1       7.524  -6.328  -1.221  0.00  0.00    +0.052 C 
BRANCH  27  28
ATOM     28  C   UNL     1       8.040  -7.104  -2.406  0.00  0.00    -0.072 C 
ATOM     29  C   UNL     1       9.306  -7.368  -2.454  0.00  0.00    -0.028 C 
ATOM     30  C   UNL     1       9.966  -8.120  -3.572  0.00  0.00    +0.027 C 
ATOM     31  C   UNL     1       8.918  -8.876  -4.390  0.00  0.00    +0.004 C 
ATOM     32  C   UNL     1       7.785  -7.904  -4.745  0.00  0.00    +0.005 C 
ATOM     33  C   UNL     1       7.052  -7.528  -3.453  0.00  0.00    +0.030 C 
ENDBRANCH  27  28
ENDBRANCH  26  27
ENDBRANCH   7  26
TORSDOF 4
