REMARK  Name = ZINC32759211
REMARK  8 active torsions:
REMARK  status: ('A' for Active; 'I' for Inactive)
REMARK    1  A    between atoms: C_1  and  N_2
REMARK    2  A    between atoms: N_2  and  C_3
REMARK    3  A    between atoms: N_2  and  C_14
REMARK    4  A    between atoms: C_3  and  C_4
REMARK    5  A    between atoms: C_7  and  O_10
REMARK    6  A    between atoms: O_10  and  C_11
REMARK    7  A    between atoms: C_11  and  C_12
REMARK    8  A    between atoms: C_14  and  C_15
REMARK                            x       y       z     vdW  Elec       q    Type
REMARK                         _______ _______ _______ _____ _____    ______ ____
ROOT
ATOM      1  C   UNL     1      -3.942   5.660   1.414  0.00  0.00    -0.095 C 
ATOM      2  N   UNL     1      -4.968   4.613   1.329  0.00  0.00    +0.384 N 
ATOM      3  H   UNL     1      -4.800   3.907   2.156  0.00  0.00    -0.081 HD
ENDROOT
BRANCH   2   4
ATOM      4  C   UNL     1      -6.314   5.181   1.487  0.00  0.00    -0.043 C 
BRANCH   4   5
ATOM      5  C   UNL     1      -6.469   5.723   2.884  0.00  0.00    -0.064 A 
ATOM      6  C   UNL     1      -6.952   4.907   3.891  0.00  0.00    +0.005 A 
ATOM      7  C   UNL     1      -7.090   5.401   5.174  0.00  0.00    +0.046 A 
ATOM      8  C   UNL     1      -6.755   6.718   5.449  0.00  0.00    +0.121 A 
ATOM      9  C   UNL     1      -6.276   7.536   4.436  0.00  0.00    +0.046 A 
ATOM     10  C   UNL     1      -6.134   7.037   3.156  0.00  0.00    +0.005 A 
BRANCH   8  11
ATOM     11  O   UNL     1      -6.895   7.207   6.710  0.00  0.00    -0.488 OA
BRANCH  11  12
ATOM     12  C   UNL     1      -7.393   6.309   7.703  0.00  0.00    +0.256 C 
BRANCH  12  13
ATOM     13  C   UNL     1      -7.480   7.022   9.027  0.00  0.00    +0.006 C 
ATOM     14  C   UNL     1      -8.549   6.889   9.774  0.00  0.00    +0.007 C 
ENDBRANCH  12  13
ENDBRANCH  11  12
ENDBRANCH   8  11
ENDBRANCH   4   5
ENDBRANCH   2   4
BRANCH   2  15
ATOM     15  C   UNL     1      -4.856   3.867   0.069  0.00  0.00    -0.022 C 
BRANCH  15  16
ATOM     16  C   UNL     1      -3.559   3.099   0.052  0.00  0.00    +0.032 A 
ATOM     17  C   UNL     1      -3.574   1.718   0.044  0.00  0.00    +0.092 A 
ATOM     18  C   UNL     1      -2.357   1.028   0.029  0.00  0.00    +0.259 A 
ATOM     19  O   UNL     1      -2.336  -0.193   0.022  0.00  0.00    -0.267 OA
ATOM     20  N   UNL     1      -1.206   1.733   0.017  0.00  0.00    -0.267 N 
ATOM     21  C   UNL     1      -0.013   1.076   0.008  0.00  0.00    +0.116 A 
ATOM     22  C   UNL     1       1.154   1.761   0.001  0.00  0.00    +0.058 A 
ATOM     23  C   UNL     1       1.147   3.164   0.009  0.00  0.00    +0.025 A 
ATOM     24  C   UNL     1      -0.041   3.830   0.024  0.00  0.00    +0.048 A 
ATOM     25  C   UNL     1      -1.244   3.099   0.031  0.00  0.00    +0.140 A 
ATOM     26  N   UNL     1      -2.406   3.750   0.045  0.00  0.00    -0.236 NA
ATOM     27 CL   UNL     1       2.663   0.902  -0.018  0.00  0.00    -0.082 Cl
ENDBRANCH  15  16
ENDBRANCH   2  15
TORSDOF 7
