REMARK  Name = ZINC65795716
REMARK  10 active torsions:
REMARK  status: ('A' for Active; 'I' for Inactive)
REMARK    1  A    between atoms: C_1  and  C_2
REMARK    2  A    between atoms: C_2  and  C_3
REMARK    3  A    between atoms: C_2  and  C_4
REMARK    4  A    between atoms: C_2  and  O_5
REMARK    5  A    between atoms: O_5  and  C_6
REMARK    6  A    between atoms: N_8  and  C_9
REMARK    7  A    between atoms: C_9  and  C_10
REMARK    8  A    between atoms: C_10  and  N_11
REMARK    9  A    between atoms: N_11  and  S_12
REMARK   10  A    between atoms: S_12  and  C_15
REMARK                            x       y       z     vdW  Elec       q    Type
REMARK                         _______ _______ _______ _____ _____    ______ ____
ROOT
ATOM      1  C   UNL     1       4.579  -0.657  -3.906  0.00  0.00    +0.124 C 
ENDROOT
BRANCH   1   2
ATOM      2  N   UNL     1       5.973  -0.243  -4.083  0.00  0.00    -0.188 NA
ATOM      3  H   UNL     1       6.335   0.481  -3.550  0.00  0.00    +0.148 HD
BRANCH   2   4
ATOM      4  S   UNL     1       6.930  -1.013  -5.194  0.00  0.00    +0.065 S 
ATOM      5  O   UNL     1       8.199  -0.375  -5.149  0.00  0.00    -0.153 OA
ATOM      6  O   UNL     1       6.770  -2.407  -4.972  0.00  0.00    -0.153 OA
BRANCH   4   7
ATOM      7  C   UNL     1       6.254  -0.676  -6.786  0.00  0.00    +0.143 A 
ATOM      8  C   UNL     1       6.534   0.343  -7.635  0.00  0.00    +0.037 A 
ATOM      9  C   UNL     1       5.873   0.408  -8.847  0.00  0.00    +0.025 A 
ATOM     10  C   UNL     1       4.963  -0.551  -9.152  0.00  0.00    +0.057 A 
ATOM     11  S   UNL     1       5.027  -1.594  -7.704  0.00  0.00    -0.062 S 
ATOM     12 BR   UNL     1       3.907  -0.739 -10.709  0.00  0.00    -0.043 Br
ENDBRANCH   4   7
ENDBRANCH   2   4
ENDBRANCH   1   2
BRANCH   1  13
ATOM     13  C   UNL     1       4.035  -0.071  -2.601  0.00  0.00    +0.124 C 
BRANCH  13  16
ATOM     14  C   UNL     1       1.952  -0.085  -1.337  0.00  0.00    +0.401 C 
ATOM     15  O   UNL     1       2.488   0.619  -0.503  0.00  0.00    -0.226 OA
ATOM     16  N   UNL     1       2.641  -0.485  -2.424  0.00  0.00    -0.280 N 
ATOM     17  H   UNL     1       2.213  -1.047  -3.089  0.00  0.00    +0.152 HD
BRANCH  14  18
ATOM     18  O   UNL     1       0.671  -0.465  -1.174  0.00  0.00    -0.445 OA
BRANCH  18  20
ATOM     19  C   UNL     1      -0.019   1.526   0.010  0.00  0.00    +0.055 C 
ATOM     20  C   UNL     1       0.002  -0.004   0.002  0.00  0.00    +0.107 C 
ATOM     21  C   UNL     1       0.742  -0.511   1.242  0.00  0.00    +0.055 C 
ATOM     22  C   UNL     1      -1.433  -0.534   0.013  0.00  0.00    +0.055 C 
ENDBRANCH  18  20
ENDBRANCH  14  18
ENDBRANCH  13  16
ENDBRANCH   1  13
TORSDOF 7
