REMARK  Name = ZINC66809912
REMARK  8 active torsions:
REMARK  status: ('A' for Active; 'I' for Inactive)
REMARK    1  A    between atoms: C_1  and  C_2
REMARK    2  A    between atoms: C_2  and  C_3
REMARK    3  A    between atoms: C_3  and  C_4
REMARK    4  A    between atoms: C_4  and  N_5
REMARK    5  A    between atoms: N_5  and  C_6
REMARK    6  A    between atoms: N_5  and  C_7
REMARK    7  A    between atoms: C_7  and  C_8
REMARK    8  A    between atoms: C_18  and  C_20
REMARK                            x       y       z     vdW  Elec       q    Type
REMARK                         _______ _______ _______ _____ _____    ______ ____
ROOT
ATOM      1  C   UNL     1      -4.178  -4.663  -0.203  0.00  0.00    -0.025 C 
ATOM      2  C   UNL     1      -5.004  -4.246   1.016  0.00  0.00    +0.020 C 
ATOM      3  C   UNL     1      -6.396  -4.879   0.925  0.00  0.00    +0.107 C 
ATOM      4  N   UNL     1      -6.246  -6.332   0.767  0.00  0.00    -0.315 N 
ATOM      5  C   UNL     1      -5.398  -6.840  -0.321  0.00  0.00    +0.107 C 
ATOM      6  C   UNL     1      -4.017  -6.185  -0.216  0.00  0.00    +0.020 C 
ATOM      7  C   UNL     1      -6.891  -7.206   1.626  0.00  0.00    +0.129 A 
ATOM      8  C   UNL     1      -8.212  -7.592   1.386  0.00  0.00    +0.014 A 
ATOM      9  C   UNL     1      -8.818  -8.465   2.267  0.00  0.00    +0.050 A 
ATOM     10  N   UNL     1      -8.131  -8.909   3.310  0.00  0.00    -0.232 NA
ATOM     11  C   UNL     1      -6.879  -8.528   3.514  0.00  0.00    +0.162 A 
ATOM     12  N   UNL     1      -6.261  -7.694   2.689  0.00  0.00    -0.212 NA
ATOM     13  C   UNL     1     -10.234  -8.744   1.817  0.00  0.00    +0.056 C 
ATOM     14  C   UNL     1     -10.570  -7.617   0.816  0.00  0.00    +0.011 C 
ATOM     15  C   UNL     1      -9.176  -7.222   0.283  0.00  0.00    +0.041 C 
ENDROOT
BRANCH  11  16
ATOM     16  C   UNL     1      -6.147  -9.050   4.695  0.00  0.00    +0.022 A 
ATOM     17  C   UNL     1      -4.828  -8.667   4.949  0.00  0.00    +0.031 A 
ATOM     18  C   UNL     1      -4.184  -9.177   6.059  0.00  0.00    +0.111 A 
ATOM     19  N   UNL     1      -4.798 -10.014   6.873  0.00  0.00    -0.263 NA
ATOM     20  C   UNL     1      -6.043 -10.400   6.669  0.00  0.00    +0.111 A 
ATOM     21  C   UNL     1      -6.761  -9.934   5.587  0.00  0.00    +0.031 A 
ENDBRANCH  11  16
BRANCH   1  22
ATOM     22  C   UNL     1      -2.799  -4.005  -0.134  0.00  0.00    -0.076 C 
BRANCH  22  23
ATOM     23  N   UNL     1      -2.052  -4.302  -1.364  0.00  0.00    +0.378 N 
ATOM     24  C   UNL     1      -2.715  -3.659  -2.506  0.00  0.00    -0.096 C 
ATOM     25  H   UNL     1      -2.026  -5.300  -1.509  0.00  0.00    -0.082 HD
BRANCH  23  26
ATOM     26  C   UNL     1      -0.681  -3.788  -1.241  0.00  0.00    -0.079 C 
BRANCH  26  27
ATOM     27  C   UNL     1       0.132  -4.205  -2.468  0.00  0.00    -0.019 C 
BRANCH  27  29
ATOM     28  C   UNL     1       2.372  -4.087  -3.567  0.00  0.00    +0.004 C 
ATOM     29  C   UNL     1       1.559  -3.670  -2.340  0.00  0.00    -0.005 C 
ENDBRANCH  27  29
ENDBRANCH  26  27
ENDBRANCH  23  26
ENDBRANCH  22  23
ENDBRANCH   1  22
TORSDOF 6
