REMARK  Name = ZINC50925092
REMARK  12 active torsions:
REMARK  status: ('A' for Active; 'I' for Inactive)
REMARK    1  A    between atoms: C_1  and  C_2
REMARK    2  A    between atoms: C_2  and  C_3
REMARK    3  A    between atoms: C_2  and  S_4
REMARK    4  A    between atoms: S_4  and  N_7
REMARK    5  A    between atoms: N_7  and  C_8
REMARK    6  A    between atoms: C_8  and  C_9
REMARK    7  A    between atoms: N_13  and  C_15
REMARK    8  A    between atoms: C_15  and  N_16
REMARK    9  A    between atoms: N_19  and  C_22
REMARK   10  A    between atoms: C_22  and  C_23
REMARK   11  A    between atoms: C_23  and  O_24
REMARK   12  A    between atoms: O_24  and  C_25
REMARK                            x       y       z     vdW  Elec       q    Type
REMARK                         _______ _______ _______ _____ _____    ______ ____
ROOT
ATOM      1  C   UNL     1      -1.602  -4.185   1.739  0.00  0.00    -0.012 C 
ATOM      2  C   UNL     1      -3.131  -4.264   1.756  0.00  0.00    +0.001 C 
ATOM      3  C   UNL     1      -3.555  -5.716   1.994  0.00  0.00    -0.018 C 
ATOM      4  C   UNL     1      -2.935  -6.216   3.300  0.00  0.00    -0.076 C 
ATOM      5  N   UNL     1      -1.472  -6.140   3.211  0.00  0.00    +0.393 N 
ATOM      6  C   UNL     1      -1.054  -4.742   3.055  0.00  0.00    -0.071 C 
ATOM      7  H   UNL     1      -1.156  -6.675   2.416  0.00  0.00    -0.079 HD
ENDROOT
BRANCH   1   8
ATOM      8  C   UNL     1      -1.167  -2.727   1.581  0.00  0.00    +0.107 C 
BRANCH   8   9
ATOM      9  N   UNL     1      -1.589  -2.232   0.269  0.00  0.00    -0.194 NA
ATOM     10  H   UNL     1      -1.875  -2.856  -0.417  0.00  0.00    +0.148 HD
BRANCH   9  11
ATOM     11  S   UNL     1      -1.580  -0.606  -0.045  0.00  0.00    +0.032 S 
ATOM     12  O   UNL     1      -2.318  -0.026   1.022  0.00  0.00    -0.158 OA
ATOM     13  O   UNL     1      -2.035  -0.492  -1.386  0.00  0.00    -0.158 OA
BRANCH  11  15
ATOM     14  C   UNL     1       0.985  -0.929  -0.940  0.00  0.00    +0.033 C 
ATOM     15  C   UNL     1       0.165  -0.120   0.067  0.00  0.00    +0.142 C 
ATOM     16  C   UNL     1       0.300   1.372  -0.247  0.00  0.00    +0.033 C 
ENDBRANCH  11  15
ENDBRANCH   9  11
ENDBRANCH   8   9
ENDBRANCH   1   8
BRANCH   5  17
ATOM     17  C   UNL     1      -0.879  -6.693   4.436  0.00  0.00    +0.072 C 
BRANCH  17  18
ATOM     18  N   UNL     1      -1.189  -8.122   4.527  0.00  0.00    -0.258 N 
ATOM     19  C   UNL     1      -2.101  -8.692   5.343  0.00  0.00    +0.176 A 
ATOM     20  S   UNL     1      -3.109  -7.879   6.462  0.00  0.00    -0.011 S 
ATOM     21  N   UNL     1      -2.072 -10.021   5.113  0.00  0.00    -0.307 N 
ATOM     22  C   UNL     1      -1.131 -10.271   4.144  0.00  0.00    +0.223 A 
ATOM     23  N   UNL     1      -0.599  -9.150   3.779  0.00  0.00    -0.161 NA
BRANCH  21  24
ATOM     24  C   UNL     1      -2.902 -11.025   5.783  0.00  0.00    +0.153 C 
BRANCH  24  25
ATOM     25  C   UNL     1      -4.200 -11.220   4.997  0.00  0.00    +0.181 C 
BRANCH  25  26
ATOM     26  O   UNL     1      -3.901 -11.772   3.713  0.00  0.00    -0.381 OA
ATOM     27  C   UNL     1      -5.051 -11.995   2.894  0.00  0.00    +0.194 C 
ENDBRANCH  25  26
ENDBRANCH  24  25
ENDBRANCH  21  24
ENDBRANCH  17  18
ENDBRANCH   5  17
TORSDOF 9
