REMARK  Name = ZINC38600712
REMARK  8 active torsions:
REMARK  status: ('A' for Active; 'I' for Inactive)
REMARK    1  A    between atoms: C_1  and  C_2
REMARK    2  A    between atoms: C_2  and  C_4
REMARK    3  A    between atoms: C_2  and  N_22
REMARK    4  A    between atoms: N_6  and  C_7
REMARK    5  A    between atoms: C_15  and  C_17
REMARK    6  A    between atoms: C_17  and  O_19
REMARK    7  A    between atoms: O_19  and  C_20
REMARK    8  A    between atoms: C_25  and  C_28
REMARK                            x       y       z     vdW  Elec       q    Type
REMARK                         _______ _______ _______ _____ _____    ______ ____
ROOT
ATOM      1  C   UNL     1      -1.921  -0.647  -0.810  0.00  0.00    +0.203 C 
ATOM      2  O   UNL     1      -1.823  -1.316   0.196  0.00  0.00    -0.277 OA
ATOM      3  N   UNL     1      -3.138  -0.359  -1.312  0.00  0.00    -0.288 N 
ATOM      4  H   UNL     1      -3.215   0.126  -2.149  0.00  0.00    +0.155 HD
ENDROOT
BRANCH   3   5
ATOM      5  C   UNL     1      -4.260  -0.750  -0.645  0.00  0.00    +0.053 C 
ATOM      6  C   UNL     1      -5.569  -0.419  -0.947  0.00  0.00    +0.019 A 
ATOM      7  C   UNL     1      -6.142   0.374  -1.970  0.00  0.00    +0.026 A 
ATOM      8  C   UNL     1      -7.489   0.530  -2.026  0.00  0.00    +0.019 A 
ATOM      9  C   UNL     1      -8.335  -0.077  -1.093  0.00  0.00    +0.017 A 
ATOM     10  C   UNL     1      -7.857  -0.850  -0.088  0.00  0.00    +0.027 A 
ATOM     11  C   UNL     1      -6.459  -1.060   0.037  0.00  0.00    +0.045 A 
ATOM     12  N   UNL     1      -5.756  -1.754   0.909  0.00  0.00    -0.367 N 
ATOM     13  C   UNL     1      -4.332  -1.641   0.576  0.00  0.00    +0.234 C 
ATOM     14 BR   UNL     1      -8.239   1.593  -3.397  0.00  0.00    -0.050 Br
ATOM     15  H   UNL     1      -6.122  -2.263   1.650  0.00  0.00    +0.161 HD
BRANCH  13  16
ATOM     16  C   UNL     1      -3.759  -2.999   0.262  0.00  0.00    +0.335 C 
ATOM     17  O   UNL     1      -4.385  -3.776  -0.419  0.00  0.00    -0.248 OA
BRANCH  16  18
ATOM     18  O   UNL     1      -2.554  -3.345   0.740  0.00  0.00    -0.466 OA
ATOM     19  C   UNL     1      -2.072  -4.648   0.404  0.00  0.00    +0.280 C 
ENDBRANCH  16  18
ENDBRANCH  13  16
ENDBRANCH   3   5
BRANCH   1  21
ATOM     20  C   UNL     1      -0.354   1.268  -0.984  0.00  0.00    -0.004 C 
ATOM     21  C   UNL     1      -0.682  -0.136  -1.499  0.00  0.00    +0.016 C 
BRANCH  21  22
ATOM     22  N   UNL     1       0.444  -1.036  -1.214  0.00  0.00    +0.387 N 
ATOM     23  C   UNL     1       0.170  -2.356  -1.795  0.00  0.00    -0.077 C 
ATOM     24  C   UNL     1       1.301  -3.321  -1.433  0.00  0.00    -0.006 C 
ATOM     25  C   UNL     1       2.623  -2.781  -1.988  0.00  0.00    +0.071 C 
ATOM     26  C   UNL     1       2.861  -1.374  -1.434  0.00  0.00    -0.006 C 
ATOM     27  C   UNL     1       1.672  -0.481  -1.796  0.00  0.00    -0.077 C 
ATOM     28  H   UNL     1       0.556  -1.127  -0.216  0.00  0.00    -0.081 HD
BRANCH  25  29
ATOM     29  C   UNL     1       3.752  -3.686  -1.568  0.00  0.00    +0.213 C 
ATOM     30  O   UNL     1       3.525  -4.667  -0.892  0.00  0.00    -0.276 OA
ATOM     31  N   UNL     1       5.016  -3.405  -1.945  0.00  0.00    -0.329 N 
ATOM     32  H   UNL     1       5.198  -2.621  -2.486  0.00  0.00    +0.145 HD
ATOM     33  H   UNL     1       5.743  -3.988  -1.675  0.00  0.00    +0.145 HD
ENDBRANCH  25  29
ENDBRANCH  21  22
ENDBRANCH   1  21
TORSDOF 6
