REMARK  Name = ZINC39677326
REMARK  10 active torsions:
REMARK  status: ('A' for Active; 'I' for Inactive)
REMARK    1  A    between atoms: C_1  and  C_2
REMARK    2  A    between atoms: C_6  and  C_7
REMARK    3  A    between atoms: C_7  and  N_8
REMARK    4  A    between atoms: C_9  and  C_11
REMARK    5  A    between atoms: C_22  and  C_24
REMARK    6  A    between atoms: C_24  and  C_26
REMARK    7  A    between atoms: C_24  and  O_29
REMARK    8  A    between atoms: C_26  and  C_27
REMARK    9  A    between atoms: C_26  and  C_28
REMARK   10  A    between atoms: O_29  and  C_30
REMARK                            x       y       z     vdW  Elec       q    Type
REMARK                         _______ _______ _______ _____ _____    ______ ____
ROOT
ATOM      1  C   UNL     1      -3.397   0.165   5.155  0.00  0.00    +0.100 C 
ATOM      2  C   UNL     1      -3.940   1.203   4.148  0.00  0.00    +0.121 C 
ATOM      3  N   UNL     1      -4.461   2.305   4.991  0.00  0.00    -0.297 N 
ATOM      4  C   UNL     1      -3.474   2.426   6.091  0.00  0.00    +0.115 C 
ATOM      5  C   UNL     1      -3.091   0.972   6.428  0.00  0.00    -0.004 C 
ATOM      6  C   UNL     1      -1.607   0.882   6.767  0.00  0.00    -0.010 C 
ATOM      7  C   UNL     1      -1.338   1.644   8.069  0.00  0.00    -0.082 C 
ATOM      8  N   UNL     1      -2.143   1.065   9.151  0.00  0.00    +0.379 N 
ATOM      9  C   UNL     1      -3.571   1.239   8.860  0.00  0.00    -0.082 C 
ATOM     10  C   UNL     1      -3.935   0.461   7.593  0.00  0.00    -0.010 C 
ATOM     11  C   UNL     1      -5.579   3.033   4.801  0.00  0.00    +0.257 C 
ATOM     12  O   UNL     1      -5.822   3.972   5.528  0.00  0.00    -0.272 OA
ATOM     13  H   UNL     1      -1.935   0.082   9.234  0.00  0.00    -0.086 HD
ATOM     14  H   UNL     1      -1.919   1.528  10.019  0.00  0.00    -0.086 HD
ENDROOT
BRANCH   1  16
ATOM     15  N   UNL     1      -1.742  -1.673   5.093  0.00  0.00    -0.310 N 
ATOM     16  C   UNL     1      -2.139  -0.473   4.624  0.00  0.00    +0.218 C 
ATOM     17  O   UNL     1      -1.484   0.092   3.775  0.00  0.00    -0.275 OA
ATOM     18  H   UNL     1      -2.266  -2.125   5.773  0.00  0.00    +0.149 HD
BRANCH  15  19
ATOM     19  C   UNL     1      -0.519  -2.293   4.577  0.00  0.00    +0.147 C 
BRANCH  19  25
ATOM     20  C   UNL     1      -1.567  -5.028   3.650  0.00  0.00    +0.044 C 
ATOM     21  C   UNL     1      -0.739  -4.849   4.896  0.00  0.00    -0.039 A 
ATOM     22  C   UNL     1      -0.409  -5.937   5.681  0.00  0.00    +0.011 A 
ATOM     23  C   UNL     1       0.338  -5.742   6.796  0.00  0.00    +0.046 A 
ATOM     24  S   UNL     1       0.598  -3.976   6.761  0.00  0.00    -0.100 S 
ATOM     25  C   UNL     1      -0.302  -3.619   5.260  0.00  0.00    +0.010 A 
ENDBRANCH  19  25
ENDBRANCH  15  19
ENDBRANCH   1  16
BRANCH  11  26
ATOM     26  C   UNL     1      -6.528   2.679   3.684  0.00  0.00    +0.261 C 
BRANCH  26  27
ATOM     27  C   UNL     1      -7.542   1.648   4.184  0.00  0.00    +0.033 C 
ATOM     28  C   UNL     1      -8.586   1.390   3.096  0.00  0.00    +0.011 C 
ATOM     29  C   UNL     1      -6.819   0.341   4.518  0.00  0.00    +0.011 C 
ENDBRANCH  26  27
BRANCH  26  30
ATOM     30  O   UNL     1      -7.216   3.854   3.253  0.00  0.00    -0.479 OA
BRANCH  30  31
ATOM     31  C   UNL     1      -7.500   3.953   1.928  0.00  0.00    +0.122 A 
ATOM     32  C   UNL     1      -8.178   5.061   1.443  0.00  0.00    +0.045 A 
ATOM     33  C   UNL     1      -8.465   5.159   0.095  0.00  0.00    +0.004 A 
ATOM     34  C   UNL     1      -8.075   4.153  -0.771  0.00  0.00    +0.000 A 
ATOM     35  C   UNL     1      -7.399   3.047  -0.289  0.00  0.00    +0.004 A 
ATOM     36  C   UNL     1      -7.105   2.948   1.057  0.00  0.00    +0.045 A 
ENDBRANCH  30  31
ENDBRANCH  26  30
ENDBRANCH  11  26
TORSDOF 7
