REMARK  Name = ZINC64651464
REMARK  11 active torsions:
REMARK  status: ('A' for Active; 'I' for Inactive)
REMARK    1  A    between atoms: C_1  and  C_2
REMARK    2  A    between atoms: C_10  and  C_12
REMARK    3  A    between atoms: N_14  and  C_15
REMARK    4  A    between atoms: C_15  and  C_17
REMARK    5  A    between atoms: C_15  and  C_18
REMARK    6  A    between atoms: C_22  and  S_26
REMARK    7  A    between atoms: N_24  and  C_25
REMARK    8  A    between atoms: S_26  and  C_27
REMARK    9  A    between atoms: C_27  and  C_28
REMARK   10  A    between atoms: C_28  and  O_29
REMARK   11  A    between atoms: O_29  and  C_30
REMARK                            x       y       z     vdW  Elec       q    Type
REMARK                         _______ _______ _______ _____ _____    ______ ____
ROOT
ATOM      1  C   UNL     1      -2.462   0.552   3.715  0.00  0.00    +0.111 C 
ATOM      2  C   UNL     1      -3.501   1.335   2.909  0.00  0.00    +0.031 C 
ENDROOT
BRANCH   1   3
ATOM      3  C   UNL     1      -2.089   1.343   4.970  0.00  0.00    +0.220 C 
ATOM      4  N   UNL     1      -1.146   0.577   5.795  0.00  0.00    -0.169 NA
ATOM      5  N   UNL     1      -1.466   0.611   6.988  0.00  0.00    -0.160 NA
ATOM      6  C   UNL     1      -2.684   1.407   7.189  0.00  0.00    +0.258 C 
ATOM      7  N   UNL     1      -3.282   1.535   5.834  0.00  0.00    -0.249 NA
ATOM      8  C   UNL     1      -3.865   2.869   5.637  0.00  0.00    +0.110 C 
BRANCH   6   9
ATOM      9  S   UNL     1      -3.823   0.546   8.307  0.00  0.00    -0.114 S 
BRANCH   9  10
ATOM     10  C   UNL     1      -4.139  -1.036   7.479  0.00  0.00    +0.113 C 
BRANCH  10  11
ATOM     11  C   UNL     1      -5.099  -1.873   8.328  0.00  0.00    +0.240 C 
BRANCH  11  12
ATOM     12  O   UNL     1      -5.349  -3.120   7.676  0.00  0.00    -0.491 OA
BRANCH  12  13
ATOM     13  C   UNL     1      -6.188  -3.987   8.302  0.00  0.00    +0.121 A 
ATOM     14  C   UNL     1      -6.763  -3.642   9.516  0.00  0.00    +0.048 A 
ATOM     15  C   UNL     1      -7.615  -4.524  10.151  0.00  0.00    +0.042 A 
ATOM     16  C   UNL     1      -7.895  -5.753   9.577  0.00  0.00    +0.124 A 
ATOM     17  C   UNL     1      -7.321  -6.098   8.365  0.00  0.00    +0.042 A 
ATOM     18  C   UNL     1      -6.474  -5.215   7.724  0.00  0.00    +0.048 A 
ATOM     19  F   UNL     1      -8.729  -6.615  10.199  0.00  0.00    -0.205 F 
ENDBRANCH  12  13
ENDBRANCH  11  12
ENDBRANCH  10  11
ENDBRANCH   9  10
ENDBRANCH   6   9
ENDBRANCH   1   3
BRANCH   1  22
ATOM     20  C   UNL     1      -1.205  -0.703   2.047  0.00  0.00    +0.240 C 
ATOM     21  O   UNL     1      -2.141  -1.470   1.961  0.00  0.00    -0.273 OA
ATOM     22  N   UNL     1      -1.266   0.342   2.896  0.00  0.00    -0.307 N 
ATOM     23  H   UNL     1      -0.517   0.954   2.966  0.00  0.00    +0.149 HD
BRANCH  20  33
ATOM     24  C   UNL     1      -0.018   1.503   0.010  0.00  0.00    +0.042 C 
ATOM     25  C   UNL     1       0.002  -0.004   0.002  0.00  0.00    -0.033 C 
ATOM     26  C   UNL     1       0.009  -0.811  -1.083  0.00  0.00    +0.001 A 
ATOM     27  C   UNL     1      -0.002  -0.538  -2.525  0.00  0.00    +0.030 A 
ATOM     28  C   UNL     1       0.009  -1.579  -3.390  0.00  0.00    +0.042 A 
ATOM     29  C   UNL     1       0.028  -2.909  -2.944  0.00  0.00    +0.022 A 
ATOM     30  C   UNL     1       0.038  -3.238  -1.635  0.00  0.00    +0.027 A 
ATOM     31  C   UNL     1       0.030  -2.223  -0.638  0.00  0.00    +0.043 A 
ATOM     32  N   UNL     1       0.036  -2.286   0.671  0.00  0.00    -0.370 N 
ATOM     33  C   UNL     1       0.026  -0.920   1.206  0.00  0.00    +0.193 C 
ATOM     34 CL   UNL     1      -0.004  -1.260  -5.097  0.00  0.00    -0.084 Cl
ATOM     35  H   UNL     1       0.049  -3.100   1.199  0.00  0.00    +0.161 HD
ENDBRANCH  20  33
ENDBRANCH   1  22
TORSDOF 8
