REMARK  Name = ZINC08753978
REMARK  8 active torsions:
REMARK  status: ('A' for Active; 'I' for Inactive)
REMARK    1  A    between atoms: C_1  and  O_2
REMARK    2  A    between atoms: O_2  and  C_3
REMARK    3  A    between atoms: C_6  and  C_9
REMARK    4  A    between atoms: C_15  and  C_28
REMARK    5  A    between atoms: C_15  and  O_32
REMARK    6  A    between atoms: C_17  and  C_19
REMARK    7  A    between atoms: C_20  and  C_21
REMARK    8  A    between atoms: C_26  and  O_27
REMARK                            x       y       z     vdW  Elec       q    Type
REMARK                         _______ _______ _______ _____ _____    ______ ____
ROOT
ATOM      1  C   UNL     1      -3.621  -0.739   6.611  0.00  0.00    +0.080 A 
ATOM      2  C   UNL     1      -3.702  -0.782   7.975  0.00  0.00    +0.077 A 
ATOM      3  S   UNL     1      -2.127  -0.065   8.424  0.00  0.00    -0.058 S 
ATOM      4  C   UNL     1      -1.533   0.226   6.764  0.00  0.00    +0.184 A 
ATOM      5  N   UNL     1      -2.538  -0.235   6.040  0.00  0.00    -0.223 NA
ATOM      6  N   UNL     1      -0.336   0.782   6.347  0.00  0.00    -0.160 N 
ATOM      7  C   UNL     1       0.734   1.272   7.231  0.00  0.00    +0.256 C 
ATOM      8  C   UNL     1       1.815   1.770   6.252  0.00  0.00    +0.123 C 
ATOM      9  C   UNL     1       1.221   1.509   4.886  0.00  0.00    +0.064 C 
ATOM     10  N   UNL     1       0.053   0.968   5.022  0.00  0.00    -0.180 NA
ENDROOT
BRANCH   1  14
ATOM     11  C   UNL     1      -6.821  -2.206   4.223  0.00  0.00    +0.120 A 
ATOM     12  C   UNL     1      -6.953  -2.158   5.604  0.00  0.00    +0.046 A 
ATOM     13  C   UNL     1      -5.917  -1.683   6.381  0.00  0.00    +0.013 A 
ATOM     14  C   UNL     1      -4.737  -1.251   5.778  0.00  0.00    +0.001 A 
ATOM     15  C   UNL     1      -4.610  -1.295   4.391  0.00  0.00    +0.013 A 
ATOM     16  C   UNL     1      -5.647  -1.776   3.620  0.00  0.00    +0.046 A 
BRANCH  11  18
ATOM     17  C   UNL     1      -7.641  -2.696   2.046  0.00  0.00    +0.277 C 
ATOM     18  O   UNL     1      -7.843  -2.675   3.460  0.00  0.00    -0.495 OA
ENDBRANCH  11  18
ENDBRANCH   1  14
BRANCH   7  19
ATOM     19  C   UNL     1       1.280   0.135   8.095  0.00  0.00    +0.438 C 
ATOM     20  F   UNL     1       1.768  -0.885   7.271  0.00  0.00    -0.166 F 
ATOM     21  F   UNL     1       2.316   0.618   8.902  0.00  0.00    -0.166 F 
ATOM     22  F   UNL     1       0.256  -0.370   8.904  0.00  0.00    -0.166 F 
ENDBRANCH   7  19
BRANCH   9  23
ATOM     23  C   UNL     1       1.848   1.804   3.651  0.00  0.00    +0.026 C 
ATOM     24  C   UNL     1       1.220   1.520   2.490  0.00  0.00    +0.013 C 
BRANCH  24  25
ATOM     25  C   UNL     1       1.871   1.826   1.207  0.00  0.00    +0.016 A 
ATOM     26  C   UNL     1       3.142   2.407   1.185  0.00  0.00    +0.011 A 
ATOM     27  C   UNL     1       3.744   2.697  -0.021  0.00  0.00    +0.001 A 
ATOM     28  C   UNL     1       3.097   2.410  -1.211  0.00  0.00    +0.004 A 
ATOM     29  C   UNL     1       1.842   1.830  -1.203  0.00  0.00    +0.046 A 
ATOM     30  C   UNL     1       1.222   1.532  -0.001  0.00  0.00    +0.124 A 
BRANCH  30  31
ATOM     31  O   UNL     1      -0.011   0.963   0.007  0.00  0.00    -0.506 OA
ATOM     32  H   UNL     1       0.002  -0.004   0.002  0.00  0.00    +0.292 HD
ENDBRANCH  30  31
ENDBRANCH  24  25
ENDBRANCH   9  23
BRANCH   7  33
ATOM     33  O   UNL     1       0.258   2.343   8.049  0.00  0.00    -0.363 OA
ATOM     34  H   UNL     1      -0.469   2.096   8.637  0.00  0.00    +0.212 HD
ENDBRANCH   7  33
TORSDOF 7
