REMARK  Name = ZINC15687303
REMARK  8 active torsions:
REMARK  status: ('A' for Active; 'I' for Inactive)
REMARK    1  A    between atoms: C_1  and  C_2
REMARK    2  A    between atoms: C_5  and  C_27
REMARK    3  A    between atoms: C_6  and  N_8
REMARK    4  A    between atoms: C_9  and  C_11
REMARK    5  A    between atoms: C_11  and  C_13
REMARK    6  A    between atoms: C_11  and  O_14
REMARK    7  A    between atoms: O_14  and  C_15
REMARK    8  A    between atoms: C_15  and  C_17
REMARK                            x       y       z     vdW  Elec       q    Type
REMARK                         _______ _______ _______ _____ _____    ______ ____
ROOT
ATOM      1  C   UNL     1      -2.076   7.240  -0.880  0.00  0.00    +0.259 C 
ATOM      2  C   UNL     1      -3.306   7.727  -0.112  0.00  0.00    +0.062 C 
ENDROOT
BRANCH   1   4
ATOM      3  N   UNL     1      -1.981   9.145  -2.455  0.00  0.00    -0.282 N 
ATOM      4  C   UNL     1      -2.095   7.815  -2.273  0.00  0.00    +0.258 C 
ATOM      5  O   UNL     1      -2.212   7.080  -3.231  0.00  0.00    -0.271 OA
ATOM      6  H   UNL     1      -1.968   9.740  -1.689  0.00  0.00    +0.155 HD
BRANCH   3  12
ATOM      7  C   UNL     1      -0.764   8.547  -7.181  0.00  0.00    +0.044 C 
ATOM      8  C   UNL     1      -1.296   9.401  -6.059  0.00  0.00    -0.049 A 
ATOM      9  C   UNL     1      -1.687  10.704  -6.308  0.00  0.00    +0.004 A 
ATOM     10  C   UNL     1      -2.175  11.490  -5.281  0.00  0.00    +0.005 A 
ATOM     11  C   UNL     1      -2.280  10.975  -4.004  0.00  0.00    -0.029 A 
ATOM     12  C   UNL     1      -1.883   9.669  -3.749  0.00  0.00    +0.037 A 
ATOM     13  C   UNL     1      -1.392   8.881  -4.783  0.00  0.00    +0.027 A 
ATOM     14  C   UNL     1      -2.819  11.830  -2.886  0.00  0.00    +0.045 C 
ENDBRANCH   3  12
ENDBRANCH   1   4
BRANCH   1  15
ATOM     15  O   UNL     1      -2.094   5.790  -0.955  0.00  0.00    -0.452 OA
BRANCH  15  16
ATOM     16  C   UNL     1      -1.485   5.122   0.038  0.00  0.00    +0.314 C 
ATOM     17  O   UNL     1      -0.955   5.729   0.939  0.00  0.00    -0.250 OA
BRANCH  16  18
ATOM     18  C   UNL     1      -1.462   3.615   0.029  0.00  0.00    +0.069 C 
ATOM     19  C   UNL     1      -0.756   3.123  -1.236  0.00  0.00    +0.021 C 
ATOM     20  C   UNL     1      -0.733   1.594  -1.246  0.00  0.00    -0.009 C 
ATOM     21  C   UNL     1       0.018   1.087  -0.012  0.00  0.00    +0.007 C 
ATOM     22  C   UNL     1      -0.689   1.579   1.252  0.00  0.00    -0.009 C 
ATOM     23  C   UNL     1      -0.712   3.109   1.262  0.00  0.00    +0.021 C 
ATOM     24  C   UNL     1      -2.124   1.047   1.274  0.00  0.00    +0.007 C 
ATOM     25  C   UNL     1      -2.874   1.554   0.041  0.00  0.00    -0.009 C 
ATOM     26  C   UNL     1      -2.167   1.062  -1.224  0.00  0.00    +0.007 C 
ATOM     27  C   UNL     1      -2.897   3.084   0.050  0.00  0.00    +0.021 C 
ENDBRANCH  16  18
ENDBRANCH  15  16
ENDBRANCH   1  15
TORSDOF 5
