REMARK  Name = ZINC15447506
REMARK  11 active torsions:
REMARK  status: ('A' for Active; 'I' for Inactive)
REMARK    1  A    between atoms: C_1  and  C_2
REMARK    2  A    between atoms: C_2  and  C_3
REMARK    3  A    between atoms: C_3  and  C_4
REMARK    4  A    between atoms: C_4  and  N_5
REMARK    5  A    between atoms: C_9  and  S_26
REMARK    6  A    between atoms: C_13  and  C_14
REMARK    7  A    between atoms: C_14  and  N_52
REMARK    8  A    between atoms: C_15  and  C_17
REMARK    9  A    between atoms: C_15  and  C_18
REMARK   10  A    between atoms: C_15  and  N_52
REMARK   11  A    between atoms: S_26  and  N_29
REMARK                            x       y       z     vdW  Elec       q    Type
REMARK                         _______ _______ _______ _____ _____    ______ ____
ROOT
ATOM      1  N   UNL     1      -5.709  -2.276   0.315  0.00  0.00    -0.329 N 
ATOM      2  C   UNL     1      -4.739  -1.349  -0.011  0.00  0.00    +0.069 A 
ATOM      3  C   UNL     1      -4.234  -0.858  -1.207  0.00  0.00    +0.030 A 
ATOM      4  C   UNL     1      -3.240   0.097  -1.188  0.00  0.00    +0.030 A 
ATOM      5  C   UNL     1      -2.733   0.560   0.018  0.00  0.00    +0.107 A 
ATOM      6  C   UNL     1      -3.217   0.087   1.205  0.00  0.00    +0.058 A 
ATOM      7  C   UNL     1      -4.229  -0.876   1.210  0.00  0.00    +0.091 A 
ATOM      8  N   UNL     1      -4.900  -1.525   2.196  0.00  0.00    -0.234 NA
ATOM      9  C   UNL     1      -5.765  -2.343   1.672  0.00  0.00    +0.094 A 
ENDROOT
BRANCH   5  10
ATOM     10  S   UNL     1      -1.456   1.774   0.019  0.00  0.00    +0.056 S 
ATOM     11  O   UNL     1      -1.536   2.446   1.268  0.00  0.00    -0.153 OA
ATOM     12  O   UNL     1      -1.548   2.460  -1.223  0.00  0.00    -0.153 OA
BRANCH  10  13
ATOM     13  N   UNL     1      -0.011   0.966   0.007  0.00  0.00    -0.204 NA
ATOM     14  H   UNL     1       0.002  -0.004   0.002  0.00  0.00    +0.144 HD
ATOM     15  H   UNL     1       0.822   1.462   0.002  0.00  0.00    +0.144 HD
ENDBRANCH  10  13
ENDBRANCH   5  10
BRANCH   1  16
ATOM     16  C   UNL     1      -6.527  -3.045  -0.627  0.00  0.00    +0.123 C 
BRANCH  16  17
ATOM     17  C   UNL     1      -7.806  -2.268  -0.944  0.00  0.00    +0.021 C 
BRANCH  17  19
ATOM     18  C   UNL     1      -9.939  -2.293  -2.244  0.00  0.00    +0.004 C 
ATOM     19  C   UNL     1      -8.660  -3.070  -1.927  0.00  0.00    -0.002 C 
ENDBRANCH  17  19
ENDBRANCH  16  17
ENDBRANCH   1  16
BRANCH   9  20
ATOM     20  C   UNL     1      -6.695  -3.234   2.455  0.00  0.00    -0.006 C 
BRANCH  20  21
ATOM     21  N   UNL     1      -7.953  -2.510   2.716  0.00  0.00    +0.388 N 
ATOM     22  H   UNL     1      -8.387  -2.253   1.822  0.00  0.00    -0.084 HD
ATOM     23  H   UNL     1      -7.749  -1.660   3.255  0.00  0.00    -0.084 HD
BRANCH  21  24
ATOM     24  C   UNL     1      -8.883  -3.361   3.482  0.00  0.00    -0.042 C 
ATOM     25  C   UNL     1      -8.575  -3.237   4.976  0.00  0.00    -0.009 C 
BRANCH  24  26
ATOM     26  C   UNL     1     -10.297  -2.907   3.222  0.00  0.00    -0.043 A 
ATOM     27  C   UNL     1     -10.535  -1.637   2.730  0.00  0.00    +0.005 A 
ATOM     28  C   UNL     1     -11.831  -1.221   2.490  0.00  0.00    +0.020 A 
ATOM     29  C   UNL     1     -12.891  -2.074   2.744  0.00  0.00    +0.042 A 
ATOM     30  C   UNL     1     -12.652  -3.345   3.236  0.00  0.00    +0.040 A 
ATOM     31  C   UNL     1     -11.355  -3.763   3.470  0.00  0.00    +0.044 A 
ATOM     32 CL   UNL     1     -11.054  -5.360   4.081  0.00  0.00    -0.083 Cl
ATOM     33 CL   UNL     1     -14.518  -1.551   2.443  0.00  0.00    -0.083 Cl
ENDBRANCH  24  26
ENDBRANCH  21  24
ENDBRANCH  20  21
ENDBRANCH   9  20
TORSDOF 9
