REMARK  Name = ZINC43286105
REMARK  8 active torsions:
REMARK  status: ('A' for Active; 'I' for Inactive)
REMARK    1  A    between atoms: C_1  and  C_2
REMARK    2  A    between atoms: C_2  and  C_3
REMARK    3  A    between atoms: N_9  and  C_10
REMARK    4  A    between atoms: C_10  and  C_12
REMARK    5  A    between atoms: C_10  and  C_18
REMARK    6  A    between atoms: C_18  and  C_20
REMARK    7  A    between atoms: C_18  and  N_22
REMARK    8  A    between atoms: C_20  and  C_21
REMARK                            x       y       z     vdW  Elec       q    Type
REMARK                         _______ _______ _______ _____ _____    ______ ____
ROOT
ATOM      1  C   UNL     1       2.185   1.456  -0.980  0.00  0.00    +0.080 C 
ENDROOT
BRANCH   1   7
ATOM      2  C   UNL     1       1.755  -0.034  -2.841  0.00  0.00    +0.083 C 
ATOM      3  C   UNL     1       1.248  -1.429  -3.213  0.00  0.00    +0.178 C 
ATOM      4  O   UNL     1       2.065  -2.414  -2.575  0.00  0.00    -0.377 OA
ATOM      5  C   UNL     1       2.089  -2.306  -1.149  0.00  0.00    +0.175 C 
ATOM      6  C   UNL     1       2.605  -0.919  -0.756  0.00  0.00    +0.113 C 
ATOM      7  N   UNL     1       1.757   0.108  -1.377  0.00  0.00    -0.289 NA
BRANCH   2   9
ATOM      8  C   UNL     1       0.883   0.917  -4.981  0.00  0.00    +0.005 C 
ATOM      9  C   UNL     1       0.836   1.025  -3.455  0.00  0.00    +0.018 C 
ENDBRANCH   2   9
ENDBRANCH   1   7
BRANCH   1  10
ATOM     10  C   UNL     1       1.525   1.830   0.322  0.00  0.00    +0.006 A 
ATOM     11  C   UNL     1       1.058   3.036   0.727  0.00  0.00    +0.028 A 
ATOM     12  C   UNL     1       0.482   3.146   1.979  0.00  0.00    +0.025 A 
ATOM     13  C   UNL     1       0.401   2.044   2.764  0.00  0.00    +0.060 A 
ATOM     14  S   UNL     1       1.146   0.796   1.727  0.00  0.00    -0.099 S 
ATOM     15 BR   UNL     1      -0.182   4.809   2.588  0.00  0.00    -0.050 Br
ENDBRANCH   1  10
BRANCH   1  16
ATOM     16  C   UNL     1       3.705   1.478  -0.805  0.00  0.00    -0.053 C 
BRANCH  16  17
ATOM     17  N   UNL     1       4.120   2.788  -0.286  0.00  0.00    +0.381 N 
ATOM     18  H   UNL     1       3.676   2.953   0.605  0.00  0.00    -0.090 HD
ATOM     19  H   UNL     1       5.122   2.802  -0.171  0.00  0.00    -0.090 HD
ATOM     20  H   UNL     1       3.846   3.510  -0.936  0.00  0.00    -0.090 HD
ENDBRANCH  16  17
BRANCH  16  21
ATOM     21  C   UNL     1       4.378   1.229  -2.157  0.00  0.00    -0.018 C 
ATOM     22  C   UNL     1       5.897   1.306  -1.992  0.00  0.00    +0.002 C 
ENDBRANCH  16  21
ENDBRANCH   1  16
TORSDOF 6
