REMARK  Name = ZINC05646171
REMARK  5 active torsions:
REMARK  status: ('A' for Active; 'I' for Inactive)
REMARK    1  A    between atoms: C_1  and  C_2
REMARK    2  A    between atoms: C_2  and  C_3
REMARK    3  A    between atoms: C_10  and  N_22
REMARK    4  A    between atoms: C_11  and  C_20
REMARK    5  A    between atoms: C_12  and  C_14
REMARK                            x       y       z     vdW  Elec       q    Type
REMARK                         _______ _______ _______ _____ _____    ______ ____
ROOT
ATOM      1  C   UNL     1       2.127   0.679  -0.013  0.00  0.00    +0.044 A 
ATOM      2  C   UNL     1       1.321   1.752  -0.001  0.00  0.00    +0.050 A 
ATOM      3  C   UNL     1      -0.016   1.297   0.009  0.00  0.00    +0.245 A 
ATOM      4  N   UNL     1       0.002  -0.004   0.002  0.00  0.00    -0.135 NA
ATOM      5  N   UNL     1       1.342  -0.423  -0.012  0.00  0.00    -0.278 N 
ATOM      6  H   UNL     1       1.661  -1.371  -0.019  0.00  0.00    +0.189 HD
ATOM      7  O   UNL     1      -1.070   2.156   0.029  0.00  0.00    -0.421 OA
ATOM      8  C   UNL     1      -0.812   3.450   0.302  0.00  0.00    +0.201 C 
ATOM      9  C   UNL     1       0.420   4.000   0.310  0.00  0.00    +0.099 C 
ATOM     10  C   UNL     1       1.672   3.218  -0.000  0.00  0.00    +0.108 C 
ENDROOT
BRANCH  10  11
ATOM     11  C   UNL     1       2.198   3.616  -1.355  0.00  0.00    +0.004 A 
ATOM     12  C   UNL     1       3.406   4.138  -1.682  0.00  0.00    +0.027 A 
ATOM     13  C   UNL     1       3.674   4.428  -3.007  0.00  0.00    +0.025 A 
ATOM     14  C   UNL     1       2.718   4.189  -3.939  0.00  0.00    +0.060 A 
ATOM     15  S   UNL     1       1.390   3.530  -2.945  0.00  0.00    -0.100 S 
ATOM     16 BR   UNL     1       5.347   5.151  -3.512  0.00  0.00    -0.050 Br
ENDBRANCH  10  11
BRANCH   8  17
ATOM     17  N   UNL     1      -1.877   4.265   0.596  0.00  0.00    -0.328 N 
ATOM     18  H   UNL     1      -1.729   5.202   0.800  0.00  0.00    +0.145 HD
ATOM     19  H   UNL     1      -2.777   3.904   0.600  0.00  0.00    +0.145 HD
ENDBRANCH   8  17
BRANCH   1  21
ATOM     20  C   UNL     1       4.154   0.824   1.407  0.00  0.00    +0.010 C 
ATOM     21  C   UNL     1       3.634   0.699  -0.026  0.00  0.00    +0.052 C 
ENDBRANCH   1  21
BRANCH   9  22
ATOM     22  C   UNL     1       0.545   5.391   0.627  0.00  0.00    +0.101 C 
ATOM     23  N   UNL     1       0.644   6.494   0.879  0.00  0.00    -0.191 NA
ENDBRANCH   9  22
TORSDOF 4
