REMARK  Name = ZINC66717381
REMARK  8 active torsions:
REMARK  status: ('A' for Active; 'I' for Inactive)
REMARK    1  A    between atoms: C_1  and  C_2
REMARK    2  A    between atoms: C_5  and  C_9
REMARK    3  A    between atoms: C_6  and  C_8
REMARK    4  A    between atoms: C_9  and  C_10
REMARK    5  A    between atoms: C_10  and  C_12
REMARK    6  A    between atoms: C_10  and  N_13
REMARK    7  A    between atoms: N_16  and  N_17
REMARK    8  A    between atoms: C_18  and  C_20
REMARK                            x       y       z     vdW  Elec       q    Type
REMARK                         _______ _______ _______ _____ _____    ______ ____
ROOT
ATOM      1  N   UNL     1      -2.608  -4.328   1.751  0.00  0.00    -0.295 N 
ATOM      2  C   UNL     1      -3.910  -3.979   1.726  0.00  0.00    +0.316 C 
ATOM      3  O   UNL     1      -4.575  -4.187   0.729  0.00  0.00    -0.251 OA
ATOM      4  N   UNL     1      -4.474  -3.400   2.804  0.00  0.00    -0.218 N 
ATOM      5  H   UNL     1      -2.078  -4.162   2.546  0.00  0.00    +0.151 HD
ATOM      6  H   UNL     1      -5.411  -3.148   2.785  0.00  0.00    +0.174 HD
ENDROOT
BRANCH   4   7
ATOM      7  N   UNL     1      -3.707  -3.160   3.952  0.00  0.00    -0.228 N 
ATOM      8  C   UNL     1      -4.271  -2.580   5.030  0.00  0.00    +0.281 C 
ATOM      9  O   UNL     1      -5.445  -2.266   5.006  0.00  0.00    -0.267 OA
ATOM     10  H   UNL     1      -2.770  -3.411   3.970  0.00  0.00    +0.173 HD
BRANCH   8  11
ATOM     11  C   UNL     1      -3.463  -2.328   6.239  0.00  0.00    +0.155 A 
ATOM     12  C   UNL     1      -4.072  -1.701   7.424  0.00  0.00    +0.020 A 
ATOM     13  C   UNL     1      -5.408  -1.320   7.471  0.00  0.00    +0.011 A 
ATOM     14  C   UNL     1      -5.905  -0.737   8.618  0.00  0.00    +0.001 A 
ATOM     15  C   UNL     1      -5.088  -0.529   9.721  0.00  0.00    +0.001 A 
ATOM     16  C   UNL     1      -3.760  -0.899   9.695  0.00  0.00    +0.014 A 
ATOM     17  C   UNL     1      -3.240  -1.488   8.547  0.00  0.00    +0.050 A 
ATOM     18  C   UNL     1      -1.837  -1.913   8.434  0.00  0.00    +0.272 A 
ATOM     19  O   UNL     1      -1.063  -1.761   9.361  0.00  0.00    -0.266 OA
ATOM     20  N   UNL     1      -1.428  -2.474   7.278  0.00  0.00    -0.242 N 
ATOM     21  H   UNL     1      -0.501  -2.753   7.206  0.00  0.00    +0.192 HD
ATOM     22  N   UNL     1      -2.196  -2.664   6.273  0.00  0.00    -0.166 NA
ENDBRANCH   8  11
ENDBRANCH   4   7
BRANCH   1  23
ATOM     23  C   UNL     1      -1.995  -4.958   0.579  0.00  0.00    +0.076 C 
ATOM     24  C   UNL     1      -2.225  -6.470   0.634  0.00  0.00    +0.028 C 
BRANCH  23  25
ATOM     25  C   UNL     1      -0.493  -4.670   0.573  0.00  0.00    +0.057 C 
BRANCH  25  30
ATOM     26  C   UNL     1       0.382   0.999  -0.130  0.00  0.00    +0.044 C 
ATOM     27  C   UNL     1       0.153  -0.479   0.054  0.00  0.00    -0.050 A 
ATOM     28  C   UNL     1       0.239  -1.041   1.314  0.00  0.00    +0.003 A 
ATOM     29  C   UNL     1       0.030  -2.397   1.482  0.00  0.00    +0.004 A 
ATOM     30  C   UNL     1      -0.266  -3.191   0.390  0.00  0.00    -0.043 A 
ATOM     31  C   UNL     1      -0.352  -2.629  -0.870  0.00  0.00    -0.047 A 
ATOM     32  C   UNL     1      -0.147  -1.272  -1.038  0.00  0.00    +0.007 A 
ATOM     33  C   UNL     1      -0.673  -3.495  -2.061  0.00  0.00    +0.044 C 
ENDBRANCH  25  30
ENDBRANCH  23  25
ENDBRANCH   1  23
TORSDOF 5
