REMARK  Name = ZINC02543785
REMARK  8 active torsions:
REMARK  status: ('A' for Active; 'I' for Inactive)
REMARK    1  A    between atoms: C_5  and  C_7
REMARK    2  A    between atoms: C_7  and  O_9
REMARK    3  A    between atoms: O_9  and  C_10
REMARK    4  A    between atoms: C_13  and  C_16
REMARK    5  A    between atoms: N_17  and  N_18
REMARK    6  A    between atoms: C_19  and  C_21
REMARK    7  A    between atoms: C_24  and  O_28
REMARK    8  A    between atoms: C_26  and  O_27
REMARK                            x       y       z     vdW  Elec       q    Type
REMARK                         _______ _______ _______ _____ _____    ______ ____
ROOT
ATOM      1  C   UNL     1      -0.031  -0.004   0.035  0.00  0.00    +0.132 A 
ATOM      2  C   UNL     1       1.161  -0.711  -0.066  0.00  0.00    +0.047 A 
ATOM      3  C   UNL     1       1.152  -2.088  -0.036  0.00  0.00    +0.013 A 
ATOM      4  C   UNL     1      -0.060  -2.775   0.086  0.00  0.00    -0.005 A 
ATOM      5  C   UNL     1      -1.256  -2.059   0.182  0.00  0.00    +0.013 A 
ATOM      6  C   UNL     1      -1.237  -0.682   0.156  0.00  0.00    +0.047 A 
ENDROOT
BRANCH   4   7
ATOM      7  C   UNL     1      -0.075  -4.248   0.113  0.00  0.00    +0.138 C 
ATOM      8  N   UNL     1       1.038  -4.911   0.024  0.00  0.00    -0.187 NA
BRANCH   8   9
ATOM      9  N   UNL     1       1.023  -6.311   0.050  0.00  0.00    -0.203 N 
ATOM     10  C   UNL     1       2.178  -6.999  -0.043  0.00  0.00    +0.267 C 
ATOM     11  O   UNL     1       3.234  -6.404  -0.150  0.00  0.00    -0.268 OA
ATOM     12  H   UNL     1       0.181  -6.786   0.135  0.00  0.00    +0.178 HD
BRANCH  10  13
ATOM     13  C   UNL     1       2.163  -8.472  -0.016  0.00  0.00    +0.080 A 
ATOM     14  C   UNL     1       0.951  -9.159   0.107  0.00  0.00    +0.020 A 
ATOM     15  C   UNL     1       0.941 -10.534   0.131  0.00  0.00    +0.046 A 
ATOM     16  C   UNL     1       2.133 -11.246   0.035  0.00  0.00    +0.120 A 
ATOM     17  C   UNL     1       3.340 -10.575  -0.088  0.00  0.00    +0.091 A 
ATOM     18  C   UNL     1       3.363  -9.191  -0.118  0.00  0.00    +0.132 A 
BRANCH  18  19
ATOM     19  O   UNL     1       4.543  -8.532  -0.242  0.00  0.00    -0.506 OA
ATOM     20  H   UNL     1       4.969  -8.326   0.601  0.00  0.00    +0.292 HD
ENDBRANCH  18  19
BRANCH  16  21
ATOM     21  O   UNL     1       2.114 -12.603   0.059  0.00  0.00    -0.507 OA
ATOM     22  H   UNL     1       2.028 -13.011  -0.813  0.00  0.00    +0.292 HD
ENDBRANCH  16  21
ENDBRANCH  10  13
ENDBRANCH   8   9
ENDBRANCH   4   7
BRANCH   1  23
ATOM     23  O   UNL     1      -0.016   1.354   0.009  0.00  0.00    -0.422 OA
BRANCH  23  24
ATOM     24  C   UNL     1      -0.336   1.991   1.153  0.00  0.00    +0.346 C 
ATOM     25  O   UNL     1      -0.518   1.355   2.172  0.00  0.00    -0.244 OA
BRANCH  24  30
ATOM     26  C   UNL     1      -0.381   5.570   0.019  0.00  0.00    +0.001 A 
ATOM     27  C   UNL     1      -0.710   6.221   1.196  0.00  0.00    +0.001 A 
ATOM     28  C   UNL     1      -0.918   5.501   2.358  0.00  0.00    +0.016 A 
ATOM     29  C   UNL     1      -0.798   4.125   2.352  0.00  0.00    +0.032 A 
ATOM     30  C   UNL     1      -0.467   3.462   1.168  0.00  0.00    +0.073 A 
ATOM     31  C   UNL     1      -0.253   4.197  -0.000  0.00  0.00    +0.016 A 
ATOM     32 BR   UNL     1      -1.082   3.142   3.942  0.00  0.00    -0.049 Br
ENDBRANCH  24  30
ENDBRANCH  23  24
ENDBRANCH   1  23
TORSDOF 8
