REMARK  Name = ZINC51749102
REMARK  7 active torsions:
REMARK  status: ('A' for Active; 'I' for Inactive)
REMARK    1  A    between atoms: C_1  and  C_2
REMARK    2  A    between atoms: C_7  and  C_10
REMARK    3  A    between atoms: N_13  and  CA_14
REMARK    4  A    between atoms: CA_14  and  CB_16
REMARK    5  A    between atoms: CA_14  and  C_20
REMARK    6  A    between atoms: CB_16  and  CG2_18
REMARK    7  A    between atoms: CB_16  and  OG1_19
REMARK                            x       y       z     vdW  Elec       q    Type
REMARK                         _______ _______ _______ _____ _____    ______ ____
ROOT
ATOM      1  C   UNK A   0      -0.021   1.528   0.015  0.00  0.00    +0.007 C 
ATOM      2  C   UNK A   0       0.001  -0.002   0.005  0.00  0.00    -0.011 C 
ATOM      3  C   UNK A   0      -1.435  -0.532   0.015  0.00  0.00    +0.022 C 
ATOM      4  C   UNK A   0      -1.410  -2.063  -0.030  0.00  0.00    +0.110 C 
ATOM      5  N   UNK A   0      -0.578  -2.555   1.076  0.00  0.00    -0.283 N 
ATOM      6  C   UNK A   0       0.791  -2.040   1.213  0.00  0.00    +0.075 C 
ATOM      7  C   UNK A   0       0.742  -0.509   1.244  0.00  0.00    +0.025 C 
ATOM      8  C   UNK A   0       1.636  -2.505   0.025  0.00  0.00    +0.028 C 
ATOM      9  C   UNK A   0      -1.061  -3.461   1.949  0.00  0.00    +0.303 C 
ATOM     10  O   UNK A   0      -0.335  -3.929   2.805  0.00  0.00    -0.253 OA
ATOM     11  N   THR A   1      -2.350  -3.849   1.874  0.00  0.00    -0.284 N 
ATOM     12  H   THR A   1      -2.910  -3.532   1.147  0.00  0.00    +0.151 HD
ENDROOT
BRANCH  11  13
ATOM     13  CA  THR A   1      -2.905  -4.748   2.888  0.00  0.00    +0.216 C 
BRANCH  13  14
ATOM     14  C   THR A   1      -2.604  -6.176   2.513  0.00  0.00    +0.378 C 
ATOM     15  O   THR A   1      -1.983  -6.420   1.492  0.00  0.00    -0.244 OA
ATOM     16  OXT THR A   1      -2.981  -7.087   3.230  0.00  0.00    -0.244 OA
ENDBRANCH  13  14
BRANCH  13  17
ATOM     17  CB  THR A   1      -4.420  -4.550   2.970  0.00  0.00    +0.143 C 
ATOM     18  CG2 THR A   1      -4.729  -3.074   3.229  0.00  0.00    +0.040 C 
BRANCH  17  19
ATOM     19  OG1 THR A   1      -5.021  -4.954   1.738  0.00  0.00    -0.390 OA
ATOM     20  HG1 THR A   1      -4.710  -4.459   0.968  0.00  0.00    +0.210 HD
ENDBRANCH  17  19
ENDBRANCH  13  17
ENDBRANCH  11  13
TORSDOF 4
