REMARK  Name = ZINC13064595
REMARK  10 active torsions:
REMARK  status: ('A' for Active; 'I' for Inactive)
REMARK    1  A    between atoms: C_1  and  C_2
REMARK    2  A    between atoms: C_2  and  C_3
REMARK    3  A    between atoms: C_3  and  C_5
REMARK    4  A    between atoms: C_3  and  N_69
REMARK    5  A    between atoms: N_9  and  C_10
REMARK    6  A    between atoms: C_15  and  C_16
REMARK    7  A    between atoms: C_15  and  N_69
REMARK    8  A    between atoms: C_20  and  C_29
REMARK    9  A    between atoms: C_21  and  C_28
REMARK   10  A    between atoms: C_30  and  N_69
REMARK                            x       y       z     vdW  Elec       q    Type
REMARK                         _______ _______ _______ _____ _____    ______ ____
ROOT
ATOM      1  N   UNL     1      -5.550   3.785  -1.140  0.00  0.00    +0.391 N 
ATOM      2  H   UNL     1      -5.614   2.772  -1.298  0.00  0.00    -0.080 HD
ENDROOT
BRANCH   1   3
ATOM      3  C   UNL     1      -4.475   4.337  -1.990  0.00  0.00    -0.067 C 
ATOM      4  C   UNL     1      -4.698   3.893  -3.451  0.00  0.00    -0.015 C 
ATOM      5  C   UNL     1      -3.270   3.615  -3.985  0.00  0.00    -0.002 C 
ATOM      6  C   UNL     1      -2.567   2.971  -2.764  0.00  0.00    -0.002 C 
ATOM      7  C   UNL     1      -3.120   3.751  -1.554  0.00  0.00    -0.015 C 
ENDBRANCH   1   3
BRANCH   1   8
ATOM      8  C   UNL     1      -6.843   4.408  -1.493  0.00  0.00    +0.003 C 
BRANCH   8   9
ATOM      9  C   UNL     1      -6.659   5.875  -1.782  0.00  0.00    +0.138 A 
ATOM     10  N   UNL     1      -5.824   6.404  -2.643  0.00  0.00    -0.115 NA
ATOM     11  N   UNL     1      -5.966   7.684  -2.601  0.00  0.00    -0.023 NA
ATOM     12  N   UNL     1      -6.865   7.986  -1.730  0.00  0.00    -0.044 NA
ATOM     13  N   UNL     1      -7.317   6.897  -1.204  0.00  0.00    -0.228 N 
BRANCH  13  14
ATOM     14  C   UNL     1      -8.350   6.794  -0.171  0.00  0.00    +0.111 C 
ATOM     15  C   UNL     1      -9.653   7.461  -0.658  0.00  0.00    +0.027 C 
ATOM     16  C   UNL     1     -10.231   8.136   0.611  0.00  0.00    +0.002 C 
ATOM     17  C   UNL     1      -8.962   8.659   1.329  0.00  0.00    +0.002 C 
ATOM     18  C   UNL     1      -7.911   7.555   1.092  0.00  0.00    +0.027 C 
ENDBRANCH  13  14
ENDBRANCH   8   9
BRANCH   8  20
ATOM     19  C   UNL     1      -7.629   2.227  -2.426  0.00  0.00    +0.002 C 
ATOM     20  C   UNL     1      -7.401   3.709  -2.734  0.00  0.00    -0.011 C 
ENDBRANCH   8  20
ENDBRANCH   1   8
BRANCH   1  21
ATOM     21  C   UNL     1      -5.244   4.030   0.285  0.00  0.00    -0.036 C 
BRANCH  21  22
ATOM     22  C   UNL     1      -5.976   3.009   1.118  0.00  0.00    +0.001 A 
ATOM     23  C   UNL     1      -5.368   1.841   1.443  0.00  0.00    +0.017 A 
ATOM     24  C   UNL     1      -6.107   0.871   2.253  0.00  0.00    -0.001 A 
ATOM     25  C   UNL     1      -5.533  -0.351   2.620  0.00  0.00    +0.013 A 
ATOM     26  C   UNL     1      -6.249  -1.236   3.376  0.00  0.00    -0.047 A 
ATOM     27  C   UNL     1      -7.540  -0.932   3.785  0.00  0.00    -0.046 A 
ATOM     28  C   UNL     1      -8.126   0.265   3.435  0.00  0.00    +0.030 A 
ATOM     29  C   UNL     1      -7.418   1.179   2.660  0.00  0.00    +0.049 A 
ATOM     30  N   UNL     1      -7.977   2.387   2.301  0.00  0.00    -0.322 N 
ATOM     31  H   UNL     1      -8.880   2.600   2.586  0.00  0.00    +0.169 HD
ATOM     32  C   UNL     1      -7.291   3.272   1.556  0.00  0.00    +0.251 A 
ATOM     33  O   UNL     1      -7.819   4.328   1.252  0.00  0.00    -0.268 OA
ATOM     34  C   UNL     1      -8.311  -1.923   4.619  0.00  0.00    +0.044 C 
ATOM     35  C   UNL     1      -5.630  -2.552   3.771  0.00  0.00    +0.044 C 
ENDBRANCH  21  22
ENDBRANCH   1  21
TORSDOF 7
