REMARK  Name = ZINC40357194
REMARK  4 active torsions:
REMARK  status: ('A' for Active; 'I' for Inactive)
REMARK    1  A    between atoms: C_4  and  C_8
REMARK    2  A    between atoms: N_10  and  C_11
REMARK    3  A    between atoms: C_11  and  C_18
REMARK    4  A    between atoms: C_18  and  N_20
REMARK                            x       y       z     vdW  Elec       q    Type
REMARK                         _______ _______ _______ _____ _____    ______ ____
ROOT
ATOM      1  C   UNL     1       2.873  -1.978  -0.956  0.00  0.00    +0.246 C 
ATOM      2  O   UNL     1       3.058  -2.692  -1.922  0.00  0.00    -0.270 OA
ATOM      3  N   UNL     1       3.790  -1.931   0.032  0.00  0.00    -0.300 N 
ATOM      4  H   UNL     1       3.680  -1.306   0.766  0.00  0.00    +0.150 HD
ENDROOT
BRANCH   1   8
ATOM      5  C   UNL     1      -0.662   0.364  -0.690  0.00  0.00    +0.039 A 
ATOM      6  C   UNL     1      -0.454  -0.446  -1.792  0.00  0.00    +0.019 A 
ATOM      7  C   UNL     1       0.692  -1.210  -1.884  0.00  0.00    +0.030 A 
ATOM      8  C   UNL     1       1.644  -1.163  -0.863  0.00  0.00    +0.053 A 
ATOM      9  C   UNL     1       1.429  -0.343   0.246  0.00  0.00    +0.052 A 
ATOM     10  C   UNL     1       0.278   0.416   0.327  0.00  0.00    +0.124 A 
ATOM     11  F   UNL     1       0.067   1.210   1.399  0.00  0.00    -0.205 F 
ATOM     12 BR   UNL     1       0.974  -2.318  -3.391  0.00  0.00    -0.050 Br
ENDBRANCH   1   8
BRANCH   3  13
ATOM     13  C   UNL     1       4.951  -2.823  -0.004  0.00  0.00    +0.079 C 
ATOM     14  C   UNL     1       5.795  -2.595   1.267  0.00  0.00    +0.032 C 
ATOM     15  C   UNL     1       4.863  -2.430   2.437  0.00  0.00    +0.002 C 
ATOM     16  C   UNL     1       4.616  -3.754   3.184  0.00  0.00    +0.000 C 
ATOM     17  C   UNL     1       4.423  -4.951   2.233  0.00  0.00    +0.000 C 
ATOM     18  C   UNL     1       3.566  -4.609   1.044  0.00  0.00    +0.002 C 
ATOM     19  C   UNL     1       4.487  -4.197  -0.122  0.00  0.00    +0.032 C 
BRANCH  13  20
ATOM     20  C   UNL     1       5.789  -2.485  -1.210  0.00  0.00    +0.070 C 
ATOM     21  S   UNL     1       6.176  -3.627  -2.260  0.00  0.00    -0.038 S 
BRANCH  20  22
ATOM     22  N   UNL     1       6.211  -1.220  -1.405  0.00  0.00    -0.354 N 
ATOM     23  H   UNL     1       5.917  -0.513  -0.809  0.00  0.00    +0.143 HD
ATOM     24  H   UNL     1       6.809  -1.016  -2.140  0.00  0.00    +0.143 HD
ENDBRANCH  20  22
ENDBRANCH  13  20
ENDBRANCH   3  13
TORSDOF 4
