REMARK  Name = ZINC32511207
REMARK  7 active torsions:
REMARK  status: ('A' for Active; 'I' for Inactive)
REMARK    1  A    between atoms: C_4  and  O_28
REMARK    2  A    between atoms: C_5  and  N_7
REMARK    3  A    between atoms: C_8  and  C_10
REMARK    4  A    between atoms: C_10  and  N_11
REMARK    5  A    between atoms: N_14  and  S_17
REMARK    6  A    between atoms: S_17  and  C_20
REMARK    7  A    between atoms: O_28  and  C_29
REMARK                            x       y       z     vdW  Elec       q    Type
REMARK                         _______ _______ _______ _____ _____    ______ ____
ROOT
ATOM      1  N   UNL     1      -5.985  -0.959  -0.259  0.00  0.00    +0.387 N 
ATOM      2  C   UNL     1      -5.911  -1.722  -1.512  0.00  0.00    -0.061 C 
ATOM      3  C   UNL     1      -6.960  -2.838  -1.488  0.00  0.00    +0.091 C 
ATOM      4  N   UNL     1      -8.273  -2.240  -1.201  0.00  0.00    -0.180 NA
ATOM      5  C   UNL     1      -8.392  -1.350  -0.036  0.00  0.00    +0.091 C 
ATOM      6  C   UNL     1      -7.286  -0.292  -0.116  0.00  0.00    -0.061 C 
ATOM      7  H   UNL     1      -5.881  -1.671   0.574  0.00  0.00    -0.081 HD
ENDROOT
BRANCH   4   8
ATOM      8  S   UNL     1      -9.582  -2.559  -2.164  0.00  0.00    +0.064 S 
ATOM      9  O   UNL     1      -9.324  -3.804  -2.800  0.00  0.00    -0.153 OA
ATOM     10  O   UNL     1     -10.736  -2.335  -1.367  0.00  0.00    -0.153 OA
BRANCH   8  11
ATOM     11  C   UNL     1      -9.603  -1.339  -3.436  0.00  0.00    +0.142 A 
ATOM     12  C   UNL     1     -10.295  -0.156  -3.248  0.00  0.00    +0.069 A 
ATOM     13  C   UNL     1     -10.307   0.803  -4.245  0.00  0.00    +0.022 A 
ATOM     14  C   UNL     1      -9.636   0.576  -5.432  0.00  0.00    +0.003 A 
ATOM     15  C   UNL     1      -8.949  -0.608  -5.622  0.00  0.00    +0.022 A 
ATOM     16  C   UNL     1      -8.932  -1.566  -4.624  0.00  0.00    +0.069 A 
ATOM     17 CL   UNL     1      -8.069  -3.054  -4.863  0.00  0.00    -0.081 Cl
ATOM     18 CL   UNL     1     -11.143   0.127  -1.760  0.00  0.00    -0.081 Cl
ENDBRANCH   8  11
ENDBRANCH   4   8
BRANCH   1  19
ATOM     19  C   UNL     1      -4.884   0.010  -0.167  0.00  0.00    +0.019 C 
BRANCH  19  21
ATOM     20  N   UNL     1      -2.418  -0.038   0.025  0.00  0.00    -0.284 N 
ATOM     21  C   UNL     1      -3.573  -0.727  -0.069  0.00  0.00    +0.201 C 
ATOM     22  O   UNL     1      -3.557  -1.940  -0.076  0.00  0.00    -0.278 OA
ATOM     23  H   UNL     1      -2.437   1.059   0.105  0.00  0.00    +0.155 HD
BRANCH  20  28
ATOM     24  C   UNL     1       0.118  -2.638   0.612  0.00  0.00    +0.002 A 
ATOM     25  C   UNL     1       1.226  -2.068   0.013  0.00  0.00    +0.004 A 
ATOM     26  C   UNL     1       1.129  -0.826  -0.588  0.00  0.00    +0.048 A 
ATOM     27  C   UNL     1      -0.077  -0.145  -0.582  0.00  0.00    +0.148 A 
ATOM     28  C   UNL     1      -1.194  -0.720   0.021  0.00  0.00    +0.076 A 
ATOM     29  C   UNL     1      -1.091  -1.968   0.618  0.00  0.00    +0.027 A 
BRANCH  27  30
ATOM     30  O   UNL     1      -0.173   1.077  -1.169  0.00  0.00    -0.432 OA
BRANCH  30  31
ATOM     31  C   UNL     1       1.013   1.604  -1.768  0.00  0.00    +0.541 C 
ATOM     32  F   UNL     1       2.010   1.731  -0.794  0.00  0.00    -0.166 F 
ATOM     33  F   UNL     1       1.451   0.737  -2.774  0.00  0.00    -0.166 F 
ENDBRANCH  30  31
ENDBRANCH  27  30
ENDBRANCH  20  28
ENDBRANCH  19  21
ENDBRANCH   1  19
TORSDOF 7
