REMARK  Name = ZINC09645220
REMARK  9 active torsions:
REMARK  status: ('A' for Active; 'I' for Inactive)
REMARK    1  A    between atoms: C_1  and  C_2
REMARK    2  A    between atoms: C_4  and  C_17
REMARK    3  A    between atoms: C_5  and  C_16
REMARK    4  A    between atoms: N_6  and  N_7
REMARK    5  A    between atoms: C_8  and  C_10
REMARK    6  A    between atoms: C_17  and  C_19
REMARK    7  A    between atoms: C_19  and  O_20
REMARK    8  A    between atoms: O_20  and  C_21
REMARK    9  A    between atoms: C_21  and  C_23
REMARK                            x       y       z     vdW  Elec       q    Type
REMARK                         _______ _______ _______ _____ _____    ______ ____
ROOT
ATOM      1  C   UNL     1      -9.647  -0.372  -1.623  0.00  0.00    +0.065 C 
ATOM      2  C   UNL     1      -9.002   0.608  -0.678  0.00  0.00    +0.037 A 
ATOM      3  C   UNL     1      -7.686   0.688  -0.418  0.00  0.00    +0.036 A 
ATOM      4  C   UNL     1      -7.522   1.775   0.556  0.00  0.00    +0.043 A 
ATOM      5  C   UNL     1      -8.793   2.268   0.790  0.00  0.00    +0.047 A 
ATOM      6  N   UNL     1      -9.660   1.560   0.046  0.00  0.00    -0.267 N 
ATOM      7  C   UNL     1      -9.144   3.403   1.717  0.00  0.00    +0.066 C 
ENDROOT
BRANCH   6   8
ATOM      8  N   UNL     1     -11.045   1.769   0.017  0.00  0.00    -0.219 N 
ATOM      9  C   UNL     1     -11.540   2.954  -0.393  0.00  0.00    +0.262 C 
ATOM     10  O   UNL     1     -10.784   3.868  -0.660  0.00  0.00    -0.268 OA
ATOM     11  H   UNL     1     -11.649   1.061   0.293  0.00  0.00    +0.176 HD
BRANCH   9  12
ATOM     12  C   UNL     1     -13.001   3.142  -0.517  0.00  0.00    +0.038 A 
ATOM     13  C   UNL     1     -13.871   2.093  -0.216  0.00  0.00    +0.013 A 
ATOM     14  C   UNL     1     -15.233   2.277  -0.329  0.00  0.00    +0.001 A 
ATOM     15  C   UNL     1     -15.737   3.495  -0.751  0.00  0.00    +0.000 A 
ATOM     16  C   UNL     1     -14.880   4.537  -1.056  0.00  0.00    +0.001 A 
ATOM     17  C   UNL     1     -13.516   4.368  -0.942  0.00  0.00    +0.013 A 
ENDBRANCH   9  12
ENDBRANCH   6   8
BRANCH   4  18
ATOM     18  C   UNL     1      -6.270   2.245   1.152  0.00  0.00    +0.202 C 
ATOM     19  O   UNL     1      -6.282   3.164   1.945  0.00  0.00    -0.288 OA
BRANCH  18  20
ATOM     20  C   UNL     1      -4.966   1.587   0.781  0.00  0.00    +0.312 C 
BRANCH  20  21
ATOM     21  O   UNL     1      -3.879   2.228   1.500  0.00  0.00    -0.452 OA
BRANCH  21  22
ATOM     22  C   UNL     1      -2.637   1.755   1.280  0.00  0.00    +0.360 C 
ATOM     23  O   UNL     1      -2.467   0.833   0.508  0.00  0.00    -0.243 OA
BRANCH  22  24
ATOM     24  C   UNL     1      -1.481   2.360   1.977  0.00  0.00    +0.167 A 
ATOM     25  C   UNL     1      -0.197   1.866   1.745  0.00  0.00    +0.073 A 
ATOM     26  C   UNL     1       0.878   2.446   2.403  0.00  0.00    +0.025 A 
ATOM     27  C   UNL     1       0.632   3.495   3.273  0.00  0.00    +0.041 A 
ATOM     28  C   UNL     1      -0.672   3.933   3.461  0.00  0.00    +0.130 A 
ATOM     29  N   UNL     1      -1.674   3.364   2.824  0.00  0.00    -0.227 NA
ATOM     30 CL   UNL     1      -0.986   5.247   4.550  0.00  0.00    -0.062 Cl
ATOM     31 CL   UNL     1       0.052   0.548   0.642  0.00  0.00    -0.081 Cl
ENDBRANCH  22  24
ENDBRANCH  21  22
ENDBRANCH  20  21
ENDBRANCH  18  20
ENDBRANCH   4  18
TORSDOF 7
