REMARK  Name = ZINC20439614
REMARK  4 active torsions:
REMARK  status: ('A' for Active; 'I' for Inactive)
REMARK    1  A    between atoms: C_1  and  C_2
REMARK    2  A    between atoms: C_2  and  C_3
REMARK    3  A    between atoms: C_11  and  C_12
REMARK    4  A    between atoms: C_13  and  C_18
REMARK                            x       y       z     vdW  Elec       q    Type
REMARK                         _______ _______ _______ _____ _____    ______ ____
ROOT
ATOM      1  C   UNL     1       1.080   2.266   0.004  0.00  0.00    +0.007 A 
ATOM      2  C   UNL     1       0.585   3.644   0.015  0.00  0.00    +0.024 A 
ATOM      3  C   UNL     1       1.197   4.899   0.015  0.00  0.00    +0.012 A 
ATOM      4  C   UNL     1       0.427   6.028   0.028  0.00  0.00    +0.001 A 
ATOM      5  C   UNL     1      -0.958   5.935   0.040  0.00  0.00    +0.004 A 
ATOM      6  C   UNL     1      -1.581   4.705   0.040  0.00  0.00    +0.047 A 
ATOM      7  C   UNL     1      -0.818   3.543   0.028  0.00  0.00    +0.136 A 
ATOM      8  O   UNL     1      -1.131   2.232   0.019  0.00  0.00    -0.453 OA
ATOM      9  C   UNL     1      -0.018   1.472   0.010  0.00  0.00    +0.160 A 
ENDROOT
BRANCH   9  10
ATOM     10  C   UNL     1       0.002  -0.004   0.002  0.00  0.00    +0.138 A 
ATOM     11  C   UNL     1      -1.166  -0.895   0.008  0.00  0.00    +0.062 A 
ATOM     12  C   UNL     1      -0.669  -2.187  -0.004  0.00  0.00    +0.116 A 
ATOM     13  N   UNL     1       0.669  -2.112  -0.017  0.00  0.00    -0.283 N 
ATOM     14  H   UNL     1       1.271  -3.033  -0.024  0.00  0.00    +0.188 HD
ATOM     15  N   UNL     1       1.069  -0.773  -0.018  0.00  0.00    -0.170 NA
BRANCH  11  16
ATOM     16  C   UNL     1      -2.575  -0.497   0.024  0.00  0.00    +0.262 C 
ATOM     17  O   UNL     1      -2.873   0.679   0.033  0.00  0.00    -0.296 OA
ENDBRANCH  11  16
ENDBRANCH   9  10
BRANCH   1  19
ATOM     18  C   UNL     1       2.994   1.678  -1.458  0.00  0.00    +0.009 C 
ATOM     19  C   UNL     1       2.520   1.821  -0.011  0.00  0.00    +0.036 C 
ENDBRANCH   1  19
TORSDOF 3
