REMARK  Name = ZINC40683197
REMARK  4 active torsions:
REMARK  status: ('A' for Active; 'I' for Inactive)
REMARK    1  A    between atoms: C_10  and  O_11
REMARK    2  A    between atoms: O_11  and  C_12
REMARK    3  A    between atoms: C_13  and  N_28
REMARK    4  A    between atoms: C_14  and  N_18
REMARK                            x       y       z     vdW  Elec       q    Type
REMARK                         _______ _______ _______ _____ _____    ______ ____
ROOT
ATOM      1  C   UNL     1       6.012  -0.609  -0.030  0.00  0.00    +0.246 A 
ATOM      2  C   UNL     1       7.238   0.045   0.089  0.00  0.00    +0.128 A 
ATOM      3  C   UNL     1       8.386  -0.732   0.257  0.00  0.00    +0.153 A 
ATOM      4  N   UNL     1       8.267  -2.057   0.296  0.00  0.00    -0.218 NA
ATOM      5  C   UNL     1       7.089  -2.634   0.180  0.00  0.00    +0.227 A 
ATOM      6  N   UNL     1       5.981  -1.937   0.026  0.00  0.00    -0.199 NA
ENDROOT
BRANCH   3   7
ATOM      7  N   UNL     1       9.634  -0.132   0.380  0.00  0.00    -0.283 N 
ATOM      8  C   UNL     1      10.140   0.276   1.698  0.00  0.00    +0.113 C 
ATOM      9  C   UNL     1      10.740   1.681   1.555  0.00  0.00    +0.024 C 
ATOM     10  C   UNL     1      11.929   1.615   0.596  0.00  0.00    +0.038 C 
ATOM     11  C   UNL     1      11.535   0.928  -0.685  0.00  0.00    -0.026 A 
ATOM     12  C   UNL     1      10.431   0.090  -0.749  0.00  0.00    +0.038 A 
ATOM     13  C   UNL     1      10.101  -0.537  -1.946  0.00  0.00    +0.024 A 
ATOM     14  C   UNL     1      10.873  -0.329  -3.071  0.00  0.00    +0.002 A 
ATOM     15  C   UNL     1      11.975   0.504  -3.007  0.00  0.00    +0.000 A 
ATOM     16  C   UNL     1      12.301   1.138  -1.819  0.00  0.00    +0.005 A 
ENDBRANCH   3   7
BRANCH   2  17
ATOM     17  N   UNL     1       7.316   1.445   0.041  0.00  0.00    -0.351 N 
ATOM     18  H   UNL     1       6.504   1.975   0.007  0.00  0.00    +0.143 HD
ATOM     19  H   UNL     1       8.181   1.883   0.041  0.00  0.00    +0.143 HD
ENDBRANCH   2  17
BRANCH   1  20
ATOM     20  O   UNL     1       4.867   0.100  -0.194  0.00  0.00    -0.436 OA
BRANCH  20  30
ATOM     21  C   UNL     1       1.662  -1.550   3.299  0.00  0.00    +0.001 A 
ATOM     22  C   UNL     1       2.865  -0.849   3.356  0.00  0.00    +0.001 A 
ATOM     23  C   UNL     1       3.541  -0.524   2.219  0.00  0.00    +0.012 A 
ATOM     24  C   UNL     1       3.021  -0.901   0.970  0.00  0.00    +0.024 A 
ATOM     25  C   UNL     1       1.798  -1.614   0.912  0.00  0.00    -0.014 A 
ATOM     26  C   UNL     1       1.128  -1.930   2.106  0.00  0.00    +0.008 A 
ATOM     27  C   UNL     1       1.277  -1.992  -0.337  0.00  0.00    +0.009 A 
ATOM     28  C   UNL     1       1.948  -1.672  -1.478  0.00  0.00    +0.004 A 
ATOM     29  C   UNL     1       3.151  -0.972  -1.432  0.00  0.00    +0.047 A 
ATOM     30  C   UNL     1       3.693  -0.583  -0.228  0.00  0.00    +0.138 A 
ENDBRANCH  20  30
ENDBRANCH   1  20
TORSDOF 4
