REMARK  Name = ZINC01464428
REMARK  4 active torsions:
REMARK  status: ('A' for Active; 'I' for Inactive)
REMARK    1  A    between atoms: C_5  and  N_7
REMARK    2  A    between atoms: N_7  and  C_8
REMARK    3  A    between atoms: C_9  and  C_19
REMARK    4  A    between atoms: N_20  and  C_21
REMARK                            x       y       z     vdW  Elec       q    Type
REMARK                         _______ _______ _______ _____ _____    ______ ____
ROOT
ATOM      1  C   UNL     1       1.101   3.425   0.010  0.00  0.00    +0.139 A 
ATOM      2  C   UNL     1       1.209   2.016   0.026  0.00  0.00    +0.098 A 
ATOM      3  C   UNL     1       0.020   1.251   0.037  0.00  0.00    +0.269 A 
ATOM      4  O   UNL     1       0.068   0.033   0.051  0.00  0.00    -0.266 OA
ATOM      5  N   UNL     1      -1.168   1.891   0.027  0.00  0.00    -0.268 N 
ATOM      6  C   UNL     1      -2.320   1.162   0.043  0.00  0.00    +0.096 A 
ATOM      7  C   UNL     1      -3.526   1.772   0.038  0.00  0.00    +0.018 A 
ATOM      8  C   UNL     1      -3.606   3.171   0.023  0.00  0.00    +0.005 A 
ATOM      9  C   UNL     1      -2.461   3.910   0.012  0.00  0.00    +0.047 A 
ATOM     10  C   UNL     1      -1.214   3.258   0.017  0.00  0.00    +0.142 A 
ATOM     11  N   UNL     1      -0.100   3.989   0.006  0.00  0.00    -0.214 NA
ENDROOT
BRANCH   1  12
ATOM     12  N   UNL     1       2.235   4.209  -0.001  0.00  0.00    -0.298 N 
ATOM     13  H   UNL     1       3.108   3.796  -0.086  0.00  0.00    +0.154 HD
BRANCH  12  18
ATOM     14  C   UNL     1       0.915   7.535   0.840  0.00  0.00    +0.002 A 
ATOM     15  C   UNL     1       1.910   8.349   0.330  0.00  0.00    +0.002 A 
ATOM     16  C   UNL     1       3.013   7.792  -0.290  0.00  0.00    +0.022 A 
ATOM     17  C   UNL     1       3.125   6.419  -0.402  0.00  0.00    +0.062 A 
ATOM     18  C   UNL     1       2.126   5.598   0.110  0.00  0.00    +0.051 A 
ATOM     19  C   UNL     1       1.017   6.162   0.727  0.00  0.00    +0.025 A 
ATOM     20 CL   UNL     1       4.510   5.719  -1.179  0.00  0.00    -0.082 Cl
ENDBRANCH  12  18
ENDBRANCH   1  12
BRANCH   2  21
ATOM     21  C   UNL     1       2.479   1.385   0.030  0.00  0.00    +0.128 C 
ATOM     22  N   UNL     1       2.561   0.079   0.044  0.00  0.00    -0.253 NA
BRANCH  22  23
ATOM     23  C   UNL     1       3.781  -0.531  -0.054  0.00  0.00    +0.082 A 
ATOM     24  C   UNL     1       4.861  -0.067   0.702  0.00  0.00    +0.029 A 
ATOM     25  C   UNL     1       6.087  -0.690   0.600  0.00  0.00    +0.002 A 
ATOM     26  C   UNL     1       6.253  -1.765  -0.255  0.00  0.00    +0.002 A 
ATOM     27  C   UNL     1       5.191  -2.227  -1.011  0.00  0.00    +0.022 A 
ATOM     28  C   UNL     1       3.956  -1.617  -0.917  0.00  0.00    +0.066 A 
ATOM     29 CL   UNL     1       2.624  -2.197  -1.867  0.00  0.00    -0.081 Cl
ENDBRANCH  22  23
ENDBRANCH   2  21
TORSDOF 4
