REMARK  Name = ZINC19614753
REMARK  10 active torsions:
REMARK  status: ('A' for Active; 'I' for Inactive)
REMARK    1  A    between atoms: C_1  and  C_2
REMARK    2  A    between atoms: C_3  and  C_14
REMARK    3  A    between atoms: C_4  and  C_13
REMARK    4  A    between atoms: C_9  and  S_11
REMARK    5  A    between atoms: S_11  and  C_12
REMARK    6  A    between atoms: C_14  and  C_15
REMARK    7  A    between atoms: C_15  and  O_17
REMARK    8  A    between atoms: O_17  and  C_18
REMARK    9  A    between atoms: C_18  and  C_20
REMARK   10  A    between atoms: C_18  and  C_21
REMARK                            x       y       z     vdW  Elec       q    Type
REMARK                         _______ _______ _______ _____ _____    ______ ____
ROOT
ATOM      1  C   UNL     1       4.393  -3.232  -1.613  0.00  0.00    +0.312 C 
ATOM      2  O   UNL     1       3.919  -2.659  -2.565  0.00  0.00    -0.250 OA
ENDROOT
BRANCH   1   3
ATOM      3  C   UNL     1       4.293  -2.621  -0.239  0.00  0.00    +0.159 C 
BRANCH   3   6
ATOM      4  C   UNL     1       5.763  -0.149  -0.693  0.00  0.00    +0.066 C 
ATOM      5  C   UNL     1       4.263  -0.117  -0.544  0.00  0.00    +0.047 A 
ATOM      6  C   UNL     1       3.560  -1.307  -0.326  0.00  0.00    +0.005 A 
ATOM      7  C   UNL     1       2.208  -1.264  -0.193  0.00  0.00    +0.049 A 
ATOM      8  N   UNL     1       1.575  -0.065  -0.276  0.00  0.00    -0.200 N 
ATOM      9  C   UNL     1       2.292   1.079  -0.490  0.00  0.00    +0.254 A 
ATOM     10  N   UNL     1       3.622   1.027  -0.619  0.00  0.00    -0.216 NA
ATOM     11  N   UNL     1       1.427   2.088  -0.524  0.00  0.00    -0.183 NA
ATOM     12  C   UNL     1       0.192   1.627  -0.341  0.00  0.00    +0.211 A 
ATOM     13  N   UNL     1       0.231   0.319  -0.184  0.00  0.00    -0.137 NA
ATOM     14  C   UNL     1       1.423  -2.528   0.043  0.00  0.00    +0.066 C 
BRANCH  12  15
ATOM     15  S   UNL     1      -1.269   2.611  -0.318  0.00  0.00    -0.088 S 
ATOM     16  C   UNL     1      -0.664   4.301  -0.585  0.00  0.00    +0.093 C 
ENDBRANCH  12  15
ENDBRANCH   3   6
ENDBRANCH   1   3
BRANCH   1  17
ATOM     17  O   UNL     1       5.010  -4.413  -1.779  0.00  0.00    -0.452 OA
BRANCH  17  18
ATOM     18  C   UNL     1       5.070  -4.941  -3.130  0.00  0.00    +0.259 C 
ATOM     19  C   UNL     1       3.839  -5.811  -3.392  0.00  0.00    +0.062 C 
BRANCH  18  20
ATOM     20  C   UNL     1       6.316  -5.773  -3.289  0.00  0.00    +0.256 C 
ATOM     21  O   UNL     1       6.991  -6.046  -2.319  0.00  0.00    -0.272 OA
ATOM     22  N   UNL     1       6.681  -6.214  -4.510  0.00  0.00    -0.294 N 
ATOM     23  C   UNL     1       5.946  -5.811  -5.720  0.00  0.00    +0.113 C 
ATOM     24  C   UNL     1       6.904  -4.994  -6.594  0.00  0.00    +0.054 C 
ATOM     25  C   UNL     1       8.231  -5.692  -6.730  0.00  0.00    -0.041 A 
ATOM     26  C   UNL     1       9.047  -5.323  -7.793  0.00  0.00    +0.004 A 
ATOM     27  C   UNL     1      10.281  -5.913  -7.969  0.00  0.00    +0.000 A 
ATOM     28  C   UNL     1      10.712  -6.881  -7.081  0.00  0.00    +0.000 A 
ATOM     29  C   UNL     1       9.903  -7.253  -6.027  0.00  0.00    +0.005 A 
ATOM     30  C   UNL     1       8.659  -6.661  -5.851  0.00  0.00    -0.027 A 
ATOM     31  C   UNL     1       7.821  -7.120  -4.684  0.00  0.00    +0.143 C 
ENDBRANCH  18  20
ENDBRANCH  17  18
ENDBRANCH   1  17
TORSDOF 6
