REMARK  Name = ZINC11478781
REMARK  9 active torsions:
REMARK  status: ('A' for Active; 'I' for Inactive)
REMARK    1  A    between atoms: C_1  and  C_2
REMARK    2  A    between atoms: C_4  and  C_7
REMARK    3  A    between atoms: C_7  and  O_8
REMARK    4  A    between atoms: O_8  and  C_9
REMARK    5  A    between atoms: C_14  and  C_15
REMARK    6  A    between atoms: C_16  and  C_17
REMARK    7  A    between atoms: C_22  and  C_25
REMARK    8  A    between atoms: C_28  and  N_31
REMARK    9  A    between atoms: C_32  and  C_34
REMARK                            x       y       z     vdW  Elec       q    Type
REMARK                         _______ _______ _______ _____ _____    ______ ____
ROOT
ATOM      1  C   UNL     1       2.117  -4.155   0.301  0.00  0.00    +0.243 C 
ATOM      2  O   UNL     1       1.004  -4.622   0.143  0.00  0.00    -0.270 OA
ATOM      3  N   UNL     1       2.289  -2.818   0.331  0.00  0.00    -0.261 N 
ATOM      4  C   UNL     1       1.197  -1.975   0.181  0.00  0.00    +0.165 A 
ATOM      5  N   UNL     1       1.156  -0.655   0.176  0.00  0.00    -0.225 NA
ATOM      6  C   UNL     1       0.012  -0.004   0.023  0.00  0.00    +0.080 A 
ATOM      7  C   UNL     1      -1.146  -0.712  -0.142  0.00  0.00    +0.076 A 
ATOM      8  S   UNL     1      -0.525  -2.386  -0.062  0.00  0.00    -0.060 S 
ATOM      9  H   UNL     1       3.176  -2.446   0.458  0.00  0.00    +0.157 HD
ENDROOT
BRANCH   6  10
ATOM     10  C   UNL     1      -0.011   1.479   0.026  0.00  0.00    +0.001 A 
ATOM     11  C   UNL     1      -1.215   2.159  -0.147  0.00  0.00    +0.012 A 
ATOM     12  C   UNL     1      -1.235   3.538  -0.139  0.00  0.00    +0.024 A 
ATOM     13  C   UNL     1      -0.053   4.249   0.030  0.00  0.00    +0.033 A 
ATOM     14  C   UNL     1       1.150   3.574   0.197  0.00  0.00    +0.024 A 
ATOM     15  C   UNL     1       1.174   2.195   0.195  0.00  0.00    +0.012 A 
BRANCH  13  16
ATOM     16  N   UNL     1      -0.075   5.649   0.032  0.00  0.00    -0.286 N 
ATOM     17  C   UNL     1       0.969   6.339  -0.467  0.00  0.00    +0.214 C 
ATOM     18  O   UNL     1       1.884   5.751  -1.005  0.00  0.00    -0.276 OA
ATOM     19  C   UNL     1       1.000   7.842  -0.358  0.00  0.00    +0.109 C 
ATOM     20  H   UNL     1      -0.841   6.121   0.393  0.00  0.00    +0.155 HD
ENDBRANCH  13  16
ENDBRANCH   6  10
BRANCH   1  22
ATOM     21  C   UNL     1       3.095  -6.382   0.430  0.00  0.00    +0.016 C 
ATOM     22  C   UNL     1       3.267  -5.043   0.460  0.00  0.00    +0.068 C 
BRANCH  21  28
ATOM     23  C   UNL     1       4.077  -8.668   0.558  0.00  0.00    +0.128 A 
ATOM     24  C   UNL     1       5.175  -9.501   0.709  0.00  0.00    +0.046 A 
ATOM     25  C   UNL     1       6.434  -8.961   0.888  0.00  0.00    +0.004 A 
ATOM     26  C   UNL     1       6.611  -7.587   0.919  0.00  0.00    +0.001 A 
ATOM     27  C   UNL     1       5.533  -6.743   0.765  0.00  0.00    +0.011 A 
ATOM     28  C   UNL     1       4.251  -7.276   0.589  0.00  0.00    +0.017 A 
BRANCH  23  29
ATOM     29  O   UNL     1       2.840  -9.197   0.383  0.00  0.00    -0.485 OA
BRANCH  29  30
ATOM     30  C   UNL     1       2.740 -10.623   0.363  0.00  0.00    +0.285 C 
BRANCH  30  34
ATOM     31  C   UNL     1      -0.872 -14.044  -0.157  0.00  0.00    +0.073 C 
ATOM     32  C   UNL     1      -0.293 -12.655  -0.070  0.00  0.00    +0.076 A 
ATOM     33  N   UNL     1       0.957 -12.293   0.106  0.00  0.00    -0.246 NA
ATOM     34  C   UNL     1       1.302 -11.023   0.160  0.00  0.00    +0.086 A 
ATOM     35  C   UNL     1       0.330 -10.084   0.033  0.00  0.00    +0.073 A 
ATOM     36  S   UNL     1      -1.107 -11.125  -0.178  0.00  0.00    -0.080 S 
ENDBRANCH  30  34
ENDBRANCH  29  30
ENDBRANCH  23  29
ENDBRANCH  21  28
ENDBRANCH   1  22
TORSDOF 7
