REMARK  Name = ZINC30682016
REMARK  8 active torsions:
REMARK  status: ('A' for Active; 'I' for Inactive)
REMARK    1  A    between atoms: C_1  and  C_2
REMARK    2  A    between atoms: C_5  and  C_7
REMARK    3  A    between atoms: N_9  and  C_10
REMARK    4  A    between atoms: C_13  and  C_16
REMARK    5  A    between atoms: N_18  and  C_19
REMARK    6  A    between atoms: C_19  and  C_20
REMARK    7  A    between atoms: C_20  and  C_21
REMARK    8  A    between atoms: C_21  and  N_22
REMARK                            x       y       z     vdW  Elec       q    Type
REMARK                         _______ _______ _______ _____ _____    ______ ____
ROOT
ATOM      1  C   UNL     1      -0.203   1.197   4.935  0.00  0.00    +0.244 C 
ATOM      2  O   UNL     1       0.696   0.384   5.029  0.00  0.00    -0.270 OA
ATOM      3  N   UNL     1      -0.571   1.658   3.723  0.00  0.00    -0.311 N 
ATOM      4  H   UNL     1      -1.384   2.394   3.638  0.00  0.00    +0.149 HD
ENDROOT
BRANCH   1   8
ATOM      5  C   UNL     1      -2.187   2.583   8.425  0.00  0.00    +0.033 A 
ATOM      6  C   UNL     1      -1.159   1.653   8.535  0.00  0.00    +0.024 A 
ATOM      7  C   UNL     1      -0.514   1.201   7.406  0.00  0.00    +0.015 A 
ATOM      8  C   UNL     1      -0.893   1.679   6.148  0.00  0.00    +0.037 A 
ATOM      9  C   UNL     1      -1.923   2.617   6.042  0.00  0.00    +0.015 A 
ATOM     10  C   UNL     1      -2.567   3.061   7.175  0.00  0.00    +0.024 A 
BRANCH   5  13
ATOM     11  C   UNL     1      -2.157   3.170  10.726  0.00  0.00    +0.221 C 
ATOM     12  O   UNL     1      -0.959   2.985  10.748  0.00  0.00    -0.275 OA
ATOM     13  N   UNL     1      -2.839   3.038   9.571  0.00  0.00    -0.285 N 
ATOM     14  H   UNL     1      -3.909   3.290   9.532  0.00  0.00    +0.155 HD
BRANCH  11  18
ATOM     15  C   UNL     1      -0.549   3.425  13.165  0.00  0.00    +0.008 C 
ATOM     16  C   UNL     1      -2.054   3.683  13.269  0.00  0.00    -0.002 C 
ATOM     17  C   UNL     1      -2.607   4.932  12.579  0.00  0.00    +0.017 C 
ATOM     18  C   UNL     1      -2.884   3.547  11.991  0.00  0.00    +0.078 C 
ENDBRANCH  11  18
ENDBRANCH   5  13
ENDBRANCH   1   8
BRANCH   3  19
ATOM     19  C   UNL     1       0.114   1.180   2.519  0.00  0.00    +0.106 C 
BRANCH  19  20
ATOM     20  C   UNL     1      -0.491   1.855   1.287  0.00  0.00    +0.038 C 
BRANCH  20  21
ATOM     21  C   UNL     1       0.224   1.356   0.030  0.00  0.00    +0.119 C 
BRANCH  21  22
ATOM     22  N   UNL     1      -0.355   2.003  -1.151  0.00  0.00    -0.224 N 
ATOM     23  C   UNL     1       0.087   3.168  -1.671  0.00  0.00    +0.246 C 
ATOM     24  O   UNL     1       1.002   3.854  -1.267  0.00  0.00    -0.273 OA
ATOM     25  C   UNL     1      -0.801   3.434  -2.860  0.00  0.00    +0.113 C 
ATOM     26  C   UNL     1       0.020   3.514  -4.154  0.00  0.00    +0.035 C 
ATOM     27  C   UNL     1      -0.712   4.590  -4.996  0.00  0.00    +0.003 C 
ATOM     28  C   UNL     1      -1.153   5.623  -3.928  0.00  0.00    +0.003 C 
ATOM     29  C   UNL     1      -1.549   4.761  -2.709  0.00  0.00    +0.035 C 
ATOM     30  N   UNL     1      -1.725   2.300  -2.889  0.00  0.00    -0.285 N 
ATOM     31  C   UNL     1      -1.384   1.509  -1.851  0.00  0.00    +0.309 C 
ATOM     32  O   UNL     1      -1.948   0.467  -1.581  0.00  0.00    -0.252 OA
ATOM     33  H   UNL     1      -2.499   2.240  -3.668  0.00  0.00    +0.151 HD
ENDBRANCH  21  22
ENDBRANCH  20  21
ENDBRANCH  19  20
ENDBRANCH   3  19
TORSDOF 7
