REMARK  Name = ZINC07516907
REMARK  6 active torsions:
REMARK  status: ('A' for Active; 'I' for Inactive)
REMARK    1  A    between atoms: C_1  and  C_2
REMARK    2  A    between atoms: C_2  and  O_3
REMARK    3  A    between atoms: O_3  and  C_4
REMARK    4  A    between atoms: C_4  and  C_6
REMARK    5  A    between atoms: C_7  and  N_25
REMARK    6  A    between atoms: C_11  and  C_13
REMARK                            x       y       z     vdW  Elec       q    Type
REMARK                         _______ _______ _______ _____ _____    ______ ____
ROOT
ATOM      1  C   UNL     1       2.280  -1.611   3.255  0.00  0.00    +0.105 C 
ATOM      2  C   UNL     1       1.509  -2.399   2.461  0.00  0.00    +0.195 C 
ATOM      3  O   UNL     1       0.679  -1.871   1.550  0.00  0.00    -0.446 OA
ATOM      4  C   UNL     1       0.892  -0.622   1.094  0.00  0.00    +0.115 C 
ATOM      5  C   UNL     1       1.613   0.269   1.799  0.00  0.00    +0.045 C 
ATOM      6  C   UNL     1       2.222  -0.115   3.127  0.00  0.00    +0.099 C 
ATOM      7  C   UNL     1       1.818   1.580   1.330  0.00  0.00    +0.163 C 
ATOM      8  O   UNL     1       2.490   2.350   1.986  0.00  0.00    -0.292 OA
ATOM      9  C   UNL     1       1.220   2.046   0.030  0.00  0.00    +0.080 C 
ATOM     10  C   UNL     1      -0.058   1.246  -0.242  0.00  0.00    +0.016 C 
ATOM     11  C   UNL     1       0.292  -0.243  -0.240  0.00  0.00    +0.075 C 
ENDROOT
BRANCH   6  12
ATOM     12  C   UNL     1       1.383   0.450   4.244  0.00  0.00    -0.021 A 
ATOM     13  C   UNL     1       0.059   0.073   4.373  0.00  0.00    +0.005 A 
ATOM     14  C   UNL     1      -0.710   0.591   5.398  0.00  0.00    +0.000 A 
ATOM     15  C   UNL     1      -0.156   1.486   6.295  0.00  0.00    +0.001 A 
ATOM     16  C   UNL     1       1.167   1.864   6.166  0.00  0.00    +0.015 A 
ATOM     17  C   UNL     1       1.939   1.342   5.143  0.00  0.00    +0.022 A 
ATOM     18 BR   UNL     1       3.751   1.854   4.970  0.00  0.00    -0.050 Br
ENDBRANCH   6  12
BRANCH   2  19
ATOM     19  N   UNL     1       1.582  -3.760   2.593  0.00  0.00    -0.329 N 
ATOM     20  H   UNL     1       2.442  -4.189   2.724  0.00  0.00    +0.145 HD
ATOM     21  H   UNL     1       0.773  -4.295   2.556  0.00  0.00    +0.145 HD
ENDBRANCH   2  19
BRANCH   1  22
ATOM     22  C   UNL     1       3.136  -2.198   4.201  0.00  0.00    +0.341 C 
ATOM     23  O   UNL     1       3.099  -3.400   4.392  0.00  0.00    -0.245 OA
BRANCH  22  24
ATOM     24  O   UNL     1       3.999  -1.429   4.898  0.00  0.00    -0.462 OA
BRANCH  24  26
ATOM     25  C   UNL     1       5.743  -1.067   6.532  0.00  0.00    +0.048 C 
ATOM     26  C   UNL     1       4.840  -2.093   5.844  0.00  0.00    +0.229 C 
ENDBRANCH  24  26
ENDBRANCH  22  24
ENDBRANCH   1  22
TORSDOF 5
