REMARK  Name = ZINC66884924
REMARK  8 active torsions:
REMARK  status: ('A' for Active; 'I' for Inactive)
REMARK    1  A    between atoms: C_1  and  C_2
REMARK    2  A    between atoms: C_2  and  C_4
REMARK    3  A    between atoms: C_2  and  O_14
REMARK    4  A    between atoms: O_14  and  C_15
REMARK    5  A    between atoms: C_15  and  C_17
REMARK    6  A    between atoms: C_17  and  N_25
REMARK    7  A    between atoms: C_18  and  C_19
REMARK    8  A    between atoms: C_26  and  C_28
REMARK                            x       y       z     vdW  Elec       q    Type
REMARK                         _______ _______ _______ _____ _____    ______ ____
ROOT
ATOM      1  C   UNL     1       2.432   0.016  -1.151  0.00  0.00    +0.354 C 
ATOM      2  O   UNL     1       3.254   0.400  -0.341  0.00  0.00    -0.244 OA
ENDROOT
BRANCH   1   3
ATOM      3  C   UNL     1       2.844  -0.859  -2.256  0.00  0.00    +0.119 C 
ATOM      4  C   UNL     1       4.104  -1.353  -2.295  0.00  0.00    +0.038 C 
BRANCH   4   5
ATOM      5  C   UNL     1       4.963  -1.271  -1.104  0.00  0.00    -0.023 A 
ATOM      6  C   UNL     1       4.439  -1.553   0.162  0.00  0.00    +0.008 A 
ATOM      7  C   UNL     1       5.251  -1.474   1.273  0.00  0.00    +0.001 A 
ATOM      8  C   UNL     1       6.582  -1.116   1.139  0.00  0.00    +0.000 A 
ATOM      9  C   UNL     1       7.107  -0.835  -0.111  0.00  0.00    +0.001 A 
ATOM     10  C   UNL     1       6.310  -0.915  -1.232  0.00  0.00    +0.008 A 
ENDBRANCH   4   5
BRANCH   3  11
ATOM     11  N   UNL     1       1.934  -1.182  -3.268  0.00  0.00    -0.280 N 
ATOM     12  C   UNL     1       1.363  -0.204  -3.998  0.00  0.00    +0.214 C 
ATOM     13  O   UNL     1       1.699   0.950  -3.835  0.00  0.00    -0.276 OA
ATOM     14  C   UNL     1       0.306  -0.544  -5.018  0.00  0.00    +0.109 C 
ATOM     15  H   UNL     1       1.714  -2.110  -3.445  0.00  0.00    +0.155 HD
ENDBRANCH   3  11
ENDBRANCH   1   3
BRANCH   1  16
ATOM     16  O   UNL     1       1.142   0.393  -1.033  0.00  0.00    -0.453 OA
BRANCH  16  18
ATOM     17  C   UNL     1       0.959   2.706  -0.360  0.00  0.00    +0.057 C 
ATOM     18  C   UNL     1       0.813   1.244   0.066  0.00  0.00    +0.204 C 
BRANCH  18  19
ATOM     19  C   UNL     1      -0.609   0.986   0.493  0.00  0.00    -0.004 A 
ATOM     20  C   UNL     1      -1.566   0.663  -0.452  0.00  0.00    +0.011 A 
ATOM     21  C   UNL     1      -2.871   0.426  -0.064  0.00  0.00    +0.050 A 
ATOM     22  C   UNL     1      -3.225   0.512   1.274  0.00  0.00    +0.162 A 
ATOM     23  C   UNL     1      -2.263   0.833   2.224  0.00  0.00    +0.162 A 
ATOM     24  C   UNL     1      -0.954   1.066   1.829  0.00  0.00    +0.056 A 
ATOM     25  O   UNL     1      -2.587   0.915   3.544  0.00  0.00    -0.485 OA
ATOM     26  C   UNL     1      -3.978   1.036   3.858  0.00  0.00    +0.270 C 
ATOM     27  C   UNL     1      -4.751   0.005   3.025  0.00  0.00    +0.270 C 
ATOM     28  O   UNL     1      -4.515   0.280   1.640  0.00  0.00    -0.485 OA
ENDBRANCH  18  19
ENDBRANCH  16  18
ENDBRANCH   1  16
TORSDOF 6
