REMARK  Name = ZINC15800093
REMARK  6 active torsions:
REMARK  status: ('A' for Active; 'I' for Inactive)
REMARK    1  A    between atoms: C_1  and  C_2
REMARK    2  A    between atoms: C_4  and  C_13
REMARK    3  A    between atoms: C_5  and  C_12
REMARK    4  A    between atoms: N_6  and  C_7
REMARK    5  A    between atoms: N_20  and  C_23
REMARK    6  A    between atoms: C_23  and  C_24
REMARK                            x       y       z     vdW  Elec       q    Type
REMARK                         _______ _______ _______ _____ _____    ______ ____
ROOT
ATOM      1  C   UNL     1      -2.758   1.249   4.298  0.00  0.00    +0.028 C 
ATOM      2  C   UNL     1      -3.829   2.024   4.711  0.00  0.00    +0.100 C 
ATOM      3  C   UNL     1      -4.564   1.721   5.953  0.00  0.00    +0.257 C 
ATOM      4  O   UNL     1      -4.248   0.777   6.652  0.00  0.00    -0.270 OA
ATOM      5  N   UNL     1      -5.593   2.523   6.296  0.00  0.00    -0.236 N 
ATOM      6  C   UNL     1      -5.955   3.563   5.532  0.00  0.00    +0.316 C 
ATOM      7  O   UNL     1      -6.895   4.243   5.895  0.00  0.00    -0.252 OA
ATOM      8  N   UNL     1      -5.337   3.894   4.390  0.00  0.00    -0.214 N 
ATOM      9  C   UNL     1      -4.287   3.185   3.926  0.00  0.00    +0.259 C 
ATOM     10  O   UNL     1      -3.734   3.494   2.887  0.00  0.00    -0.269 OA
ATOM     11  H   UNL     1      -6.086   2.340   7.111  0.00  0.00    +0.159 HD
ENDROOT
BRANCH   1  15
ATOM     12  C   UNL     1       0.005   4.100   1.178  0.00  0.00    +0.063 C 
ATOM     13  C   UNL     1      -0.728   2.951   1.822  0.00  0.00    +0.017 A 
ATOM     14  C   UNL     1      -1.430   3.020   2.965  0.00  0.00    +0.030 A 
ATOM     15  C   UNL     1      -1.958   1.669   3.208  0.00  0.00    -0.003 A 
ATOM     16  C   UNL     1      -1.513   0.893   2.148  0.00  0.00    +0.023 A 
ATOM     17  N   UNL     1      -0.786   1.677   1.334  0.00  0.00    -0.345 N 
ATOM     18  C   UNL     1      -1.795  -0.573   1.946  0.00  0.00    +0.064 C 
BRANCH  17  19
ATOM     19  C   UNL     1      -0.140   1.226   0.098  0.00  0.00    +0.087 C 
ATOM     20  C   UNL     1       1.024   0.269   0.428  0.00  0.00    +0.025 C 
ATOM     21  C   UNL     1       0.403  -1.144   0.299  0.00  0.00    +0.002 C 
ATOM     22  C   UNL     1      -0.545  -0.990  -0.916  0.00  0.00    +0.002 C 
ATOM     23  C   UNL     1      -1.138   0.425  -0.756  0.00  0.00    +0.025 C 
ENDBRANCH  17  19
ENDBRANCH   1  15
BRANCH   8  24
ATOM     24  C   UNL     1      -5.812   5.051   3.628  0.00  0.00    +0.192 C 
BRANCH  24  25
ATOM     25  C   UNL     1      -6.862   4.607   2.643  0.00  0.00    +0.123 A 
ATOM     26  C   UNL     1      -8.185   4.545   2.879  0.00  0.00    +0.046 A 
ATOM     27  C   UNL     1      -8.792   4.083   1.688  0.00  0.00    +0.041 A 
ATOM     28  C   UNL     1      -7.803   3.882   0.799  0.00  0.00    +0.195 A 
ATOM     29  O   UNL     1      -6.636   4.201   1.383  0.00  0.00    -0.466 OA
ENDBRANCH  24  25
ENDBRANCH   8  24
TORSDOF 4
