REMARK  Name = ZINC19315724
REMARK  7 active torsions:
REMARK  status: ('A' for Active; 'I' for Inactive)
REMARK    1  A    between atoms: C_1  and  C_2
REMARK    2  A    between atoms: C_7  and  C_8
REMARK    3  A    between atoms: N_10  and  C_11
REMARK    4  A    between atoms: C_11  and  C_13
REMARK    5  A    between atoms: C_11  and  N_17
REMARK    6  A    between atoms: N_17  and  C_18
REMARK    7  A    between atoms: C_18  and  C_19
REMARK                            x       y       z     vdW  Elec       q    Type
REMARK                         _______ _______ _______ _____ _____    ______ ____
ROOT
ATOM      1  C   UNL     1       0.578   0.067   4.894  0.00  0.00    +0.193 C 
ENDROOT
BRANCH   1   4
ATOM      2  C   UNL     1       0.242   0.021   2.481  0.00  0.00    +0.246 C 
ATOM      3  O   UNL     1       0.135   1.232   2.503  0.00  0.00    -0.270 OA
ATOM      4  N   UNL     1       0.465  -0.656   3.625  0.00  0.00    -0.292 N 
ATOM      5  H   UNL     1       0.551  -1.622   3.607  0.00  0.00    +0.151 HD
BRANCH   2  12
ATOM      6  C   UNL     1      -0.511   1.452   0.082  0.00  0.00    +0.044 C 
ATOM      7  C   UNL     1      -0.234  -0.028   0.036  0.00  0.00    -0.038 A 
ATOM      8  C   UNL     1      -0.334  -0.714  -1.157  0.00  0.00    +0.004 A 
ATOM      9  C   UNL     1      -0.080  -2.073  -1.200  0.00  0.00    +0.000 A 
ATOM     10  C   UNL     1       0.275  -2.754  -0.049  0.00  0.00    +0.001 A 
ATOM     11  C   UNL     1       0.378  -2.080   1.150  0.00  0.00    +0.013 A 
ATOM     12  C   UNL     1       0.128  -0.708   1.200  0.00  0.00    +0.040 A 
ENDBRANCH   2  12
ENDBRANCH   1   4
BRANCH   1  13
ATOM     13  C   UNL     1      -0.239  -0.656   5.967  0.00  0.00    +0.222 C 
ATOM     14 CL   UNL     1       0.389  -2.333   6.172  0.00  0.00    -0.080 Cl
ATOM     15 CL   UNL     1      -0.100   0.234   7.529  0.00  0.00    -0.080 Cl
ATOM     16 CL   UNL     1      -1.969  -0.719   5.463  0.00  0.00    -0.080 Cl
ENDBRANCH   1  13
BRANCH   1  17
ATOM     17  N   UNL     1       1.988   0.118   5.304  0.00  0.00    -0.293 NA
ATOM     18  H   UNL     1       2.095  -0.163   6.267  0.00  0.00    +0.124 HD
BRANCH  17  19
ATOM     19  C   UNL     1       2.553   1.456   5.081  0.00  0.00    +0.114 C 
BRANCH  19  20
ATOM     20  C   UNL     1       4.018   1.470   5.519  0.00  0.00    +0.132 C 
ATOM     21  C   UNL     1       4.624   2.883   5.325  0.00  0.00    +0.035 C 
ATOM     22  C   UNL     1       5.777   2.855   6.365  0.00  0.00    +0.031 C 
ATOM     23  C   UNL     1       5.177   1.992   7.495  0.00  0.00    +0.160 C 
ATOM     24  O   UNL     1       4.120   1.207   6.928  0.00  0.00    -0.375 OA
ENDBRANCH  19  20
ENDBRANCH  17  19
ENDBRANCH   1  17
TORSDOF 6
