REMARK  Name = ZINC02289682
REMARK  9 active torsions:
REMARK  status: ('A' for Active; 'I' for Inactive)
REMARK    1  A    between atoms: C_1  and  C_2
REMARK    2  A    between atoms: C_2  and  C_3
REMARK    3  A    between atoms: C_2  and  C_4
REMARK    4  A    between atoms: C_12  and  N_28
REMARK    5  A    between atoms: C_14  and  S_16
REMARK    6  A    between atoms: S_16  and  C_17
REMARK    7  A    between atoms: C_17  and  C_18
REMARK    8  A    between atoms: N_20  and  C_21
REMARK    9  A    between atoms: N_20  and  C_22
REMARK                            x       y       z     vdW  Elec       q    Type
REMARK                         _______ _______ _______ _____ _____    ______ ____
ROOT
ATOM      1  C   UNL     1       1.820   0.561  -0.923  0.00  0.00    +0.126 C 
ATOM      2  C   UNL     1       2.109   1.942  -0.328  0.00  0.00    +0.068 C 
ATOM      3  C   UNL     1       0.808   2.742  -0.329  0.00  0.00    -0.020 A 
ATOM      4  C   UNL     1      -0.372   2.091  -0.462  0.00  0.00    +0.021 A 
ATOM      5  S   UNL     1      -1.612   3.356  -0.409  0.00  0.00    -0.071 S 
ATOM      6  C   UNL     1      -0.554   4.755  -0.217  0.00  0.00    +0.115 A 
ATOM      7  C   UNL     1       0.746   4.186  -0.193  0.00  0.00    +0.051 A 
ATOM      8  C   UNL     1       1.840   5.086  -0.040  0.00  0.00    +0.129 A 
ATOM      9  N   UNL     1       1.526   6.375   0.065  0.00  0.00    -0.207 NA
ATOM     10  C   UNL     1       0.285   6.837   0.035  0.00  0.00    +0.191 A 
ATOM     11  N   UNL     1      -0.782   6.048  -0.106  0.00  0.00    -0.214 NA
ATOM     12  C   UNL     1      -0.555   0.613  -0.614  0.00  0.00    +0.203 C 
ATOM     13  O   UNL     1       0.687  -0.025  -0.277  0.00  0.00    -0.371 OA
ENDROOT
BRANCH   1  15
ATOM     14  C   UNL     1       2.760  -1.717  -1.334  0.00  0.00    +0.010 C 
ATOM     15  C   UNL     1       3.040  -0.342  -0.725  0.00  0.00    +0.012 C 
ATOM     16  C   UNL     1       4.254   0.284  -1.415  0.00  0.00    +0.010 C 
ENDBRANCH   1  15
BRANCH   8  17
ATOM     17  N   UNL     1       3.151   4.646  -0.003  0.00  0.00    -0.343 N 
ATOM     18  H   UNL     1       3.342   3.698   0.071  0.00  0.00    +0.144 HD
ATOM     19  H   UNL     1       3.879   5.285  -0.050  0.00  0.00    +0.144 HD
ENDBRANCH   8  17
BRANCH  10  20
ATOM     20  S   UNL     1       0.032   8.574   0.187  0.00  0.00    -0.077 S 
BRANCH  20  21
ATOM     21  C   UNL     1       1.747   9.130   0.344  0.00  0.00    +0.173 C 
BRANCH  21  22
ATOM     22  C   UNL     1       1.778  10.629   0.490  0.00  0.00    +0.230 C 
ATOM     23  O   UNL     1       0.743  11.260   0.488  0.00  0.00    -0.274 OA
ATOM     24  N   UNL     1       2.957  11.269   0.623  0.00  0.00    -0.274 N 
ATOM     25  C   UNL     1       4.213  10.521   0.514  0.00  0.00    +0.138 C 
BRANCH  24  26
ATOM     26  C   UNL     1       2.982  12.647   0.865  0.00  0.00    +0.036 A 
ATOM     27  C   UNL     1       3.479  13.514  -0.100  0.00  0.00    +0.023 A 
ATOM     28  C   UNL     1       3.497  14.874   0.140  0.00  0.00    +0.002 A 
ATOM     29  C   UNL     1       3.031  15.372   1.342  0.00  0.00    +0.000 A 
ATOM     30  C   UNL     1       2.541  14.511   2.307  0.00  0.00    +0.002 A 
ATOM     31  C   UNL     1       2.515  13.150   2.072  0.00  0.00    +0.023 A 
ENDBRANCH  24  26
ENDBRANCH  21  22
ENDBRANCH  20  21
ENDBRANCH  10  20
TORSDOF 6
