REMARK  Name = ZINC39883480
REMARK  8 active torsions:
REMARK  status: ('A' for Active; 'I' for Inactive)
REMARK    1  A    between atoms: C_1  and  C_2
REMARK    2  A    between atoms: C_2  and  C_3
REMARK    3  A    between atoms: C_9  and  C_12
REMARK    4  A    between atoms: C_12  and  C_13
REMARK    5  A    between atoms: N_15  and  C_16
REMARK    6  A    between atoms: C_19  and  S_22
REMARK    7  A    between atoms: S_22  and  N_25
REMARK    8  A    between atoms: C_29  and  C_32
REMARK                            x       y       z     vdW  Elec       q    Type
REMARK                         _______ _______ _______ _____ _____    ______ ____
ROOT
ATOM      1  C   UNL     1       7.504  -2.134  -0.382  0.00  0.00    +0.222 C 
ATOM      2  O   UNL     1       8.589  -2.537  -0.022  0.00  0.00    -0.275 OA
ATOM      3  N   UNL     1       6.391  -2.828  -0.073  0.00  0.00    -0.285 N 
ATOM      4  H   UNL     1       5.518  -2.472  -0.302  0.00  0.00    +0.155 HD
ENDROOT
BRANCH   3   5
ATOM      5  C   UNL     1       6.494  -4.062   0.577  0.00  0.00    +0.034 A 
ATOM      6  C   UNL     1       5.599  -5.082   0.281  0.00  0.00    +0.025 A 
ATOM      7  C   UNL     1       5.704  -6.300   0.925  0.00  0.00    +0.030 A 
ATOM      8  C   UNL     1       6.699  -6.504   1.864  0.00  0.00    +0.106 A 
ATOM      9  C   UNL     1       7.591  -5.490   2.161  0.00  0.00    +0.030 A 
ATOM     10  C   UNL     1       7.495  -4.273   1.516  0.00  0.00    +0.025 A 
BRANCH   8  11
ATOM     11  S   UNL     1       6.829  -8.058   2.683  0.00  0.00    +0.061 S 
ATOM     12  O   UNL     1       7.502  -7.816   3.910  0.00  0.00    -0.153 OA
ATOM     13  O   UNL     1       5.541  -8.656   2.626  0.00  0.00    -0.153 OA
BRANCH  11  14
ATOM     14  N   UNL     1       7.833  -9.009   1.772  0.00  0.00    -0.176 NA
ATOM     15  C   UNL     1       7.292  -9.861   0.704  0.00  0.00    +0.109 C 
ATOM     16  C   UNL     1       8.038  -9.553  -0.598  0.00  0.00    +0.017 C 
ATOM     17  C   UNL     1       9.543  -9.712  -0.369  0.00  0.00    +0.006 C 
ATOM     18  C   UNL     1      10.005  -8.718   0.699  0.00  0.00    +0.002 C 
ATOM     19  C   UNL     1       9.283  -9.012   2.012  0.00  0.00    +0.112 C 
ATOM     20  C   UNL     1      11.515  -8.854   0.903  0.00  0.00    +0.009 C 
ENDBRANCH  11  14
ENDBRANCH   8  11
ENDBRANCH   3   5
BRANCH   1  21
ATOM     21  C   UNL     1       7.399  -0.856  -1.174  0.00  0.00    +0.135 C 
BRANCH  21  28
ATOM     22  C   UNL     1      10.785  -1.602  -4.352  0.00  0.00    -0.047 A 
ATOM     23  C   UNL     1      11.905  -0.815  -4.130  0.00  0.00    +0.007 A 
ATOM     24  C   UNL     1      11.947   0.066  -3.071  0.00  0.00    +0.047 A 
ATOM     25  C   UNL     1      10.858   0.171  -2.215  0.00  0.00    +0.135 A 
ATOM     26  C   UNL     1       9.726  -0.629  -2.446  0.00  0.00    +0.024 A 
ATOM     27  C   UNL     1       9.700  -1.511  -3.525  0.00  0.00    +0.015 A 
ATOM     28  C   UNL     1       8.776  -0.280  -1.382  0.00  0.00    +0.007 A 
ATOM     29  C   UNL     1       9.380   0.653  -0.634  0.00  0.00    +0.200 A 
ATOM     30  O   UNL     1      10.604   0.919  -1.123  0.00  0.00    -0.463 OA
BRANCH  22  32
ATOM     31  C   UNL     1      10.200  -1.849  -6.749  0.00  0.00    +0.009 C 
ATOM     32  C   UNL     1      10.761  -2.559  -5.516  0.00  0.00    +0.032 C 
ENDBRANCH  22  32
ENDBRANCH  21  28
ENDBRANCH   1  21
TORSDOF 6
