REMARK  Name = ZINC36076985
REMARK  5 active torsions:
REMARK  status: ('A' for Active; 'I' for Inactive)
REMARK    1  A    between atoms: C_1  and  C_2
REMARK    2  A    between atoms: C_8  and  O_9
REMARK    3  A    between atoms: C_18  and  C_20
REMARK    4  A    between atoms: C_20  and  N_21
REMARK    5  A    between atoms: N_24  and  C_27
REMARK                            x       y       z     vdW  Elec       q    Type
REMARK                         _______ _______ _______ _____ _____    ______ ____
ROOT
ATOM      1  C   UNL     1      -0.010   1.481   0.074  0.00  0.00    +0.045 C 
ATOM      2  C   UNL     1       0.015  -0.025   0.055  0.00  0.00    -0.031 A 
ATOM      3  C   UNL     1      -0.094  -0.711  -1.117  0.00  0.00    +0.048 A 
ATOM      4  C   UNL     1      -0.068  -2.118  -1.109  0.00  0.00    +0.126 A 
ATOM      5  N   UNL     1       0.061  -2.800   0.028  0.00  0.00    -0.231 NA
ATOM      6  C   UNL     1       0.170  -2.179   1.188  0.00  0.00    +0.091 A 
ATOM      7  C   UNL     1       0.157  -0.761   1.249  0.00  0.00    +0.084 A 
ATOM      8  C   UNL     1       0.280  -0.129   2.495  0.00  0.00    +0.294 A 
ATOM      9  O   UNL     1       0.414  -0.830   3.622  0.00  0.00    -0.424 OA
ATOM     10  C   UNL     1       0.441  -2.179   3.646  0.00  0.00    +0.141 A 
ATOM     11  C   UNL     1       0.314  -2.915   2.457  0.00  0.00    +0.044 A 
ATOM     12  C   UNL     1       0.341  -4.307   2.487  0.00  0.00    +0.014 A 
ATOM     13  C   UNL     1       0.477  -4.961   3.693  0.00  0.00    +0.001 A 
ATOM     14  C   UNL     1       0.585  -4.237   4.870  0.00  0.00    +0.004 A 
ATOM     15  C   UNL     1       0.583  -2.858   4.851  0.00  0.00    +0.047 A 
ATOM     16  N   UNL     1      -0.177  -2.790  -2.276  0.00  0.00    -0.269 N 
ATOM     17  C   UNL     1      -0.154  -4.111  -2.283  0.00  0.00    +0.232 C 
ATOM     18  O   UNL     1      -0.035  -4.723  -1.237  0.00  0.00    -0.274 OA
ATOM     19  H   UNL     1      -0.272  -2.302  -3.109  0.00  0.00    +0.156 HD
ENDROOT
BRANCH   8  20
ATOM     20  O   UNL     1       0.262   1.213   2.555  0.00  0.00    -0.480 OA
ATOM     21  H   UNL     1       0.353   1.568   3.450  0.00  0.00    +0.295 HD
ENDBRANCH   8  20
BRANCH  17  22
ATOM     22  C   UNL     1      -0.275  -4.860  -3.584  0.00  0.00    +0.181 C 
BRANCH  22  23
ATOM     23  N   UNL     1      -0.222  -6.305  -3.325  0.00  0.00    -0.291 NA
ATOM     24  C   UNL     1      -1.391  -6.744  -2.550  0.00  0.00    +0.104 C 
ATOM     25  C   UNL     1      -1.211  -8.211  -2.146  0.00  0.00    +0.120 C 
ATOM     26  N   UNL     1      -0.935  -8.998  -3.357  0.00  0.00    -0.327 N 
ATOM     27  C   UNL     1       0.135  -8.541  -4.257  0.00  0.00    +0.120 C 
ATOM     28  C   UNL     1      -0.099  -7.061  -4.578  0.00  0.00    +0.104 C 
BRANCH  26  29
ATOM     29  C   UNL     1      -1.671 -10.151  -3.646  0.00  0.00    +0.031 A 
ATOM     30  C   UNL     1      -1.316 -10.951  -4.724  0.00  0.00    +0.023 A 
ATOM     31  C   UNL     1      -2.044 -12.090  -5.007  0.00  0.00    +0.003 A 
ATOM     32  C   UNL     1      -3.126 -12.434  -4.217  0.00  0.00    +0.020 A 
ATOM     33  C   UNL     1      -3.482 -11.640  -3.142  0.00  0.00    +0.043 A 
ATOM     34  C   UNL     1      -2.754 -10.502  -2.851  0.00  0.00    +0.043 A 
ATOM     35 CL   UNL     1      -4.841 -12.076  -2.154  0.00  0.00    -0.083 Cl
ENDBRANCH  26  29
ENDBRANCH  22  23
ENDBRANCH  17  22
TORSDOF 4
