REMARK  Name = ZINC13117219
REMARK  6 active torsions:
REMARK  status: ('A' for Active; 'I' for Inactive)
REMARK    1  A    between atoms: C_3  and  C_6
REMARK    2  A    between atoms: C_6  and  N_7
REMARK    3  A    between atoms: N_7  and  C_8
REMARK    4  A    between atoms: N_7  and  C_19
REMARK    5  A    between atoms: C_8  and  C_9
REMARK    6  A    between atoms: C_19  and  C_20
REMARK                            x       y       z     vdW  Elec       q    Type
REMARK                         _______ _______ _______ _____ _____    ______ ____
ROOT
ATOM      1  N   UNL     1       3.992   0.680   1.380  0.00  0.00    -0.284 NA
ENDROOT
BRANCH   1   2
ATOM      2  C   UNL     1       3.270   0.490   0.115  0.00  0.00    +0.159 C 
BRANCH   2   5
ATOM      3  C   UNL     1      -0.367   0.620   0.697  0.00  0.00    +0.041 A 
ATOM      4  C   UNL     1       0.859   1.246   0.373  0.00  0.00    +0.046 A 
ATOM      5  C   UNL     1       1.804   0.289   0.398  0.00  0.00    +0.119 A 
ATOM      6  O   UNL     1       1.218  -0.877   0.719  0.00  0.00    -0.467 OA
ATOM      7  C   UNL     1      -0.098  -0.682   0.901  0.00  0.00    +0.195 A 
ENDBRANCH   2   5
ENDBRANCH   1   2
BRANCH   1   8
ATOM      8  C   UNL     1       5.438   0.507   1.192  0.00  0.00    +0.138 C 
BRANCH   8   9
ATOM      9  C   UNL     1       5.730  -0.925   0.824  0.00  0.00    +0.037 A 
ATOM     10  C   UNL     1       6.255  -1.238  -0.412  0.00  0.00    +0.093 A 
ATOM     11  C   UNL     1       6.518  -2.570  -0.734  0.00  0.00    +0.259 A 
ATOM     12  O   UNL     1       6.983  -2.854  -1.827  0.00  0.00    -0.267 OA
ATOM     13  N   UNL     1       6.256  -3.556   0.175  0.00  0.00    -0.264 N 
ATOM     14  C   UNL     1       6.461  -4.905   0.006  0.00  0.00    +0.104 A 
ATOM     15  C   UNL     1       6.163  -5.772   0.974  0.00  0.00    +0.067 A 
ATOM     16  S   UNL     1       5.543  -4.693   2.254  0.00  0.00    -0.059 S 
ATOM     17  C   UNL     1       5.736  -3.156   1.377  0.00  0.00    +0.158 A 
ATOM     18  N   UNL     1       5.491  -1.908   1.688  0.00  0.00    -0.338 N 
ATOM     19  H   UNL     1       5.126  -1.697   2.562  0.00  0.00    +0.168 HD
ENDBRANCH   8   9
ENDBRANCH   1   8
BRANCH   1  20
ATOM     20  C   UNL     1       3.690   1.992   1.967  0.00  0.00    +0.138 C 
BRANCH  20  21
ATOM     21  C   UNL     1       4.120   2.008   3.411  0.00  0.00    +0.037 A 
ATOM     22  C   UNL     1       5.125   2.852   3.834  0.00  0.00    +0.093 A 
ATOM     23  C   UNL     1       5.510   2.853   5.175  0.00  0.00    +0.259 A 
ATOM     24  O   UNL     1       6.399   3.598   5.556  0.00  0.00    -0.267 OA
ATOM     25  N   UNL     1       4.890   2.018   6.063  0.00  0.00    -0.264 N 
ATOM     26  C   UNL     1       5.155   1.904   7.406  0.00  0.00    +0.104 A 
ATOM     27  C   UNL     1       4.478   1.048   8.171  0.00  0.00    +0.067 A 
ATOM     28  S   UNL     1       3.363   0.306   6.990  0.00  0.00    -0.059 S 
ATOM     29  C   UNL     1       3.904   1.214   5.558  0.00  0.00    +0.158 A 
ATOM     30  N   UNL     1       3.534   1.212   4.301  0.00  0.00    -0.338 N 
ATOM     31  H   UNL     1       2.823   0.617   4.014  0.00  0.00    +0.168 HD
ENDBRANCH  20  21
ENDBRANCH   1  20
TORSDOF 6
