REMARK  Name = ZINC34787954
REMARK  8 active torsions:
REMARK  status: ('A' for Active; 'I' for Inactive)
REMARK    1  A    between atoms: C_1  and  C_2
REMARK    2  A    between atoms: C_2  and  C_3
REMARK    3  A    between atoms: C_4  and  C_28
REMARK    4  A    between atoms: C_8  and  S_19
REMARK    5  A    between atoms: C_13  and  C_18
REMARK    6  A    between atoms: C_15  and  C_17
REMARK    7  A    between atoms: S_19  and  C_20
REMARK    8  A    between atoms: C_20  and  C_21
REMARK                            x       y       z     vdW  Elec       q    Type
REMARK                         _______ _______ _______ _____ _____    ______ ____
ROOT
ATOM      1  C   UNL     1       0.707  -0.490  -1.238  0.00  0.00    -0.026 A 
ATOM      2  C   UNL     1       0.007  -0.809  -2.336  0.00  0.00    -0.007 A 
ATOM      3  S   UNL     1       1.261  -1.314  -3.498  0.00  0.00    -0.073 S 
ATOM      4  C   UNL     1       2.692  -1.082  -2.478  0.00  0.00    +0.115 A 
ATOM      5  C   UNL     1       2.155  -0.612  -1.260  0.00  0.00    +0.043 A 
ATOM      6  C   UNL     1       3.106  -0.334  -0.238  0.00  0.00    +0.111 A 
ATOM      7  N   UNL     1       4.392  -0.522  -0.484  0.00  0.00    -0.204 NA
ATOM      8  C   UNL     1       4.829  -0.962  -1.655  0.00  0.00    +0.254 A 
ATOM      9  N   UNL     1       3.990  -1.246  -2.640  0.00  0.00    -0.203 NA
ATOM     10  N   UNL     1       6.199  -1.139  -1.852  0.00  0.00    -0.202 N 
ATOM     11  C   UNL     1       6.795  -1.575  -2.993  0.00  0.00    +0.045 A 
ATOM     12  C   UNL     1       8.129  -1.606  -2.772  0.00  0.00    +0.048 A 
ATOM     13  C   UNL     1       8.359  -1.177  -1.459  0.00  0.00    +0.061 A 
ATOM     14  N   UNL     1       7.207  -0.892  -0.910  0.00  0.00    -0.169 NA
ATOM     15  C   UNL     1       9.706  -1.058  -0.794  0.00  0.00    +0.067 C 
ATOM     16  C   UNL     1       6.096  -1.957  -4.272  0.00  0.00    +0.066 C 
ATOM     17  C   UNL     1      -1.486  -0.755  -2.538  0.00  0.00    +0.052 C 
ENDROOT
BRANCH   1  19
ATOM     18  C   UNL     1      -0.220  -1.179   0.956  0.00  0.00    +0.009 C 
ATOM     19  C   UNL     1       0.002  -0.004   0.002  0.00  0.00    +0.033 C 
ENDBRANCH   1  19
BRANCH   6  20
ATOM     20  S   UNL     1       2.576   0.254   1.336  0.00  0.00    -0.096 S 
BRANCH  20  21
ATOM     21  C   UNL     1       4.117   0.455   2.271  0.00  0.00    +0.171 C 
BRANCH  21  22
ATOM     22  C   UNL     1       3.803   0.960   3.656  0.00  0.00    +0.226 C 
ATOM     23  O   UNL     1       2.652   1.164   3.980  0.00  0.00    -0.275 OA
ATOM     24  N   UNL     1       4.800   1.184   4.534  0.00  0.00    -0.301 N 
ATOM     25  C   UNL     1       6.233   0.986   4.272  0.00  0.00    +0.108 C 
ATOM     26  C   UNL     1       6.990   1.344   5.569  0.00  0.00    +0.020 C 
ATOM     27  C   UNL     1       5.901   1.182   6.662  0.00  0.00    +0.020 C 
ATOM     28  C   UNL     1       4.635   1.676   5.914  0.00  0.00    +0.108 C 
ENDBRANCH  21  22
ENDBRANCH  20  21
ENDBRANCH   6  20
TORSDOF 4
