REMARK  Name = ZINC09409005
REMARK  11 active torsions:
REMARK  status: ('A' for Active; 'I' for Inactive)
REMARK    1  A    between atoms: C_1  and  C_2
REMARK    2  A    between atoms: C_2  and  C_3
REMARK    3  A    between atoms: C_2  and  C_4
REMARK    4  A    between atoms: C_4  and  C_5
REMARK    5  A    between atoms: C_5  and  O_6
REMARK    6  A    between atoms: O_6  and  C_7
REMARK    7  A    between atoms: C_11  and  C_13
REMARK    8  A    between atoms: C_16  and  C_30
REMARK    9  A    between atoms: N_23  and  C_24
REMARK   10  A    between atoms: C_24  and  C_25
REMARK   11  A    between atoms: C_35  and  O_36
REMARK                            x       y       z     vdW  Elec       q    Type
REMARK                         _______ _______ _______ _____ _____    ______ ____
ROOT
ATOM      1  C   UNL     1       0.759  -0.939   8.502  0.00  0.00    +0.142 C 
ATOM      2  C   UNL     1       0.043  -2.123   9.092  0.00  0.00    +0.035 A 
ATOM      3  C   UNL     1      -0.381  -3.446   8.928  0.00  0.00    +0.102 A 
ATOM      4  N   UNL     1      -1.015  -3.797  10.029  0.00  0.00    -0.173 NA
ATOM      5  N   UNL     1      -1.032  -2.827  10.873  0.00  0.00    -0.272 N 
ATOM      6  H   UNL     1      -1.444  -2.860  11.751  0.00  0.00    +0.189 HD
ATOM      7  C   UNL     1      -0.386  -1.744  10.349  0.00  0.00    +0.126 A 
ATOM      8  C   UNL     1       0.030  -0.357  10.585  0.00  0.00    +0.266 C 
ATOM      9  O   UNL     1      -0.195   0.273  11.601  0.00  0.00    -0.268 OA
ATOM     10  N   UNL     1       0.698   0.121   9.517  0.00  0.00    -0.278 N 
ENDROOT
BRANCH   1  15
ATOM     11  C   UNL     1       0.065  -0.204   4.861  0.00  0.00    +0.121 A 
ATOM     12  C   UNL     1      -1.210   0.337   4.928  0.00  0.00    +0.045 A 
ATOM     13  C   UNL     1      -1.842   0.463   6.150  0.00  0.00    +0.004 A 
ATOM     14  C   UNL     1      -1.205   0.050   7.306  0.00  0.00    +0.006 A 
ATOM     15  C   UNL     1       0.067  -0.490   7.241  0.00  0.00    -0.019 A 
ATOM     16  C   UNL     1       0.701  -0.623   6.021  0.00  0.00    +0.051 A 
BRANCH  11  17
ATOM     17  O   UNL     1       0.689  -0.330   3.660  0.00  0.00    -0.492 OA
BRANCH  17  18
ATOM     18  C   UNL     1      -0.025   0.122   2.508  0.00  0.00    +0.229 C 
BRANCH  18  19
ATOM     19  C   UNL     1       0.830  -0.099   1.259  0.00  0.00    +0.044 C 
BRANCH  19  21
ATOM     20  C   UNL     1      -0.139   1.899   0.113  0.00  0.00    +0.007 C 
ATOM     21  C   UNL     1       0.065   0.386   0.025  0.00  0.00    -0.014 C 
ATOM     22  C   UNL     1       0.867   0.052  -1.235  0.00  0.00    +0.007 C 
ENDBRANCH  19  21
ENDBRANCH  18  19
ENDBRANCH  17  18
ENDBRANCH  11  17
ENDBRANCH   1  15
BRANCH   3  23
ATOM     23  C   UNL     1      -0.159  -4.298   7.733  0.00  0.00    +0.044 A 
ATOM     24  C   UNL     1       0.641  -3.843   6.688  0.00  0.00    +0.014 A 
ATOM     25  C   UNL     1       0.844  -4.639   5.579  0.00  0.00    +0.001 A 
ATOM     26  C   UNL     1       0.256  -5.889   5.501  0.00  0.00    +0.004 A 
ATOM     27  C   UNL     1      -0.540  -6.350   6.532  0.00  0.00    +0.046 A 
ATOM     28  C   UNL     1      -0.747  -5.564   7.654  0.00  0.00    +0.126 A 
BRANCH  28  29
ATOM     29  O   UNL     1      -1.524  -6.019   8.671  0.00  0.00    -0.506 OA
ATOM     30  H   UNL     1      -2.461  -5.796   8.581  0.00  0.00    +0.292 HD
ENDBRANCH  28  29
ENDBRANCH   3  23
BRANCH  10  31
ATOM     31  C   UNL     1       1.264   1.466   9.389  0.00  0.00    +0.183 C 
BRANCH  31  32
ATOM     32  C   UNL     1       0.236   2.389   8.788  0.00  0.00    +0.122 A 
ATOM     33  C   UNL     1      -0.658   3.123   9.475  0.00  0.00    +0.046 A 
ATOM     34  C   UNL     1      -1.421   3.837   8.521  0.00  0.00    +0.041 A 
ATOM     35  C   UNL     1      -0.946   3.496   7.309  0.00  0.00    +0.195 A 
ATOM     36  O   UNL     1       0.061   2.624   7.478  0.00  0.00    -0.466 OA
ENDBRANCH  31  32
ENDBRANCH  10  31
TORSDOF 9
