REMARK  Name = ZINC40749807
REMARK  3 active torsions:
REMARK  status: ('A' for Active; 'I' for Inactive)
REMARK    1  A    between atoms: C_5  and  S_7
REMARK    2  A    between atoms: S_7  and  N_10
REMARK    3  A    between atoms: C_18  and  N_20
REMARK                            x       y       z     vdW  Elec       q    Type
REMARK                         _______ _______ _______ _____ _____    ______ ____
ROOT
ATOM      1  S   UNL     1       1.141  -2.457  -0.022  0.00  0.00    +0.063 S 
ATOM      2  O   UNL     1       2.042  -2.881   0.993  0.00  0.00    -0.153 OA
ATOM      3  O   UNL     1      -0.226  -2.845  -0.038  0.00  0.00    -0.153 OA
ENDROOT
BRANCH   1   8
ATOM      4  C   UNL     1      -0.017   1.391   0.010  0.00  0.00    +0.004 A 
ATOM      5  C   UNL     1       1.128   2.114   0.003  0.00  0.00    +0.031 A 
ATOM      6  C   UNL     1       2.387   1.455  -0.013  0.00  0.00    +0.102 A 
ATOM      7  C   UNL     1       2.407  -0.003  -0.021  0.00  0.00    +0.126 A 
ATOM      8  C   UNL     1       1.166  -0.696  -0.013  0.00  0.00    +0.134 A 
ATOM      9  C   UNL     1       0.002  -0.004   0.002  0.00  0.00    +0.031 A 
ATOM     10  N   UNL     1       3.640  -0.511  -0.036  0.00  0.00    -0.189 NA
ATOM     11  S   UNL     1       4.631   0.756  -0.038  0.00  0.00    +0.117 S 
ATOM     12  N   UNL     1       3.606   1.996  -0.022  0.00  0.00    -0.191 NA
ENDBRANCH   1   8
BRANCH   1  13
ATOM     13  N   UNL     1       1.790  -2.948  -1.465  0.00  0.00    -0.171 NA
ATOM     14  C   UNL     1       1.089  -3.197  -2.748  0.00  0.00    +0.079 C 
ATOM     15  C   UNL     1       1.744  -4.486  -3.296  0.00  0.00    +0.022 C 
ATOM     16  C   UNL     1       3.147  -4.517  -2.655  0.00  0.00    +0.022 C 
ATOM     17  C   UNL     1       3.209  -3.237  -1.782  0.00  0.00    +0.079 C 
ATOM     18  C   UNL     1       3.724  -2.088  -2.663  0.00  0.00    +0.004 C 
ATOM     19  C   UNL     1       2.948  -2.090  -3.983  0.00  0.00    -0.072 C 
ATOM     20  C   UNL     1       1.440  -2.036  -3.692  0.00  0.00    +0.004 C 
BRANCH  19  21
ATOM     21  N   UNL     1       3.327  -0.912  -4.774  0.00  0.00    +0.380 N 
ATOM     22  H   UNL     1       4.317  -0.939  -4.965  0.00  0.00    -0.090 HD
ATOM     23  H   UNL     1       2.817  -0.913  -5.645  0.00  0.00    -0.090 HD
ATOM     24  H   UNL     1       3.107  -0.074  -4.257  0.00  0.00    -0.090 HD
ENDBRANCH  19  21
ENDBRANCH   1  13
TORSDOF 3
