REMARK  Name = ZINC15947015
REMARK  8 active torsions:
REMARK  status: ('A' for Active; 'I' for Inactive)
REMARK    1  A    between atoms: C_1  and  C_2
REMARK    2  A    between atoms: C_2  and  O_3
REMARK    3  A    between atoms: O_3  and  C_4
REMARK    4  A    between atoms: C_14  and  O_34
REMARK    5  A    between atoms: C_16  and  C_19
REMARK    6  A    between atoms: C_21  and  C_26
REMARK    7  A    between atoms: C_24  and  O_25
REMARK    8  A    between atoms: C_26  and  C_27
REMARK                            x       y       z     vdW  Elec       q    Type
REMARK                         _______ _______ _______ _____ _____    ______ ____
ROOT
ATOM      1  C   UNL     1       0.801  -1.812   1.304  0.00  0.00    +0.403 C 
ATOM      2  O   UNL     1       0.321  -2.554   0.470  0.00  0.00    -0.226 OA
ATOM      3  N   UNL     1       1.441  -2.324   2.374  0.00  0.00    -0.262 N 
ATOM      4  C   UNL     1       1.580  -3.777   2.556  0.00  0.00    +0.116 C 
ATOM      5  C   UNL     1       3.059  -4.163   2.493  0.00  0.00    +0.056 C 
ATOM      6  C   UNL     1       3.859  -3.222   3.382  0.00  0.00    -0.020 A 
ATOM      7  C   UNL     1       3.366  -2.021   3.764  0.00  0.00    +0.013 A 
ATOM      8  S   UNL     1       4.638  -1.304   4.766  0.00  0.00    -0.076 S 
ATOM      9  C   UNL     1       5.760  -2.522   4.697  0.00  0.00    +0.080 A 
ATOM     10  C   UNL     1       5.188  -3.513   3.891  0.00  0.00    +0.068 A 
ATOM     11  C   UNL     1       5.990  -4.737   3.636  0.00  0.00    +0.220 C 
ATOM     12  N   UNL     1       7.054  -4.927   4.369  0.00  0.00    -0.223 NA
ATOM     13  C   UNL     1       7.473  -4.055   5.459  0.00  0.00    +0.227 C 
ATOM     14  N   UNL     1       7.009  -2.671   5.257  0.00  0.00    -0.313 N 
ATOM     15  C   UNL     1       2.034  -1.447   3.404  0.00  0.00    +0.153 C 
ATOM     16  H   UNL     1       7.554  -1.907   5.504  0.00  0.00    +0.149 HD
ENDROOT
BRANCH  13  17
ATOM     17  C   UNL     1       6.906  -4.579   6.753  0.00  0.00    +0.036 A 
ATOM     18  C   UNL     1       6.594  -5.919   6.880  0.00  0.00    +0.015 A 
ATOM     19  C   UNL     1       6.073  -6.399   8.066  0.00  0.00    -0.042 A 
ATOM     20  C   UNL     1       5.863  -5.541   9.130  0.00  0.00    +0.007 A 
ATOM     21  C   UNL     1       6.174  -4.200   9.009  0.00  0.00    +0.046 A 
ATOM     22  C   UNL     1       6.702  -3.716   7.820  0.00  0.00    +0.124 A 
BRANCH  22  23
ATOM     23  O   UNL     1       7.014  -2.399   7.700  0.00  0.00    -0.506 OA
ATOM     24  H   UNL     1       6.287  -1.851   7.375  0.00  0.00    +0.292 HD
ENDBRANCH  22  23
BRANCH  19  25
ATOM     25  C   UNL     1       5.732  -7.861   8.201  0.00  0.00    +0.071 C 
BRANCH  25  26
ATOM     26  C   UNL     1       6.933  -8.611   8.717  0.00  0.00    -0.025 A 
ATOM     27  C   UNL     1       7.796  -9.227   7.830  0.00  0.00    +0.005 A 
ATOM     28  C   UNL     1       8.898  -9.915   8.303  0.00  0.00    +0.000 A 
ATOM     29  C   UNL     1       9.137  -9.988   9.663  0.00  0.00    +0.001 A 
ATOM     30  C   UNL     1       8.275  -9.372  10.550  0.00  0.00    +0.020 A 
ATOM     31  C   UNL     1       7.175  -8.678  10.077  0.00  0.00    +0.044 A 
ATOM     32 CL   UNL     1       6.095  -7.899  11.191  0.00  0.00    -0.083 Cl
ENDBRANCH  25  26
ENDBRANCH  19  25
ENDBRANCH  13  17
BRANCH  11  33
ATOM     33  O   UNL     1       5.630  -5.625   2.680  0.00  0.00    -0.492 OA
ATOM     34  H   UNL     1       6.225  -6.383   2.604  0.00  0.00    +0.294 HD
ENDBRANCH  11  33
BRANCH   1  35
ATOM     35  O   UNL     1       0.693  -0.477   1.160  0.00  0.00    -0.451 OA
BRANCH  35  37
ATOM     36  C   UNL     1      -0.019   1.526   0.010  0.00  0.00    +0.048 C 
ATOM     37  C   UNL     1       0.002  -0.004   0.002  0.00  0.00    +0.230 C 
ENDBRANCH  35  37
ENDBRANCH   1  35
TORSDOF 7
