REMARK  Name = ZINC38084734
REMARK  7 active torsions:
REMARK  status: ('A' for Active; 'I' for Inactive)
REMARK    1  A    between atoms: C_1  and  C_2
REMARK    2  A    between atoms: C_2  and  C_3
REMARK    3  A    between atoms: C_3  and  C_5
REMARK    4  A    between atoms: C_3  and  N_8
REMARK    5  A    between atoms: C_5  and  C_6
REMARK    6  A    between atoms: C_6  and  N_7
REMARK    7  A    between atoms: N_11  and  C_14
REMARK                            x       y       z     vdW  Elec       q    Type
REMARK                         _______ _______ _______ _____ _____    ______ ____
ROOT
ATOM      1  N   UNL     1      -2.207  -0.265   1.331  0.00  0.00    +0.383 N 
ATOM      2  C   UNL     1      -3.568  -0.792   1.165  0.00  0.00    -0.063 C 
ATOM      3  C   UNL     1      -4.346  -0.614   2.470  0.00  0.00    +0.066 C 
ATOM      4  N   UNL     1      -4.394   0.813   2.818  0.00  0.00    -0.301 NA
ATOM      5  C   UNL     1      -3.038   1.361   2.963  0.00  0.00    +0.066 C 
ATOM      6  C   UNL     1      -2.270   1.167   1.653  0.00  0.00    -0.063 C 
ATOM      7  H   UNL     1      -1.744  -0.758   2.079  0.00  0.00    -0.081 HD
ENDROOT
BRANCH   4   8
ATOM      8  C   UNL     1      -5.183   1.032   4.038  0.00  0.00    +0.079 C 
ATOM      9  C   UNL     1      -4.411   0.485   5.250  0.00  0.00    +0.043 C 
ATOM     10  C   UNL     1      -5.107   1.002   6.541  0.00  0.00    +0.167 C 
ATOM     11  S   UNL     1      -5.492   2.734   6.046  0.00  0.00    -0.029 S 
ATOM     12  O   UNL     1      -6.821   3.045   6.443  0.00  0.00    -0.174 OA
ATOM     13  O   UNL     1      -4.425   3.580   6.454  0.00  0.00    -0.174 OA
ATOM     14  C   UNL     1      -5.442   2.547   4.218  0.00  0.00    +0.184 C 
ENDBRANCH   4   8
BRANCH   1  15
ATOM     15  C   UNL     1      -1.454  -0.453   0.083  0.00  0.00    -0.071 C 
BRANCH  15  17
ATOM     16  C   UNL     1      -3.144  -0.707  -1.740  0.00  0.00    +0.002 C 
ATOM     17  C   UNL     1      -2.175   0.264  -1.060  0.00  0.00    -0.019 C 
ENDBRANCH  15  17
BRANCH  15  18
ATOM     18  C   UNL     1      -0.048   0.130   0.243  0.00  0.00    -0.035 C 
BRANCH  18  19
ATOM     19  C   UNL     1       0.705  -0.647   1.325  0.00  0.00    -0.088 C 
BRANCH  19  20
ATOM     20  N   UNL     1       2.016  -0.024   1.552  0.00  0.00    +0.378 N 
ATOM     21  H   UNL     1       2.548  -0.039   0.695  0.00  0.00    -0.090 HD
ATOM     22  H   UNL     1       1.887   0.931   1.851  0.00  0.00    -0.090 HD
ATOM     23  H   UNL     1       2.513  -0.536   2.266  0.00  0.00    -0.090 HD
ENDBRANCH  19  20
ENDBRANCH  18  19
ENDBRANCH  15  18
ENDBRANCH   1  15
TORSDOF 6
