REMARK  Name = ZINC14404453
REMARK  7 active torsions:
REMARK  status: ('A' for Active; 'I' for Inactive)
REMARK    1  A    between atoms: C_1  and  N_2
REMARK    2  A    between atoms: C_6  and  C_7
REMARK    3  A    between atoms: C_7  and  C_9
REMARK    4  A    between atoms: C_7  and  N_16
REMARK    5  A    between atoms: C_17  and  C_19
REMARK    6  A    between atoms: C_26  and  S_31
REMARK    7  A    between atoms: N_27  and  C_30
REMARK                            x       y       z     vdW  Elec       q    Type
REMARK                         _______ _______ _______ _____ _____    ______ ____
ROOT
ATOM      1  N   UNL     1       0.816   3.963   0.993  0.00  0.00    -0.298 N 
ATOM      2  C   UNL     1       1.200   3.986   2.284  0.00  0.00    +0.245 C 
ATOM      3  O   UNL     1       2.209   3.403   2.629  0.00  0.00    -0.270 OA
ATOM      4  H   UNL     1       0.011   4.429   0.718  0.00  0.00    +0.150 HD
ENDROOT
BRANCH   2   5
ATOM      5  C   UNL     1       0.392   4.722   3.284  0.00  0.00    +0.039 A 
ATOM      6  C   UNL     1      -0.770   5.392   2.881  0.00  0.00    +0.014 A 
ATOM      7  C   UNL     1      -1.528   6.075   3.788  0.00  0.00    +0.016 A 
ATOM      8  C   UNL     1      -1.146   6.109   5.128  0.00  0.00    +0.065 A 
ATOM      9  C   UNL     1       0.024   5.438   5.551  0.00  0.00    +0.080 A 
ATOM     10  C   UNL     1       0.789   4.737   4.614  0.00  0.00    +0.041 A 
ATOM     11  N   UNL     1       0.375   5.484   6.858  0.00  0.00    -0.223 NA
ATOM     12  C   UNL     1      -0.344   6.136   7.739  0.00  0.00    +0.169 A 
ATOM     13  N   UNL     1      -1.486   6.810   7.415  0.00  0.00    -0.291 N 
ATOM     14  C   UNL     1      -1.934   6.832   6.139  0.00  0.00    +0.262 A 
ATOM     15  O   UNL     1      -2.950   7.430   5.837  0.00  0.00    -0.267 OA
ATOM     16  C   UNL     1      -2.234   7.515   8.459  0.00  0.00    +0.154 C 
BRANCH  12  17
ATOM     17  S   UNL     1       0.189   6.142   9.418  0.00  0.00    -0.105 S 
ATOM     18  H   UNL     1       1.357   5.360   9.308  0.00  0.00    +0.110 HD
ENDBRANCH  12  17
ENDBRANCH   2   5
BRANCH   1  19
ATOM     19  C   UNL     1       1.615   3.236   0.004  0.00  0.00    +0.170 C 
BRANCH  19  20
ATOM     20  C   UNL     1       1.383   3.826  -1.363  0.00  0.00    -0.020 A 
ATOM     21  C   UNL     1       0.111   4.212  -1.741  0.00  0.00    +0.009 A 
ATOM     22  C   UNL     1      -0.103   4.759  -2.992  0.00  0.00    +0.038 A 
ATOM     23  C   UNL     1       0.956   4.909  -3.872  0.00  0.00    +0.123 A 
ATOM     24  C   UNL     1       2.229   4.516  -3.494  0.00  0.00    +0.038 A 
ATOM     25  C   UNL     1       2.441   3.975  -2.240  0.00  0.00    +0.009 A 
ATOM     26  F   UNL     1       0.747   5.437  -5.097  0.00  0.00    -0.205 F 
ENDBRANCH  19  20
BRANCH  19  32
ATOM     27  C   UNL     1       3.518   0.791  -0.027  0.00  0.00    +0.150 C 
ATOM     28  N   UNL     1       2.055   0.731  -0.014  0.00  0.00    -0.336 N 
ATOM     29  C   UNL     1       1.288  -0.403  -0.012  0.00  0.00    +0.106 A 
ATOM     30  C   UNL     1       0.002  -0.004   0.002  0.00  0.00    +0.130 A 
ATOM     31  N   UNL     1      -0.016   1.337   0.009  0.00  0.00    -0.238 NA
ATOM     32  C   UNL     1       1.210   1.784   0.000  0.00  0.00    +0.134 A 
ENDBRANCH  19  32
ENDBRANCH   1  19
TORSDOF 5
