REMARK  Name = ZINC09076716
REMARK  6 active torsions:
REMARK  status: ('A' for Active; 'I' for Inactive)
REMARK    1  A    between atoms: C_8  and  C_10
REMARK    2  A    between atoms: N_12  and  C_13
REMARK    3  A    between atoms: C_16  and  S_19
REMARK    4  A    between atoms: S_19  and  N_22
REMARK    5  A    between atoms: N_22  and  C_23
REMARK    6  A    between atoms: C_23  and  C_24
REMARK                            x       y       z     vdW  Elec       q    Type
REMARK                         _______ _______ _______ _____ _____    ______ ____
ROOT
ATOM      1  C   UNL     1      -6.846   3.769  -0.038  0.00  0.00    +0.034 A 
ATOM      2  C   UNL     1      -7.555   2.575  -0.039  0.00  0.00    +0.025 A 
ATOM      3  C   UNL     1      -8.934   2.591  -0.118  0.00  0.00    +0.030 A 
ATOM      4  C   UNL     1      -9.608   3.795  -0.208  0.00  0.00    +0.105 A 
ATOM      5  C   UNL     1      -8.905   4.986  -0.212  0.00  0.00    +0.030 A 
ATOM      6  C   UNL     1      -7.527   4.977  -0.128  0.00  0.00    +0.025 A 
ENDROOT
BRANCH   1   9
ATOM      7  C   UNL     1      -4.829   2.799   0.766  0.00  0.00    +0.284 C 
ATOM      8  O   UNL     1      -5.482   2.005   1.416  0.00  0.00    -0.266 OA
ATOM      9  N   UNL     1      -5.451   3.756   0.048  0.00  0.00    -0.279 N 
ATOM     10  H   UNL     1      -4.930   4.435  -0.409  0.00  0.00    +0.155 HD
BRANCH   7  18
ATOM     11  C   UNL     1       1.159   2.052   1.060  0.00  0.00    +0.001 A 
ATOM     12  C   UNL     1       1.144   3.147   0.205  0.00  0.00    +0.004 A 
ATOM     13  C   UNL     1      -0.046   3.723  -0.182  0.00  0.00    +0.047 A 
ATOM     14  C   UNL     1      -1.249   3.206   0.286  0.00  0.00    +0.136 A 
ATOM     15  C   UNL     1      -1.229   2.093   1.147  0.00  0.00    +0.021 A 
ATOM     16  C   UNL     1      -0.011   1.527   1.532  0.00  0.00    +0.011 A 
ATOM     17  C   UNL     1      -2.630   1.797   1.445  0.00  0.00    +0.063 A 
ATOM     18  C   UNL     1      -3.362   2.715   0.762  0.00  0.00    +0.191 A 
ATOM     19  O   UNL     1      -2.538   3.546   0.090  0.00  0.00    -0.450 OA
ENDBRANCH   7  18
ENDBRANCH   1   9
BRANCH   4  20
ATOM     20  S   UNL     1     -11.366   3.812  -0.317  0.00  0.00    +0.059 S 
ATOM     21  O   UNL     1     -11.820   2.594   0.256  0.00  0.00    -0.153 OA
ATOM     22  O   UNL     1     -11.791   5.082   0.159  0.00  0.00    -0.153 OA
BRANCH  20  23
ATOM     23  N   UNL     1     -11.758   3.754  -1.925  0.00  0.00    -0.183 NA
ATOM     24  H   UNL     1     -12.209   4.505  -2.342  0.00  0.00    +0.148 HD
BRANCH  23  25
ATOM     25  C   UNL     1     -11.424   2.568  -2.717  0.00  0.00    +0.180 C 
BRANCH  25  26
ATOM     26  C   UNL     1     -12.191   2.599  -4.015  0.00  0.00    +0.120 A 
ATOM     27  C   UNL     1     -11.772   3.160  -5.163  0.00  0.00    +0.046 A 
ATOM     28  C   UNL     1     -12.797   2.958  -6.116  0.00  0.00    +0.041 A 
ATOM     29  C   UNL     1     -13.780   2.285  -5.492  0.00  0.00    +0.195 A 
ATOM     30  O   UNL     1     -13.405   2.065  -4.222  0.00  0.00    -0.466 OA
ENDBRANCH  25  26
ENDBRANCH  23  25
ENDBRANCH  20  23
ENDBRANCH   4  20
TORSDOF 6
