REMARK  Name = ZINC40013661
REMARK  9 active torsions:
REMARK  status: ('A' for Active; 'I' for Inactive)
REMARK    1  A    between atoms: C_1  and  C_2
REMARK    2  A    between atoms: C_3  and  S_8
REMARK    3  A    between atoms: C_4  and  C_7
REMARK    4  A    between atoms: S_8  and  N_11
REMARK    5  A    between atoms: N_15  and  C_18
REMARK    6  A    between atoms: C_18  and  C_19
REMARK    7  A    between atoms: N_24  and  C_25
REMARK    8  A    between atoms: C_25  and  C_26
REMARK    9  A    between atoms: C_26  and  C_27
REMARK                            x       y       z     vdW  Elec       q    Type
REMARK                         _______ _______ _______ _____ _____    ______ ____
ROOT
ATOM      1  N   UNL     1       1.570  -0.091  -3.285  0.00  0.00    -0.178 NA
ATOM      2  C   UNL     1       2.254   1.161  -3.096  0.00  0.00    +0.107 C 
ATOM      3  C   UNL     1       2.182   2.160  -4.274  0.00  0.00    -0.001 C 
ATOM      4  C   UNL     1       2.360   1.414  -5.617  0.00  0.00    -0.077 C 
ATOM      5  N   UNL     1       3.352   0.375  -5.471  0.00  0.00    +0.386 N 
ATOM      6  C   UNL     1       2.574  -0.850  -5.310  0.00  0.00    -0.061 C 
ATOM      7  C   UNL     1       2.312  -1.237  -3.911  0.00  0.00    +0.091 C 
ATOM      8  H   UNL     1       3.920   0.542  -4.654  0.00  0.00    -0.081 HD
ENDROOT
BRANCH   1   9
ATOM      9  S   UNL     1      -0.008  -0.267  -2.813  0.00  0.00    +0.066 S 
ATOM     10  O   UNL     1      -0.547  -1.328  -3.589  0.00  0.00    -0.153 OA
ATOM     11  O   UNL     1      -0.577   1.035  -2.802  0.00  0.00    -0.153 OA
BRANCH   9  14
ATOM     12  C   UNL     1      -0.018   1.503   0.010  0.00  0.00    +0.071 C 
ATOM     13  C   UNL     1       0.002  -0.004   0.002  0.00  0.00    +0.107 A 
ATOM     14  C   UNL     1       0.008  -0.824  -1.141  0.00  0.00    +0.170 A 
ATOM     15  C   UNL     1       0.027  -2.108  -0.735  0.00  0.00    +0.161 A 
ATOM     16  O   UNL     1       0.034  -2.119   0.606  0.00  0.00    -0.358 OA
ATOM     17  N   UNL     1       0.023  -0.775   1.052  0.00  0.00    -0.081 NA
ATOM     18  C   UNL     1       0.039  -3.320  -1.631  0.00  0.00    +0.091 C 
ENDBRANCH   9  14
ENDBRANCH   1   9
BRANCH   5  19
ATOM     19  C   UNL     1       4.192   0.295  -6.673  0.00  0.00    +0.019 C 
BRANCH  19  20
ATOM     20  C   UNL     1       4.984   1.569  -6.818  0.00  0.00    +0.204 C 
ATOM     21  O   UNL     1       4.861   2.455  -6.001  0.00  0.00    -0.277 OA
ATOM     22  N   UNL     1       5.830   1.722  -7.857  0.00  0.00    -0.242 N 
ATOM     23  C   UNL     1       6.538   2.861  -7.986  0.00  0.00    +0.306 C 
ATOM     24  O   UNL     1       6.415   3.750  -7.167  0.00  0.00    -0.252 OA
ATOM     25  N   UNL     1       7.383   3.015  -9.025  0.00  0.00    -0.299 N 
ATOM     26  H   UNL     1       5.928   1.013  -8.511  0.00  0.00    +0.159 HD
ATOM     27  H   UNL     1       7.482   2.305  -9.679  0.00  0.00    +0.150 HD
BRANCH  25  28
ATOM     28  C   UNL     1       8.154   4.253  -9.165  0.00  0.00    +0.111 C 
BRANCH  28  29
ATOM     29  C   UNL     1       9.029   4.170 -10.418  0.00  0.00    +0.061 C 
BRANCH  29  30
ATOM     30  C   UNL     1       9.821   5.444 -10.562  0.00  0.00    -0.009 A 
ATOM     31  C   UNL     1      11.050   5.744 -10.077  0.00  0.00    +0.011 A 
ATOM     32  C   UNL     1      11.588   6.990 -10.338  0.00  0.00    +0.008 A 
ATOM     33  C   UNL     1      10.870   7.876 -11.072  0.00  0.00    +0.045 A 
ATOM     34  S   UNL     1       9.387   6.946 -11.424  0.00  0.00    -0.102 S 
ENDBRANCH  29  30
ENDBRANCH  28  29
ENDBRANCH  25  28
ENDBRANCH  19  20
ENDBRANCH   5  19
TORSDOF 7
