REMARK  Name = ZINC08856091
REMARK  7 active torsions:
REMARK  status: ('A' for Active; 'I' for Inactive)
REMARK    1  A    between atoms: C_1  and  O_2
REMARK    2  A    between atoms: O_2  and  C_3
REMARK    3  A    between atoms: C_3  and  C_5
REMARK    4  A    between atoms: C_8  and  C_11
REMARK    5  A    between atoms: C_14  and  C_25
REMARK    6  A    between atoms: C_20  and  N_24
REMARK    7  A    between atoms: C_21  and  C_22
REMARK                            x       y       z     vdW  Elec       q    Type
REMARK                         _______ _______ _______ _____ _____    ______ ____
ROOT
ATOM      1  C   UNL     1       0.744  -6.889  -1.167  0.00  0.00    +0.101 C 
ATOM      2  C   UNL     1       2.220  -7.026  -1.435  0.00  0.00    +0.050 A 
ATOM      3  C   UNL     1       3.294  -6.785  -0.587  0.00  0.00    +0.077 A 
ATOM      4  N   UNL     1       4.399  -7.036  -1.248  0.00  0.00    -0.175 NA
ATOM      5  N   UNL     1       4.056  -7.447  -2.546  0.00  0.00    -0.246 N 
ATOM      6  H   UNL     1       4.676  -7.696  -3.249  0.00  0.00    +0.192 HD
ATOM      7  C   UNL     1       2.717  -7.435  -2.641  0.00  0.00    +0.222 A 
ATOM      8  O   UNL     1       1.919  -7.754  -3.690  0.00  0.00    -0.423 OA
ATOM      9  C   UNL     1       0.604  -7.925  -3.446  0.00  0.00    +0.200 C 
ATOM     10  C   UNL     1      -0.004  -7.549  -2.298  0.00  0.00    +0.098 C 
ENDROOT
BRANCH   3  11
ATOM     11  C   UNL     1       3.205  -6.317   0.842  0.00  0.00    +0.016 C 
ATOM     12  C   UNL     1       4.594  -6.362   1.481  0.00  0.00    +0.016 C 
ATOM     13  C   UNL     1       4.504  -5.886   2.933  0.00  0.00    -0.010 C 
ATOM     14  C   UNL     1       3.555  -6.801   3.711  0.00  0.00    +0.007 C 
ATOM     15  C   UNL     1       2.165  -6.755   3.072  0.00  0.00    -0.010 C 
ATOM     16  C   UNL     1       2.256  -7.231   1.620  0.00  0.00    +0.016 C 
ATOM     17  C   UNL     1       1.634  -5.321   3.107  0.00  0.00    +0.007 C 
ATOM     18  C   UNL     1       2.583  -4.407   2.329  0.00  0.00    -0.010 C 
ATOM     19  C   UNL     1       3.973  -4.452   2.967  0.00  0.00    +0.007 C 
ATOM     20  C   UNL     1       2.674  -4.882   0.877  0.00  0.00    +0.016 C 
ENDBRANCH   3  11
BRANCH   1  24
ATOM     21  C   UNL     1      -0.309  -2.749  -0.962  0.00  0.00    +0.059 A 
ATOM     22  C   UNL     1      -0.871  -3.661  -0.066  0.00  0.00    +0.015 A 
ATOM     23  C   UNL     1      -0.527  -4.995  -0.138  0.00  0.00    +0.005 A 
ATOM     24  C   UNL     1       0.373  -5.430  -1.094  0.00  0.00    -0.035 A 
ATOM     25  C   UNL     1       0.935  -4.532  -1.984  0.00  0.00    +0.005 A 
ATOM     26  C   UNL     1       0.595  -3.196  -1.928  0.00  0.00    +0.015 A 
BRANCH  21  27
ATOM     27  C   UNL     1      -0.672  -1.319  -0.891  0.00  0.00    +0.339 C 
ATOM     28  O   UNL     1      -0.185  -0.529  -1.674  0.00  0.00    -0.245 OA
BRANCH  27  30
ATOM     29  C   UNL     1      -1.850   0.505   0.053  0.00  0.00    +0.280 C 
ATOM     30  O   UNL     1      -1.544  -0.891   0.043  0.00  0.00    -0.464 OA
ENDBRANCH  27  30
ENDBRANCH  21  27
ENDBRANCH   1  24
BRANCH   9  31
ATOM     31  N   UNL     1      -0.163  -8.513  -4.421  0.00  0.00    -0.328 N 
ATOM     32  H   UNL     1       0.244  -8.793  -5.255  0.00  0.00    +0.145 HD
ATOM     33  H   UNL     1      -1.112  -8.649  -4.274  0.00  0.00    +0.145 HD
ENDBRANCH   9  31
BRANCH  10  34
ATOM     34  C   UNL     1      -1.409  -7.786  -2.151  0.00  0.00    +0.101 C 
ATOM     35  N   UNL     1      -2.523  -7.974  -2.034  0.00  0.00    -0.191 NA
ENDBRANCH  10  34
TORSDOF 6
