REMARK  Name = ZINC66994411
REMARK  6 active torsions:
REMARK  status: ('A' for Active; 'I' for Inactive)
REMARK    1  A    between atoms: C_2  and  C_13
REMARK    2  A    between atoms: C_13  and  N_14
REMARK    3  A    between atoms: N_14  and  C_15
REMARK    4  A    between atoms: C_15  and  C_16
REMARK    5  A    between atoms: C_16  and  C_17
REMARK    6  A    between atoms: C_17  and  C_18
REMARK                            x       y       z     vdW  Elec       q    Type
REMARK                         _______ _______ _______ _____ _____    ______ ____
ROOT
ATOM      1  N   UNL     1       1.224   4.001   1.396  0.00  0.00    +0.382 N 
ATOM      2  H   UNL     1       0.400   3.673   1.878  0.00  0.00    -0.085 HD
ATOM      3  H   UNL     1       2.047   3.651   1.863  0.00  0.00    -0.085 HD
ENDROOT
BRANCH   1   4
ATOM      4  C   UNL     1       1.204   3.518   0.009  0.00  0.00    -0.044 C 
BRANCH   4   6
ATOM      5  C   UNL     1      -0.016   1.319   0.009  0.00  0.00    +0.117 A 
ATOM      6  C   UNL     1       1.185   2.011   0.002  0.00  0.00    -0.028 A 
ATOM      7  C   UNL     1       2.367   1.288  -0.014  0.00  0.00    +0.117 A 
ATOM      8  N   UNL     1       2.314  -0.034  -0.020  0.00  0.00    -0.223 NA
ATOM      9  C   UNL     1       1.150  -0.666  -0.013  0.00  0.00    +0.218 A 
ATOM     10  N   UNL     1       0.002  -0.004   0.002  0.00  0.00    -0.223 NA
ATOM     11  N   UNL     1       1.132  -2.050  -0.020  0.00  0.00    -0.295 N 
ATOM     12  C   UNL     1       2.383  -2.824  -0.031  0.00  0.00    +0.136 C 
ATOM     13  C   UNL     1       2.314  -3.870   1.087  0.00  0.00    +0.179 C 
ATOM     14  O   UNL     1       1.103  -4.619   0.956  0.00  0.00    -0.377 OA
ATOM     15  C   UNL     1      -0.086  -3.839   1.099  0.00  0.00    +0.179 C 
ATOM     16  C   UNL     1      -0.139  -2.791  -0.012  0.00  0.00    +0.136 C 
ENDBRANCH   4   6
ENDBRANCH   1   4
BRANCH   1  17
ATOM     17  C   UNL     1       1.243   5.469   1.403  0.00  0.00    -0.082 C 
BRANCH  17  18
ATOM     18  C   UNL     1       1.263   5.972   2.848  0.00  0.00    -0.011 C 
BRANCH  18  19
ATOM     19  C   UNL     1       1.283   7.502   2.856  0.00  0.00    +0.074 C 
BRANCH  19  20
ATOM     20  C   UNL     1       1.303   7.997   4.279  0.00  0.00    +0.133 A 
ATOM     21  N   UNL     1       0.262   8.260   5.024  0.00  0.00    -0.134 NA
ATOM     22  N   UNL     1       0.648   8.655   6.187  0.00  0.00    -0.134 NA
ATOM     23  C   UNL     1       1.950   8.657   6.236  0.00  0.00    +0.133 A 
ATOM     24  N   UNL     1       2.400   8.247   5.027  0.00  0.00    -0.315 N 
ATOM     25  C   UNL     1       3.799   8.120   4.616  0.00  0.00    +0.125 C 
ATOM     26  C   UNL     1       4.665   7.826   5.843  0.00  0.00    +0.022 C 
ATOM     27  C   UNL     1       5.129   9.139   6.473  0.00  0.00    +0.002 C 
ATOM     28  C   UNL     1       3.931   9.961   6.937  0.00  0.00    +0.008 C 
ATOM     29  C   UNL     1       2.817   9.030   7.410  0.00  0.00    +0.076 C 
ENDBRANCH  19  20
ENDBRANCH  18  19
ENDBRANCH  17  18
ENDBRANCH   1  17
TORSDOF 6
