REMARK  Name = ZINC44243563
REMARK  3 active torsions:
REMARK  status: ('A' for Active; 'I' for Inactive)
REMARK    1  A    between atoms: C_2  and  S_8
REMARK    2  A    between atoms: S_8  and  N_11
REMARK    3  A    between atoms: N_11  and  C_12
REMARK                            x       y       z     vdW  Elec       q    Type
REMARK                         _______ _______ _______ _____ _____    ______ ____
ROOT
ATOM      1  N   UNL     1       1.257   4.302   1.595  0.00  0.00    -0.187 NA
ATOM      2  H   UNL     1       0.509   4.799   1.962  0.00  0.00    +0.148 HD
ENDROOT
BRANCH   1   3
ATOM      3  C   UNL     1       2.408   3.978   2.440  0.00  0.00    +0.074 C 
ATOM      4  C   UNL     1       2.123   2.692   3.222  0.00  0.00    +0.001 C 
ATOM      5  C   UNL     1       3.311   2.376   4.133  0.00  0.00    -0.080 C 
ATOM      6  N   UNL     1       3.493   3.465   5.102  0.00  0.00    +0.383 N 
ATOM      7  C   UNL     1       3.771   4.715   4.392  0.00  0.00    -0.067 C 
ATOM      8  C   UNL     1       2.655   5.122   3.430  0.00  0.00    +0.008 C 
ATOM      9  C   UNL     1       4.229   5.855   5.312  0.00  0.00    -0.012 C 
ATOM     10  C   UNL     1       5.665   5.351   5.086  0.00  0.00    -0.003 C 
ATOM     11  C   UNL     1       5.167   4.762   3.756  0.00  0.00    -0.012 C 
ATOM     12  H   UNL     1       2.654   3.570   5.651  0.00  0.00    -0.085 HD
ATOM     13  H   UNL     1       4.267   3.245   5.711  0.00  0.00    -0.085 HD
ENDBRANCH   1   3
BRANCH   1  14
ATOM     14  S   UNL     1       1.231   3.821   0.010  0.00  0.00    +0.060 S 
ATOM     15  O   UNL     1       2.480   4.203  -0.550  0.00  0.00    -0.153 OA
ATOM     16  O   UNL     1      -0.010   4.256  -0.527  0.00  0.00    -0.153 OA
BRANCH  14  18
ATOM     17  C   UNL     1      -0.017   1.383   0.010  0.00  0.00    +0.046 A 
ATOM     18  C   UNL     1       1.194   2.059   0.002  0.00  0.00    +0.124 A 
ATOM     19  C   UNL     1       2.370   1.334  -0.013  0.00  0.00    +0.139 A 
ATOM     20  N   UNL     1       2.351   0.016  -0.020  0.00  0.00    -0.260 NA
ATOM     21  C   UNL     1       1.219  -0.661  -0.013  0.00  0.00    +0.126 A 
ATOM     22  C   UNL     1       0.002  -0.004   0.002  0.00  0.00    +0.038 A 
ATOM     23 BR   UNL     1      -1.615  -0.984   0.013  0.00  0.00    -0.049 Br
ENDBRANCH  14  18
ENDBRANCH   1  14
TORSDOF 3
