REMARK  Name = ZINC41584541
REMARK  16 active torsions:
REMARK  status: ('A' for Active; 'I' for Inactive)
REMARK    1  A    between atoms: C_1  and  C_2
REMARK    2  A    between atoms: C_2  and  C_3
REMARK    3  A    between atoms: C_3  and  N_4
REMARK    4  A    between atoms: N_4  and  C_5
REMARK    5  A    between atoms: N_4  and  C_8
REMARK    6  A    between atoms: C_5  and  C_6
REMARK    7  A    between atoms: C_6  and  C_7
REMARK    8  A    between atoms: C_8  and  C_9
REMARK    9  A    between atoms: C_10  and  O_36
REMARK   10  A    between atoms: C_16  and  C_32
REMARK   11  A    between atoms: C_17  and  O_20
REMARK   12  A    between atoms: O_20  and  C_21
REMARK   13  A    between atoms: C_24  and  C_27
REMARK   14  A    between atoms: C_27  and  O_29
REMARK   15  A    between atoms: O_29  and  C_30
REMARK   16  A    between atoms: C_30  and  C_31
REMARK                            x       y       z     vdW  Elec       q    Type
REMARK                         _______ _______ _______ _____ _____    ______ ____
ROOT
ATOM      1  C   UNL     1       3.319  -1.811  -1.994  0.00  0.00    +0.020 A 
ATOM      2  C   UNL     1       3.756  -0.608  -2.524  0.00  0.00    +0.122 A 
ATOM      3  C   UNL     1       5.024  -0.119  -2.220  0.00  0.00    +0.046 A 
ATOM      4  C   UNL     1       5.856  -0.820  -1.394  0.00  0.00    +0.019 A 
ATOM      5  C   UNL     1       5.431  -2.034  -0.852  0.00  0.00    +0.068 A 
ATOM      6  C   UNL     1       4.150  -2.533  -1.149  0.00  0.00    +0.144 A 
ATOM      7  O   UNL     1       3.747  -3.704  -0.615  0.00  0.00    -0.447 OA
ATOM      8  C   UNL     1       4.525  -4.424   0.203  0.00  0.00    +0.254 A 
ATOM      9  C   UNL     1       5.766  -4.037   0.558  0.00  0.00    +0.222 A 
ATOM     10  C   UNL     1       6.297  -2.821   0.042  0.00  0.00    +0.235 A 
ATOM     11  O   UNL     1       7.417  -2.439   0.340  0.00  0.00    -0.283 OA
ENDROOT
BRANCH   8  12
ATOM     12  C   UNL     1       3.989  -5.722   0.751  0.00  0.00    +0.454 C 
ATOM     13  F   UNL     1       4.897  -6.249   1.675  0.00  0.00    -0.163 F 
ATOM     14  F   UNL     1       2.762  -5.491   1.382  0.00  0.00    -0.163 F 
ATOM     15  F   UNL     1       3.810  -6.632  -0.297  0.00  0.00    -0.163 F 
ENDBRANCH   8  12
BRANCH   2  16
ATOM     16  O   UNL     1       2.941   0.101  -3.346  0.00  0.00    -0.506 OA
ATOM     17  H   UNL     1       2.372   0.734  -2.887  0.00  0.00    +0.292 HD
ENDBRANCH   2  16
BRANCH   1  18
ATOM     18  C   UNL     1       1.945  -2.331  -2.330  0.00  0.00    -0.036 C 
BRANCH  18  19
ATOM     19  N   UNL     1       0.977  -1.823  -1.349  0.00  0.00    +0.383 N 
ATOM     20  H   UNL     1       1.282  -2.066  -0.418  0.00  0.00    -0.081 HD
BRANCH  19  21
ATOM     21  C   UNL     1       0.879  -0.362  -1.467  0.00  0.00    -0.079 C 
BRANCH  21  23
ATOM     22  C   UNL     1      -0.055   1.705  -0.421  0.00  0.00    +0.002 C 
ATOM     23  C   UNL     1      -0.057   0.176  -0.383  0.00  0.00    -0.022 C 
ENDBRANCH  21  23
ENDBRANCH  19  21
BRANCH  19  24
ATOM     24  C   UNL     1      -0.340  -2.424  -1.604  0.00  0.00    -0.079 C 
BRANCH  24  25
ATOM     25  C   UNL     1      -0.270  -3.931  -1.349  0.00  0.00    -0.022 C 
ATOM     26  C   UNL     1      -1.669  -4.537  -1.486  0.00  0.00    +0.002 C 
ENDBRANCH  24  25
ENDBRANCH  19  24
ENDBRANCH  18  19
ENDBRANCH   1  18
BRANCH   9  27
ATOM     27  O   UNL     1       6.512  -4.810   1.395  0.00  0.00    -0.448 OA
BRANCH  27  28
ATOM     28  C   UNL     1       6.801  -4.319   2.626  0.00  0.00    +0.129 A 
ATOM     29  C   UNL     1       6.236  -3.119   3.045  0.00  0.00    +0.047 A 
ATOM     30  C   UNL     1       6.527  -2.618   4.293  0.00  0.00    +0.018 A 
ATOM     31  C   UNL     1       7.392  -3.317   5.141  0.00  0.00    +0.059 A 
ATOM     32  C   UNL     1       7.958  -4.523   4.716  0.00  0.00    +0.018 A 
ATOM     33  C   UNL     1       7.657  -5.020   3.468  0.00  0.00    +0.047 A 
BRANCH  31  34
ATOM     34  C   UNL     1       7.707  -2.783   6.479  0.00  0.00    +0.339 C 
ATOM     35  O   UNL     1       7.214  -1.735   6.846  0.00  0.00    -0.245 OA
BRANCH  34  36
ATOM     36  O   UNL     1       8.540  -3.458   7.295  0.00  0.00    -0.461 OA
BRANCH  36  37
ATOM     37  C   UNL     1       8.801  -2.883   8.577  0.00  0.00    +0.229 C 
ATOM     38  C   UNL     1       9.761  -3.785   9.355  0.00  0.00    +0.048 C 
ENDBRANCH  36  37
ENDBRANCH  34  36
ENDBRANCH  31  34
ENDBRANCH  27  28
ENDBRANCH   9  27
TORSDOF 13
