REMARK  Name = ZINC09051880
REMARK  9 active torsions:
REMARK  status: ('A' for Active; 'I' for Inactive)
REMARK    1  A    between atoms: C_1  and  C_2
REMARK    2  A    between atoms: C_3  and  C_31
REMARK    3  A    between atoms: N_4  and  C_25
REMARK    4  A    between atoms: C_5  and  N_9
REMARK    5  A    between atoms: C_6  and  C_7
REMARK    6  A    between atoms: C_10  and  C_12
REMARK    7  A    between atoms: C_12  and  N_57
REMARK    8  A    between atoms: C_20  and  C_22
REMARK    9  A    between atoms: C_25  and  C_26
REMARK                            x       y       z     vdW  Elec       q    Type
REMARK                         _______ _______ _______ _____ _____    ______ ____
ROOT
ATOM      1  N   UNL     1       7.491   1.321   1.644  0.00  0.00    -0.272 N 
ATOM      2  C   UNL     1       6.285   1.439   1.054  0.00  0.00    +0.202 C 
ATOM      3  O   UNL     1       5.376   1.992   1.637  0.00  0.00    -0.278 OA
ATOM      4  H   UNL     1       8.216   0.875   1.179  0.00  0.00    +0.156 HD
ENDROOT
BRANCH   1   9
ATOM      5  C   UNL     1       7.101   2.327   6.581  0.00  0.00    +0.047 C 
ATOM      6  C   UNL     1       7.546   2.312   5.141  0.00  0.00    -0.011 A 
ATOM      7  C   UNL     1       8.556   3.017   4.607  0.00  0.00    +0.022 A 
ATOM      8  N   UNL     1       8.653   2.730   3.272  0.00  0.00    -0.324 N 
ATOM      9  C   UNL     1       7.694   1.836   2.916  0.00  0.00    +0.124 A 
ATOM     10  C   UNL     1       6.959   1.524   4.051  0.00  0.00    +0.095 A 
ATOM     11  C   UNL     1       9.449   3.970   5.360  0.00  0.00    +0.064 C 
BRANCH  10  12
ATOM     12  C   UNL     1       5.853   0.619   4.139  0.00  0.00    +0.103 C 
ATOM     13  N   UNL     1       4.975  -0.098   4.210  0.00  0.00    -0.191 NA
ENDBRANCH  10  12
BRANCH   8  14
ATOM     14  C   UNL     1       9.643   3.306   2.359  0.00  0.00    +0.197 C 
BRANCH  14  15
ATOM     15  C   UNL     1       9.143   4.632   1.847  0.00  0.00    +0.124 A 
ATOM     16  C   UNL     1       9.356   5.829   2.421  0.00  0.00    +0.046 A 
ATOM     17  C   UNL     1       8.715   6.793   1.611  0.00  0.00    +0.041 A 
ATOM     18  C   UNL     1       8.140   6.127   0.593  0.00  0.00    +0.195 A 
ATOM     19  O   UNL     1       8.402   4.818   0.741  0.00  0.00    -0.466 OA
ENDBRANCH  14  15
ENDBRANCH   8  14
ENDBRANCH   1   9
BRANCH   2  20
ATOM     20  C   UNL     1       6.065   0.884  -0.330  0.00  0.00    +0.020 C 
BRANCH  20  29
ATOM     21  C   UNL     1       3.733   0.384   0.088  0.00  0.00    -0.072 C 
ATOM     22  C   UNL     1       2.368   0.348  -0.620  0.00  0.00    +0.024 C 
ATOM     23  C   UNL     1       2.061   1.734  -1.086  0.00  0.00    -0.010 A 
ATOM     24  C   UNL     1       2.932   2.779  -1.163  0.00  0.00    -0.051 A 
ATOM     25  C   UNL     1       2.417   3.986  -1.628  0.00  0.00    +0.010 A 
ATOM     26  C   UNL     1       1.112   4.076  -1.977  0.00  0.00    +0.045 A 
ATOM     27  S   UNL     1       0.530   2.416  -1.657  0.00  0.00    -0.101 S 
ATOM     28  C   UNL     1       4.386   2.578  -0.747  0.00  0.00    -0.033 C 
ATOM     29  N   UNL     1       4.680   1.126  -0.778  0.00  0.00    +0.390 N 
ATOM     30  H   UNL     1       4.579   0.788  -1.743  0.00  0.00    -0.080 HD
BRANCH  28  31
ATOM     31  C   UNL     1       5.310   3.288  -1.739  0.00  0.00    -0.020 C 
ATOM     32  C   UNL     1       6.462   4.115  -1.164  0.00  0.00    +0.002 C 
ATOM     33  C   UNL     1       5.253   4.816  -1.788  0.00  0.00    +0.002 C 
ENDBRANCH  28  31
ENDBRANCH  20  29
ENDBRANCH   2  20
TORSDOF 7
