REMARK  Name = ZINC50417229
REMARK  6 active torsions:
REMARK  status: ('A' for Active; 'I' for Inactive)
REMARK    1  A    between atoms: C_1  and  C_2
REMARK    2  A    between atoms: C_2  and  C_4
REMARK    3  A    between atoms: C_2  and  N_10
REMARK    4  A    between atoms: N_8  and  C_9
REMARK    5  A    between atoms: N_10  and  C_11
REMARK    6  A    between atoms: C_14  and  N_21
REMARK                            x       y       z     vdW  Elec       q    Type
REMARK                         _______ _______ _______ _____ _____    ______ ____
ROOT
ATOM      1  C   UNL     1      -0.019  -0.613  -2.402  0.00  0.00    +0.036 A 
ATOM      2  C   UNL     1      -1.361  -0.299  -2.456  0.00  0.00    +0.025 A 
ATOM      3  C   UNL     1      -2.078  -0.430  -3.641  0.00  0.00    +0.025 A 
ATOM      4  C   UNL     1      -1.467  -0.877  -4.793  0.00  0.00    +0.034 A 
ATOM      5  C   UNL     1      -0.097  -1.206  -4.771  0.00  0.00    +0.020 A 
ATOM      6  C   UNL     1       0.634  -1.066  -3.562  0.00  0.00    +0.007 A 
ATOM      7  C   UNL     1       2.001  -1.397  -3.569  0.00  0.00    +0.028 A 
ATOM      8  C   UNL     1       2.563  -1.829  -4.732  0.00  0.00    +0.083 A 
ATOM      9  N   UNL     1       1.857  -1.945  -5.849  0.00  0.00    -0.366 N 
ATOM     10  C   UNL     1       0.576  -1.666  -5.912  0.00  0.00    +0.093 A 
ATOM     11  H   UNL     1       2.304  -2.257  -6.651  0.00  0.00    +0.165 HD
ENDROOT
BRANCH   4  12
ATOM     12  N   UNL     1      -2.200  -1.004  -5.974  0.00  0.00    -0.357 N 
ATOM     13  H   UNL     1      -3.143  -0.777  -5.987  0.00  0.00    +0.142 HD
ATOM     14  H   UNL     1      -1.767  -1.319  -6.783  0.00  0.00    +0.142 HD
ENDBRANCH   4  12
BRANCH   1  15
ATOM     15  N   UNL     1       0.688  -0.476  -1.203  0.00  0.00    -0.334 N 
ATOM     16  H   UNL     1       1.632  -0.695  -1.170  0.00  0.00    +0.147 HD
BRANCH  15  18
ATOM     17  C   UNL     1      -0.019   1.526   0.010  0.00  0.00    +0.036 C 
ATOM     18  C   UNL     1       0.002  -0.004   0.002  0.00  0.00    +0.135 C 
BRANCH  18  19
ATOM     19  C   UNL     1       0.731  -0.503   1.223  0.00  0.00    +0.153 A 
ATOM     20  N   UNL     1       2.022  -0.483   1.415  0.00  0.00    -0.133 NA
ATOM     21  N   UNL     1       2.296  -0.987   2.566  0.00  0.00    -0.138 NA
ATOM     22  C   UNL     1       1.192  -1.353   3.160  0.00  0.00    +0.224 A 
ATOM     23  N   UNL     1       0.167  -1.051   2.327  0.00  0.00    -0.319 N 
ATOM     24  C   UNL     1      -1.260  -1.275   2.568  0.00  0.00    +0.151 C 
ENDBRANCH  18  19
ENDBRANCH  15  18
ENDBRANCH   1  15
TORSDOF 4
