REMARK  Name = ZINC39722427
REMARK  7 active torsions:
REMARK  status: ('A' for Active; 'I' for Inactive)
REMARK    1  A    between atoms: C_1  and  C_2
REMARK    2  A    between atoms: C_2  and  N_3
REMARK    3  A    between atoms: C_4  and  C_27
REMARK    4  A    between atoms: C_8  and  S_10
REMARK    5  A    between atoms: S_10  and  C_11
REMARK    6  A    between atoms: C_11  and  C_12
REMARK    7  A    between atoms: C_20  and  C_24
REMARK                            x       y       z     vdW  Elec       q    Type
REMARK                         _______ _______ _______ _____ _____    ______ ____
ROOT
ATOM      1  S   UNL     1       0.146   0.660  -3.642  0.00  0.00    -0.152 S 
ENDROOT
BRANCH   1   6
ATOM      2  N   UNL     1       0.262  -0.610  -1.257  0.00  0.00    +0.410 N 
ATOM      3  C   UNL     1       0.895  -1.943  -1.134  0.00  0.00    +0.049 C 
ATOM      4  N   UNL     1       0.056  -2.826  -1.986  0.00  0.00    -0.267 NA
ATOM      5  N   UNL     1      -0.283  -1.962  -3.127  0.00  0.00    -0.262 NA
ATOM      6  C   UNL     1      -0.490  -0.623  -2.529  0.00  0.00    +0.077 C 
ATOM      7  H   UNL     1      -0.776  -3.119  -1.495  0.00  0.00    +0.139 HD
ATOM      8  H   UNL     1      -1.119  -2.285  -3.590  0.00  0.00    +0.140 HD
ATOM      9  H   UNL     1       0.969   0.110  -1.281  0.00  0.00    -0.075 HD
BRANCH   3  10
ATOM     10  C   UNL     1       0.868  -2.409   0.299  0.00  0.00    -0.046 A 
ATOM     11  C   UNL     1      -0.305  -2.894   0.847  0.00  0.00    +0.003 A 
ATOM     12  C   UNL     1      -0.330  -3.321   2.161  0.00  0.00    +0.000 A 
ATOM     13  C   UNL     1       0.819  -3.263   2.928  0.00  0.00    +0.000 A 
ATOM     14  C   UNL     1       1.992  -2.778   2.381  0.00  0.00    +0.000 A 
ATOM     15  C   UNL     1       2.018  -2.355   1.065  0.00  0.00    +0.003 A 
ENDBRANCH   3  10
BRANCH   2  17
ATOM     16  C   UNL     1      -1.251   1.025  -0.239  0.00  0.00    -0.017 C 
ATOM     17  C   UNL     1      -0.655  -0.380  -0.132  0.00  0.00    -0.076 C 
ENDBRANCH   2  17
ENDBRANCH   1   6
BRANCH   1  18
ATOM     18  C   UNL     1       1.887   0.210  -3.880  0.00  0.00    +0.143 C 
BRANCH  18  19
ATOM     19  C   UNL     1       2.543   1.210  -4.798  0.00  0.00    +0.120 A 
ATOM     20  N   UNL     1       3.856   1.039  -5.104  0.00  0.00    -0.310 N 
ATOM     21  H   UNL     1       4.342   0.286  -4.732  0.00  0.00    +0.170 HD
ATOM     22  C   UNL     1       4.491   1.908  -5.924  0.00  0.00    +0.259 A 
ATOM     23  O   UNL     1       5.666   1.767  -6.207  0.00  0.00    -0.267 OA
ATOM     24  C   UNL     1       3.704   3.033  -6.461  0.00  0.00    +0.065 A 
ATOM     25  C   UNL     1       4.267   3.981  -7.313  0.00  0.00    +0.016 A 
ATOM     26  C   UNL     1       3.501   5.007  -7.788  0.00  0.00    +0.016 A 
ATOM     27  C   UNL     1       2.152   5.117  -7.426  0.00  0.00    +0.065 A 
ATOM     28  C   UNL     1       1.572   4.181  -6.577  0.00  0.00    +0.043 A 
ATOM     29  C   UNL     1       2.346   3.127  -6.086  0.00  0.00    +0.079 A 
ATOM     30  N   UNL     1       1.824   2.187  -5.259  0.00  0.00    -0.233 NA
BRANCH  27  31
ATOM     31  C   UNL     1       1.340   6.234  -7.951  0.00  0.00    +0.387 C 
ATOM     32  O   UNL     1       1.845   7.060  -8.698  0.00  0.00    -0.241 OA
ATOM     33  O   UNL     1       0.162   6.334  -7.638  0.00  0.00    -0.241 OA
ENDBRANCH  27  31
ENDBRANCH  18  19
ENDBRANCH   1  18
TORSDOF 6
