REMARK  Name = ZINC43959602
REMARK  9 active torsions:
REMARK  status: ('A' for Active; 'I' for Inactive)
REMARK    1  A    between atoms: C_1  and  S_2
REMARK    2  A    between atoms: S_2  and  C_3
REMARK    3  A    between atoms: C_8  and  C_9
REMARK    4  A    between atoms: C_9  and  N_10
REMARK    5  A    between atoms: C_13  and  C_16
REMARK    6  A    between atoms: C_16  and  N_17
REMARK    7  A    between atoms: N_17  and  S_18
REMARK    8  A    between atoms: S_18  and  C_21
REMARK    9  A    between atoms: C_26  and  N_27
REMARK                            x       y       z     vdW  Elec       q    Type
REMARK                         _______ _______ _______ _____ _____    ______ ____
ROOT
ATOM      1  N   UNL     1      -0.711  -3.667  -1.281  0.00  0.00    +0.382 N 
ATOM      2  C   UNL     1      -0.957  -4.314  -2.575  0.00  0.00    -0.078 C 
ATOM      3  C   UNL     1      -2.461  -4.349  -2.854  0.00  0.00    -0.014 C 
ATOM      4  C   UNL     1      -3.162  -5.139  -1.745  0.00  0.00    +0.001 C 
ATOM      5  C   UNL     1      -2.838  -4.498  -0.393  0.00  0.00    -0.014 C 
ATOM      6  C   UNL     1      -1.320  -4.458  -0.204  0.00  0.00    -0.078 C 
ATOM      7  H   UNL     1      -1.115  -2.742  -1.287  0.00  0.00    -0.081 HD
ENDROOT
BRANCH   1   8
ATOM      8  C   UNL     1       0.737  -3.566  -1.053  0.00  0.00    -0.042 C 
BRANCH   8  14
ATOM      9  C   UNL     1       1.261  -1.275  -1.934  0.00  0.00    +0.009 A 
ATOM     10  C   UNL     1       1.829  -0.438  -2.887  0.00  0.00    +0.015 A 
ATOM     11  C   UNL     1       2.470  -0.978  -3.984  0.00  0.00    +0.001 A 
ATOM     12  C   UNL     1       2.548  -2.350  -4.135  0.00  0.00    +0.000 A 
ATOM     13  C   UNL     1       1.983  -3.187  -3.190  0.00  0.00    +0.003 A 
ATOM     14  C   UNL     1       1.345  -2.654  -2.087  0.00  0.00    -0.051 A 
BRANCH   9  16
ATOM     15  C   UNL     1       0.587   1.202  -0.772  0.00  0.00    +0.090 C 
ATOM     16  S   UNL     1       0.441  -0.590  -0.533  0.00  0.00    -0.128 S 
ENDBRANCH   9  16
ENDBRANCH   8  14
ENDBRANCH   1   8
BRANCH   4  17
ATOM     17  C   UNL     1      -4.675  -5.111  -1.975  0.00  0.00    +0.109 C 
BRANCH  17  18
ATOM     18  N   UNL     1      -5.335  -5.964  -0.984  0.00  0.00    -0.190 NA
ATOM     19  H   UNL     1      -4.821  -6.621  -0.490  0.00  0.00    +0.148 HD
BRANCH  18  20
ATOM     20  S   UNL     1      -6.960  -5.806  -0.707  0.00  0.00    +0.061 S 
ATOM     21  O   UNL     1      -7.310  -6.807   0.239  0.00  0.00    -0.153 OA
ATOM     22  O   UNL     1      -7.200  -4.424  -0.478  0.00  0.00    -0.153 OA
BRANCH  20  23
ATOM     23  C   UNL     1      -7.787  -6.219  -2.207  0.00  0.00    +0.135 A 
ATOM     24  C   UNL     1      -8.544  -5.268  -2.864  0.00  0.00    +0.031 A 
ATOM     25  C   UNL     1      -9.193  -5.592  -4.040  0.00  0.00    +0.002 A 
ATOM     26  C   UNL     1      -9.084  -6.868  -4.560  0.00  0.00    +0.002 A 
ATOM     27  C   UNL     1      -8.326  -7.820  -3.904  0.00  0.00    +0.035 A 
ATOM     28  C   UNL     1      -7.674  -7.494  -2.729  0.00  0.00    +0.152 A 
BRANCH  28  29
ATOM     29  N   UNL     1      -6.858  -8.511  -2.029  0.00  0.00    +0.058 N 
ATOM     30  O   UNL     1      -6.861  -9.658  -2.413  0.00  0.00    -0.126 OA
ATOM     31  O   UNL     1      -6.188  -8.196  -1.073  0.00  0.00    -0.126 OA
ENDBRANCH  28  29
ENDBRANCH  20  23
ENDBRANCH  18  20
ENDBRANCH  17  18
ENDBRANCH   4  17
TORSDOF 8
