REMARK  Name = ZINC17046513
REMARK  4 active torsions:
REMARK  status: ('A' for Active; 'I' for Inactive)
REMARK    1  A    between atoms: C_7  and  C_11
REMARK    2  A    between atoms: C_7  and  O_31
REMARK    3  A    between atoms: C_16  and  C_20
REMARK    4  A    between atoms: C_20  and  O_30
REMARK                            x       y       z     vdW  Elec       q    Type
REMARK                         _______ _______ _______ _____ _____    ______ ____
ROOT
ATOM      1  C   UNL     1       4.156  -1.188  -1.302  0.00  0.00    +0.101 C 
ATOM      2  C   UNL     1       5.633  -1.594  -1.302  0.00  0.00    +0.015 C 
ATOM      3  C   UNL     1       5.974  -2.267  -2.632  0.00  0.00    +0.002 C 
ATOM      4  C   UNL     1       5.796  -1.274  -3.782  0.00  0.00    +0.015 C 
ATOM      5  C   UNL     1       4.323  -0.860  -3.873  0.00  0.00    +0.101 C 
ATOM      6  C   UNL     1       3.887  -0.336  -2.522  0.00  0.00    +0.147 C 
ATOM      7  O   UNL     1       3.338   0.735  -2.422  0.00  0.00    -0.297 OA
ENDROOT
BRANCH   1  14
ATOM      8  C   UNL     1       0.002  -0.004   0.002  0.00  0.00    +0.000 A 
ATOM      9  C   UNL     1      -0.017   1.379   0.010  0.00  0.00    +0.002 A 
ATOM     10  C   UNL     1       1.164   2.092   0.002  0.00  0.00    +0.024 A 
ATOM     11  C   UNL     1       2.386   1.423  -0.013  0.00  0.00    +0.040 A 
ATOM     12  C   UNL     1       2.392   0.034  -0.021  0.00  0.00    +0.015 A 
ATOM     13  C   UNL     1       1.212  -0.676  -0.013  0.00  0.00    +0.009 A 
ATOM     14  C   UNL     1       3.843  -0.386  -0.037  0.00  0.00    +0.178 C 
ATOM     15  C   UNL     1       4.604   0.923  -0.037  0.00  0.00    +0.254 C 
ATOM     16  O   UNL     1       5.810   1.056  -0.048  0.00  0.00    -0.272 OA
ATOM     17  N   UNL     1       3.693   1.911  -0.023  0.00  0.00    -0.282 N 
ATOM     18  H   UNL     1       3.918   2.854  -0.020  0.00  0.00    +0.155 HD
BRANCH  14  19
ATOM     19  O   UNL     1       4.157  -1.147   1.131  0.00  0.00    -0.374 OA
ATOM     20  H   UNL     1       4.007  -0.675   1.961  0.00  0.00    +0.211 HD
ENDBRANCH  14  19
ENDBRANCH   1  14
BRANCH   5  21
ATOM     21  C   UNL     1       4.158   0.236  -4.927  0.00  0.00    +0.178 C 
ATOM     22  C   UNL     1       2.767   0.824  -4.866  0.00  0.00    +0.015 A 
ATOM     23  C   UNL     1       1.513   0.284  -5.050  0.00  0.00    +0.009 A 
ATOM     24  C   UNL     1       0.392   1.086  -4.928  0.00  0.00    +0.000 A 
ATOM     25  C   UNL     1       0.535   2.428  -4.622  0.00  0.00    +0.002 A 
ATOM     26  C   UNL     1       1.790   2.971  -4.439  0.00  0.00    +0.024 A 
ATOM     27  C   UNL     1       2.924   2.169  -4.560  0.00  0.00    +0.040 A 
ATOM     28  N   UNL     1       4.278   2.478  -4.424  0.00  0.00    -0.282 N 
ATOM     29  C   UNL     1       5.066   1.408  -4.622  0.00  0.00    +0.254 C 
ATOM     30  O   UNL     1       6.277   1.385  -4.566  0.00  0.00    -0.272 OA
ATOM     31  H   UNL     1       4.612   3.363  -4.210  0.00  0.00    +0.155 HD
BRANCH  21  32
ATOM     32  O   UNL     1       4.429  -0.281  -6.232  0.00  0.00    -0.374 OA
ATOM     33  H   UNL     1       4.339   0.371  -6.940  0.00  0.00    +0.211 HD
ENDBRANCH  21  32
ENDBRANCH   5  21
TORSDOF 4
