REMARK  Name = ZINC20603170
REMARK  7 active torsions:
REMARK  status: ('A' for Active; 'I' for Inactive)
REMARK    1  A    between atoms: C_1  and  N_2
REMARK    2  A    between atoms: C_5  and  C_7
REMARK    3  A    between atoms: C_9  and  C_27
REMARK    4  A    between atoms: C_11  and  C_24
REMARK    5  A    between atoms: N_13  and  C_16
REMARK    6  A    between atoms: C_19  and  O_22
REMARK    7  A    between atoms: O_22  and  C_23
REMARK                            x       y       z     vdW  Elec       q    Type
REMARK                         _______ _______ _______ _____ _____    ______ ____
ROOT
ATOM      1  C   UNL     1       4.070  -0.570  -0.041  0.00  0.00    +0.094 A 
ATOM      2  C   UNL     1       3.328  -1.756  -0.040  0.00  0.00    +0.040 A 
ATOM      3  C   UNL     1       1.962  -1.699  -0.026  0.00  0.00    +0.032 A 
ATOM      4  C   UNL     1       1.349  -0.437  -0.013  0.00  0.00    +0.051 A 
ATOM      5  C   UNL     1       0.002  -0.004   0.002  0.00  0.00    +0.076 A 
ATOM      6  N   UNL     1      -0.016   1.298   0.009  0.00  0.00    -0.169 NA
ATOM      7  N   UNL     1       1.295   1.790  -0.001  0.00  0.00    -0.214 N 
ATOM      8  C   UNL     1       2.154   0.720  -0.015  0.00  0.00    +0.165 A 
ATOM      9  N   UNL     1       3.475   0.612  -0.028  0.00  0.00    -0.226 NA
ENDROOT
BRANCH   1  14
ATOM     10  C   UNL     1       8.769  -2.287  -0.096  0.00  0.00    +0.172 C 
ATOM     11  N   UNL     1       7.627  -1.369  -0.080  0.00  0.00    -0.274 N 
ATOM     12  C   UNL     1       7.694  -0.020  -0.073  0.00  0.00    +0.108 A 
ATOM     13  C   UNL     1       6.432   0.461  -0.058  0.00  0.00    +0.051 A 
ATOM     14  C   UNL     1       5.551  -0.639  -0.056  0.00  0.00    +0.111 A 
ATOM     15  N   UNL     1       6.276  -1.739  -0.063  0.00  0.00    -0.170 NA
ENDBRANCH   1  14
BRANCH   7  16
ATOM     16  C   UNL     1       1.665   3.142   0.003  0.00  0.00    +0.068 A 
ATOM     17  C   UNL     1       2.803   3.549   0.688  0.00  0.00    +0.031 A 
ATOM     18  C   UNL     1       3.170   4.880   0.687  0.00  0.00    +0.048 A 
ATOM     19  C   UNL     1       2.397   5.812   0.010  0.00  0.00    +0.120 A 
ATOM     20  C   UNL     1       1.258   5.407  -0.670  0.00  0.00    +0.048 A 
ATOM     21  C   UNL     1       0.892   4.076  -0.674  0.00  0.00    +0.031 A 
BRANCH  19  22
ATOM     22  O   UNL     1       2.757   7.123   0.014  0.00  0.00    -0.495 OA
ATOM     23  C   UNL     1       3.941   7.469   0.734  0.00  0.00    +0.277 C 
ENDBRANCH  19  22
ENDBRANCH   7  16
BRANCH   5  24
ATOM     24  C   UNL     1      -1.210  -0.900   0.008  0.00  0.00    +0.040 C 
ATOM     25  C   UNL     1      -2.577  -0.240  -0.182  0.00  0.00    +0.010 C 
ATOM     26  C   UNL     1      -2.171  -0.780   1.192  0.00  0.00    +0.010 C 
ENDBRANCH   5  24
BRANCH   3  27
ATOM     27  C   UNL     1       1.136  -2.959  -0.025  0.00  0.00    +0.372 C 
ATOM     28  F   UNL     1       0.340  -2.994   1.124  0.00  0.00    -0.204 F 
ATOM     29  F   UNL     1       0.319  -2.981  -1.160  0.00  0.00    -0.204 F 
ENDBRANCH   3  27
TORSDOF 5
