REMARK  Name = ZINC20588973
REMARK  10 active torsions:
REMARK  status: ('A' for Active; 'I' for Inactive)
REMARK    1  A    between atoms: C_1  and  C_2
REMARK    2  A    between atoms: C_2  and  O_3
REMARK    3  A    between atoms: O_3  and  C_4
REMARK    4  A    between atoms: C_7  and  C_10
REMARK    5  A    between atoms: N_12  and  C_13
REMARK    6  A    between atoms: C_13  and  C_15
REMARK    7  A    between atoms: C_13  and  C_19
REMARK    8  A    between atoms: C_15  and  C_16
REMARK    9  A    between atoms: C_16  and  S_17
REMARK   10  A    between atoms: S_17  and  C_18
REMARK                            x       y       z     vdW  Elec       q    Type
REMARK                         _______ _______ _______ _____ _____    ______ ____
ROOT
ATOM      1  C   UNL     1      -4.790  -8.306  -0.559  0.00  0.00    +0.236 C 
ATOM      2  O   UNL     1      -5.580  -7.391  -0.663  0.00  0.00    -0.274 OA
ATOM      3  N   UNL     1      -5.148  -9.551  -0.930  0.00  0.00    -0.300 N 
ATOM      4  C   UNL     1      -4.245 -10.688  -0.704  0.00  0.00    +0.110 C 
ATOM      5  C   UNL     1      -5.002 -11.772   0.070  0.00  0.00    +0.047 C 
ATOM      6  C   UNL     1      -6.287 -12.126  -0.679  0.00  0.00    +0.064 C 
ATOM      7  C   UNL     1      -7.182 -10.891  -0.785  0.00  0.00    +0.047 C 
ATOM      8  C   UNL     1      -6.450  -9.798  -1.563  0.00  0.00    +0.110 C 
ATOM      9  C   UNL     1      -7.017 -13.221   0.052  0.00  0.00    +0.057 A 
ATOM     10  C   UNL     1      -7.568 -14.294  -0.559  0.00  0.00    +0.039 A 
ATOM     11  N   UNL     1      -8.127 -15.061   0.376  0.00  0.00    -0.349 N 
ATOM     12  C   UNL     1      -7.948 -14.507   1.548  0.00  0.00    +0.171 A 
ATOM     13  N   UNL     1      -7.257 -13.354   1.383  0.00  0.00    -0.348 N 
ATOM     14  H   UNL     1      -6.986 -12.739   2.083  0.00  0.00    +0.166 HD
ATOM     15  C   UNL     1      -7.515 -14.506  -2.053  0.00  0.00    +0.070 C 
ATOM     16  C   UNL     1      -7.131 -13.171  -2.705  0.00  0.00    +0.088 C 
ATOM     17  N   UNL     1      -5.953 -12.609  -2.029  0.00  0.00    -0.305 NA
ATOM     18  H   UNL     1      -5.534 -11.877  -2.582  0.00  0.00    +0.123 HD
ATOM     19  H   UNL     1      -8.593 -15.896   0.215  0.00  0.00    +0.166 HD
ENDROOT
BRANCH   1  20
ATOM     20  C   UNL     1      -3.408  -8.049  -0.014  0.00  0.00    +0.160 C 
BRANCH  20  23
ATOM     21  C   UNL     1      -1.731  -6.315  -0.354  0.00  0.00    +0.245 C 
ATOM     22  O   UNL     1      -0.869  -7.162  -0.211  0.00  0.00    -0.270 OA
ATOM     23  N   UNL     1      -3.032  -6.657  -0.273  0.00  0.00    -0.300 N 
ATOM     24  H   UNL     1      -3.719  -5.982  -0.387  0.00  0.00    +0.150 HD
BRANCH  21  28
ATOM     25  C   UNL     1      -0.639  -2.281  -1.106  0.00  0.00    +0.121 A 
ATOM     26  C   UNL     1       0.347  -3.247  -0.943  0.00  0.00    +0.046 A 
ATOM     27  C   UNL     1      -0.003  -4.556  -0.699  0.00  0.00    +0.016 A 
ATOM     28  C   UNL     1      -1.351  -4.913  -0.615  0.00  0.00    +0.037 A 
ATOM     29  C   UNL     1      -2.339  -3.939  -0.779  0.00  0.00    +0.016 A 
ATOM     30  C   UNL     1      -1.981  -2.631  -1.018  0.00  0.00    +0.046 A 
BRANCH  25  31
ATOM     31  O   UNL     1      -0.290  -0.992  -1.346  0.00  0.00    -0.492 OA
BRANCH  31  33
ATOM     32  C   UNL     1       1.303   0.791  -1.699  0.00  0.00    +0.048 C 
ATOM     33  C   UNL     1       1.107  -0.701  -1.424  0.00  0.00    +0.225 C 
ENDBRANCH  31  33
ENDBRANCH  25  31
ENDBRANCH  21  28
ENDBRANCH  20  23
BRANCH  20  34
ATOM     34  C   UNL     1      -3.398  -8.308   1.494  0.00  0.00    +0.042 C 
BRANCH  34  35
ATOM     35  C   UNL     1      -1.968  -8.188   2.022  0.00  0.00    +0.071 C 
BRANCH  35  36
ATOM     36  S   UNL     1      -1.956  -8.495   3.810  0.00  0.00    -0.164 S 
ATOM     37  C   UNL     1      -0.211  -8.317   4.274  0.00  0.00    +0.084 C 
ENDBRANCH  35  36
ENDBRANCH  34  35
ENDBRANCH  20  34
ENDBRANCH   1  20
TORSDOF 8
