REMARK  Name = ZINC13639869
REMARK  5 active torsions:
REMARK  status: ('A' for Active; 'I' for Inactive)
REMARK    1  A    between atoms: C_3  and  C_9
REMARK    2  A    between atoms: C_4  and  O_8
REMARK    3  A    between atoms: C_6  and  O_7
REMARK    4  A    between atoms: C_20  and  S_25
REMARK    5  A    between atoms: S_25  and  N_28
REMARK                            x       y       z     vdW  Elec       q    Type
REMARK                         _______ _______ _______ _____ _____    ______ ____
ROOT
ATOM      1  C   UNL     1      -1.332   2.119   0.020  0.00  0.00    +0.108 C 
ATOM      2  C   UNL     1      -1.822   2.299   1.446  0.00  0.00    +0.029 C 
ATOM      3  C   UNL     1      -1.948   1.035   2.307  0.00  0.00    +0.033 C 
ATOM      4  C   UNL     1      -1.703   1.593   3.711  0.00  0.00    -0.030 C 
ATOM      5  C   UNL     1      -0.968   2.696   3.638  0.00  0.00    -0.023 C 
ATOM      6  C   UNL     1      -0.644   2.978   2.206  0.00  0.00    +0.049 C 
ATOM      7  C   UNL     1      -0.487   4.347   1.669  0.00  0.00    -0.018 A 
ATOM      8  C   UNL     1      -0.103   5.411   2.457  0.00  0.00    +0.034 A 
ATOM      9  C   UNL     1       0.042   6.670   1.905  0.00  0.00    +0.106 A 
ATOM     10  C   UNL     1      -0.197   6.866   0.557  0.00  0.00    +0.030 A 
ATOM     11  C   UNL     1      -0.587   5.809  -0.238  0.00  0.00    +0.025 A 
ATOM     12  C   UNL     1      -0.742   4.540   0.307  0.00  0.00    +0.031 A 
ATOM     13  N   UNL     1      -1.159   3.485  -0.519  0.00  0.00    -0.336 N 
ATOM     14  H   UNL     1      -1.337   3.653  -1.458  0.00  0.00    +0.147 HD
ENDROOT
BRANCH   1  17
ATOM     15  C   UNL     1       2.377   1.421  -0.013  0.00  0.00    +0.046 A 
ATOM     16  C   UNL     1       1.169   2.092   0.002  0.00  0.00    +0.012 A 
ATOM     17  C   UNL     1      -0.017   1.384   0.010  0.00  0.00    +0.015 A 
ATOM     18  C   UNL     1       0.002  -0.004   0.002  0.00  0.00    +0.125 A 
ATOM     19  C   UNL     1       1.212  -0.680  -0.013  0.00  0.00    +0.091 A 
ATOM     20  C   UNL     1       2.402   0.033  -0.021  0.00  0.00    +0.120 A 
BRANCH  20  21
ATOM     21  O   UNL     1       3.590  -0.626  -0.035  0.00  0.00    -0.507 OA
ATOM     22  H   UNL     1       3.925  -0.812  -0.923  0.00  0.00    +0.292 HD
ENDBRANCH  20  21
BRANCH  18  23
ATOM     23  O   UNL     1      -1.165  -0.700   0.010  0.00  0.00    -0.506 OA
ATOM     24  H   UNL     1      -1.512  -0.897  -0.871  0.00  0.00    +0.292 HD
ENDBRANCH  18  23
ENDBRANCH   1  17
BRANCH   9  25
ATOM     25  S   UNL     1       0.533   8.025   2.919  0.00  0.00    +0.061 S 
ATOM     26  O   UNL     1       1.224   7.471   4.030  0.00  0.00    -0.153 OA
ATOM     27  O   UNL     1       1.126   8.985   2.055  0.00  0.00    -0.153 OA
BRANCH  25  28
ATOM     28  N   UNL     1      -0.848   8.716   3.516  0.00  0.00    -0.177 NA
ATOM     29  C   UNL     1      -1.606   9.804   2.881  0.00  0.00    +0.109 C 
ATOM     30  C   UNL     1      -2.796  10.134   3.806  0.00  0.00    +0.018 C 
ATOM     31  C   UNL     1      -2.318   9.608   5.185  0.00  0.00    +0.018 C 
ATOM     32  C   UNL     1      -1.518   8.346   4.777  0.00  0.00    +0.109 C 
ENDBRANCH  25  28
ENDBRANCH   9  25
TORSDOF 5
