REMARK  Name = ZINC09165321
REMARK  9 active torsions:
REMARK  status: ('A' for Active; 'I' for Inactive)
REMARK    1  A    between atoms: C_1  and  C_2
REMARK    2  A    between atoms: C_4  and  N_33
REMARK    3  A    between atoms: C_7  and  N_8
REMARK    4  A    between atoms: C_9  and  C_11
REMARK    5  A    between atoms: N_13  and  C_14
REMARK    6  A    between atoms: C_14  and  C_15
REMARK    7  A    between atoms: C_15  and  C_17
REMARK    8  A    between atoms: C_15  and  N_68
REMARK    9  A    between atoms: N_26  and  C_27
REMARK                            x       y       z     vdW  Elec       q    Type
REMARK                         _______ _______ _______ _____ _____    ______ ____
ROOT
ATOM      1  C   UNL     1       2.934  -1.809   5.700  0.00  0.00    +0.094 C 
ENDROOT
BRANCH   1   4
ATOM      2  C   UNL     1       4.517  -1.854   7.552  0.00  0.00    +0.299 C 
ATOM      3  O   UNL     1       3.585  -1.704   8.315  0.00  0.00    -0.265 OA
ATOM      4  N   UNL     1       4.298  -1.919   6.224  0.00  0.00    -0.309 N 
ATOM      5  H   UNL     1       5.043  -2.040   5.615  0.00  0.00    +0.149 HD
BRANCH   2   7
ATOM      6  N   UNL     1       6.126  -1.902   9.415  0.00  0.00    -0.278 N 
ATOM      7  C   UNL     1       5.907  -1.967   8.086  0.00  0.00    +0.303 C 
ATOM      8  O   UNL     1       6.840  -2.117   7.324  0.00  0.00    -0.265 OA
ATOM      9  H   UNL     1       5.377  -1.839  10.027  0.00  0.00    +0.155 HD
BRANCH   6  16
ATOM     10  C   UNL     1       6.650  -0.588  11.883  0.00  0.00    +0.046 C 
ATOM     11  C   UNL     1       7.734  -1.296  11.111  0.00  0.00    -0.027 A 
ATOM     12  C   UNL     1       9.025  -1.325  11.599  0.00  0.00    +0.038 A 
ATOM     13  C   UNL     1      10.021  -1.969  10.889  0.00  0.00    +0.127 A 
ATOM     14  C   UNL     1       9.726  -2.592   9.689  0.00  0.00    +0.034 A 
ATOM     15  C   UNL     1       8.436  -2.572   9.198  0.00  0.00    +0.026 A 
ATOM     16  C   UNL     1       7.433  -1.925   9.909  0.00  0.00    +0.037 A 
BRANCH  13  17
ATOM     17  N   UNL     1      11.405  -1.993  11.412  0.00  0.00    +0.056 N 
ATOM     18  O   UNL     1      12.283  -2.560  10.787  0.00  0.00    -0.126 OA
ATOM     19  O   UNL     1      11.666  -1.445  12.468  0.00  0.00    -0.126 OA
ENDBRANCH  13  17
ENDBRANCH   6  16
ENDBRANCH   2   7
ENDBRANCH   1   4
BRANCH   1  20
ATOM     20  C   UNL     1       2.950  -2.035   4.187  0.00  0.00    -0.020 C 
BRANCH  20  21
ATOM     21  C   UNL     1       1.538  -2.007   3.661  0.00  0.00    -0.059 A 
ATOM     22  C   UNL     1       0.553  -2.755   4.281  0.00  0.00    +0.004 A 
ATOM     23  C   UNL     1      -0.737  -2.731   3.796  0.00  0.00    +0.023 A 
ATOM     24  C   UNL     1      -1.059  -1.955   2.681  0.00  0.00    +0.033 A 
ATOM     25  C   UNL     1      -0.071  -1.205   2.068  0.00  0.00    -0.026 A 
ATOM     26  C   UNL     1       1.225  -1.236   2.559  0.00  0.00    +0.007 A 
ATOM     27  C   UNL     1      -0.354  -0.337   0.867  0.00  0.00    +0.038 C 
ATOM     28  C   UNL     1      -1.703  -0.727   0.258  0.00  0.00    +0.024 C 
ATOM     29  C   UNL     1      -2.725  -0.827   1.398  0.00  0.00    +0.105 C 
ATOM     30  N   UNL     1      -2.380  -1.978   2.236  0.00  0.00    -0.333 N 
ATOM     31  C   UNL     1      -3.312  -2.106   3.364  0.00  0.00    +0.129 C 
ENDBRANCH  20  21
BRANCH  20  37
ATOM     32  C   UNL     1       3.818  -3.486   2.455  0.00  0.00    -0.078 C 
ATOM     33  C   UNL     1       4.580  -4.789   2.204  0.00  0.00    -0.019 C 
ATOM     34  C   UNL     1       3.746  -5.968   2.713  0.00  0.00    -0.004 C 
ATOM     35  C   UNL     1       3.447  -5.767   4.201  0.00  0.00    -0.019 C 
ATOM     36  C   UNL     1       2.718  -4.436   4.394  0.00  0.00    -0.078 C 
ATOM     37  N   UNL     1       3.583  -3.340   3.907  0.00  0.00    +0.385 N 
ATOM     38  H   UNL     1       4.485  -3.385   4.396  0.00  0.00    -0.081 HD
ENDBRANCH  20  37
ENDBRANCH   1  20
TORSDOF 7
