REMARK  Name = ZINC11841382
REMARK  7 active torsions:
REMARK  status: ('A' for Active; 'I' for Inactive)
REMARK    1  A    between atoms: C_4  and  C_7
REMARK    2  A    between atoms: C_18  and  C_19
REMARK    3  A    between atoms: C_18  and  N_62
REMARK    4  A    between atoms: C_19  and  C_20
REMARK    5  A    between atoms: N_22  and  C_23
REMARK    6  A    between atoms: C_23  and  C_24
REMARK    7  A    between atoms: C_24  and  C_25
REMARK                            x       y       z     vdW  Elec       q    Type
REMARK                         _______ _______ _______ _____ _____    ______ ____
ROOT
ATOM      1  C   UNL     1       4.520  -0.053  -2.998  0.00  0.00    -0.069 C 
ENDROOT
BRANCH   1  12
ATOM      2  C   UNL     1       2.490   1.048  -0.016  0.00  0.00    +0.187 C 
ATOM      3  C   UNL     1       3.025   1.015  -1.431  0.00  0.00    -0.028 C 
ATOM      4  C   UNL     1       5.396   0.816  -0.916  0.00  0.00    -0.039 C 
ATOM      5  C   UNL     1       5.381   0.420   0.547  0.00  0.00    -0.022 A 
ATOM      6  C   UNL     1       6.363  -0.408   1.052  0.00  0.00    +0.005 A 
ATOM      7  C   UNL     1       6.368  -0.722   2.399  0.00  0.00    +0.000 A 
ATOM      8  C   UNL     1       5.394  -0.208   3.235  0.00  0.00    +0.004 A 
ATOM      9  C   UNL     1       4.404   0.612   2.728  0.00  0.00    +0.046 A 
ATOM     10  C   UNL     1       4.394   0.920   1.375  0.00  0.00    +0.123 A 
ATOM     11  O   UNL     1       3.412   1.709   0.859  0.00  0.00    -0.486 OA
ATOM     12  N   UNL     1       4.232   0.174  -1.572  0.00  0.00    +0.385 N 
ATOM     13  H   UNL     1       4.057  -0.732  -1.120  0.00  0.00    -0.081 HD
BRANCH   2  17
ATOM     14  C   UNL     1      -1.238   3.133   0.030  0.00  0.00    +0.000 A 
ATOM     15  C   UNL     1      -1.219   1.751   0.017  0.00  0.00    +0.000 A 
ATOM     16  C   UNL     1      -0.013   1.076   0.008  0.00  0.00    +0.007 A 
ATOM     17  C   UNL     1       1.175   1.783   0.000  0.00  0.00    -0.009 A 
ATOM     18  C   UNL     1       1.156   3.165   0.008  0.00  0.00    +0.007 A 
ATOM     19  C   UNL     1      -0.050   3.840   0.022  0.00  0.00    +0.000 A 
ENDBRANCH   2  17
ENDBRANCH   1  12
BRANCH   1  20
ATOM     20  C   UNL     1       4.714   1.272  -3.736  0.00  0.00    +0.077 C 
BRANCH  20  21
ATOM     21  C   UNL     1       5.005   1.000  -5.190  0.00  0.00    +0.211 C 
ATOM     22  O   UNL     1       5.053  -0.142  -5.595  0.00  0.00    -0.276 OA
ATOM     23  N   UNL     1       5.213   2.025  -6.039  0.00  0.00    -0.315 N 
ATOM     24  H   UNL     1       5.175   2.939  -5.715  0.00  0.00    +0.149 HD
BRANCH  23  25
ATOM     25  C   UNL     1       5.496   1.760  -7.452  0.00  0.00    +0.109 C 
BRANCH  25  26
ATOM     26  C   UNL     1       5.690   3.086  -8.191  0.00  0.00    +0.056 C 
BRANCH  26  27
ATOM     27  C   UNL     1       5.981   2.813  -9.644  0.00  0.00    -0.021 A 
ATOM     28  C   UNL     1       7.194   2.734 -10.214  0.00  0.00    +0.087 A 
ATOM     29  N   UNL     1       7.065   2.471 -11.550  0.00  0.00    -0.360 N 
ATOM     30  H   UNL     1       7.803   2.367 -12.172  0.00  0.00    +0.165 HD
ATOM     31  C   UNL     1       5.732   2.380 -11.883  0.00  0.00    +0.047 A 
ATOM     32  C   UNL     1       4.995   2.591 -10.704  0.00  0.00    +0.003 A 
ATOM     33  C   UNL     1       3.600   2.555 -10.738  0.00  0.00    +0.010 A 
ATOM     34  C   UNL     1       2.957   2.316 -11.920  0.00  0.00    +0.001 A 
ATOM     35  C   UNL     1       3.679   2.108 -13.087  0.00  0.00    +0.002 A 
ATOM     36  C   UNL     1       5.057   2.138 -13.075  0.00  0.00    +0.026 A 
ENDBRANCH  26  27
ENDBRANCH  25  26
ENDBRANCH  23  25
ENDBRANCH  20  21
ENDBRANCH   1  20
TORSDOF 7
