REMARK  Name = ZINC50358856
REMARK  4 active torsions:
REMARK  status: ('A' for Active; 'I' for Inactive)
REMARK    1  A    between atoms: C_2  and  C_8
REMARK    2  A    between atoms: N_12  and  C_16
REMARK    3  A    between atoms: C_16  and  C_17
REMARK    4  A    between atoms: C_17  and  N_18
REMARK                            x       y       z     vdW  Elec       q    Type
REMARK                         _______ _______ _______ _____ _____    ______ ____
ROOT
ATOM      1  C   UNL     1       1.756   3.148   0.002  0.00  0.00    +0.066 C 
ATOM      2  C   UNL     1       3.091   3.414   0.094  0.00  0.00    +0.083 C 
ATOM      3  C   UNL     1       4.199   2.514   0.093  0.00  0.00    +0.260 C 
ATOM      4  O   UNL     1       4.030   1.311   0.002  0.00  0.00    -0.269 OA
ATOM      5  N   UNL     1       5.414   3.025   0.194  0.00  0.00    -0.230 N 
ATOM      6  C   UNL     1       5.601   4.359   0.295  0.00  0.00    +0.286 C 
ATOM      7  O   UNL     1       6.644   4.978   0.394  0.00  0.00    -0.262 OA
ATOM      8  S   UNL     1       3.929   4.986   0.239  0.00  0.00    -0.026 S 
ENDROOT
BRANCH   1  10
ATOM      9  C   UNL     1       0.006   1.397  -0.271  0.00  0.00    +0.065 A 
ATOM     10  C   UNL     1       1.316   1.836  -0.283  0.00  0.00    +0.132 A 
ATOM     11  O   UNL     1       2.100   0.788  -0.615  0.00  0.00    -0.448 OA
ATOM     12  C   UNL     1       1.335  -0.296  -0.813  0.00  0.00    +0.184 A 
ATOM     13  C   UNL     1       0.038   0.036  -0.612  0.00  0.00    +0.071 A 
ATOM     14 BR   UNL     1      -1.452  -1.119  -0.761  0.00  0.00    -0.046 Br
ATOM     15 BR   UNL     1       1.967  -2.011  -1.298  0.00  0.00    -0.007 Br
ENDBRANCH   1  10
BRANCH   5  16
ATOM     16  C   UNL     1       6.574   2.131   0.198  0.00  0.00    +0.098 C 
BRANCH  16  17
ATOM     17  C   UNL     1       7.057   1.917  -1.238  0.00  0.00    -0.067 C 
BRANCH  17  18
ATOM     18  N   UNL     1       8.221   1.020  -1.235  0.00  0.00    +0.379 N 
ATOM     19  H   UNL     1       8.540   0.879  -2.182  0.00  0.00    -0.090 HD
ATOM     20  H   UNL     1       8.962   1.433  -0.689  0.00  0.00    -0.090 HD
ATOM     21  H   UNL     1       7.961   0.133  -0.832  0.00  0.00    -0.090 HD
ENDBRANCH  17  18
ENDBRANCH  16  17
ENDBRANCH   5  16
TORSDOF 4
