REMARK  Name = ZINC36545136
REMARK  13 active torsions:
REMARK  status: ('A' for Active; 'I' for Inactive)
REMARK    1  A    between atoms: C_1  and  C_2
REMARK    2  A    between atoms: C_2  and  C_3
REMARK    3  A    between atoms: C_3  and  C_4
REMARK    4  A    between atoms: C_4  and  N_5
REMARK    5  A    between atoms: C_6  and  C_8
REMARK    6  A    between atoms: C_8  and  C_10
REMARK    7  A    between atoms: C_8  and  N_19
REMARK    8  A    between atoms: C_13  and  O_18
REMARK    9  A    between atoms: C_14  and  O_16
REMARK   10  A    between atoms: O_16  and  C_17
REMARK   11  A    between atoms: N_19  and  C_20
REMARK   12  A    between atoms: C_27  and  C_29
REMARK   13  A    between atoms: C_32  and  O_35
REMARK                            x       y       z     vdW  Elec       q    Type
REMARK                         _______ _______ _______ _____ _____    ______ ____
ROOT
ATOM      1  C   UNL     1       1.935  -4.321   4.274  0.00  0.00    +0.198 C 
ENDROOT
BRANCH   1   2
ATOM      2  C   UNL     1       1.782  -3.656   5.618  0.00  0.00    -0.014 A 
ATOM      3  C   UNL     1       2.460  -2.482   5.888  0.00  0.00    +0.010 A 
ATOM      4  C   UNL     1       2.323  -1.869   7.120  0.00  0.00    +0.049 A 
ATOM      5  C   UNL     1       1.504  -2.430   8.086  0.00  0.00    +0.158 A 
ATOM      6  C   UNL     1       0.821  -3.611   7.814  0.00  0.00    +0.162 A 
ATOM      7  C   UNL     1       0.959  -4.219   6.576  0.00  0.00    +0.055 A 
BRANCH   6   8
ATOM      8  O   UNL     1       0.016  -4.166   8.759  0.00  0.00    -0.491 OA
ATOM      9  C   UNL     1      -0.654  -5.379   8.410  0.00  0.00    +0.277 C 
ENDBRANCH   6   8
BRANCH   5  10
ATOM     10  O   UNL     1       1.369  -1.828   9.298  0.00  0.00    -0.503 OA
ATOM     11  H   UNL     1       0.646  -1.187   9.340  0.00  0.00    +0.292 HD
ENDBRANCH   5  10
ENDBRANCH   1   2
BRANCH   1  13
ATOM     12  N   UNL     1       0.631  -3.171   2.514  0.00  0.00    -0.313 N 
ATOM     13  C   UNL     1       0.677  -4.121   3.469  0.00  0.00    +0.238 C 
ATOM     14  O   UNL     1      -0.295  -4.815   3.680  0.00  0.00    -0.273 OA
ATOM     15  H   UNL     1       1.409  -2.616   2.345  0.00  0.00    +0.149 HD
BRANCH  12  16
ATOM     16  C   UNL     1      -0.591  -2.976   1.731  0.00  0.00    +0.104 C 
BRANCH  16  17
ATOM     17  C   UNL     1      -0.378  -1.845   0.723  0.00  0.00    +0.018 C 
BRANCH  17  19
ATOM     18  C   UNL     1      -1.441  -0.511  -1.102  0.00  0.00    +0.004 C 
ATOM     19  C   UNL     1      -1.655  -1.642  -0.094  0.00  0.00    -0.002 C 
ENDBRANCH  17  19
ENDBRANCH  16  17
ENDBRANCH  12  16
ENDBRANCH   1  13
BRANCH   1  20
ATOM     20  N   UNL     1       2.171  -5.754   4.462  0.00  0.00    -0.250 N 
ATOM     21  C   UNL     1       3.274  -6.175   5.113  0.00  0.00    +0.252 C 
ATOM     22  O   UNL     1       4.042  -5.365   5.595  0.00  0.00    -0.270 OA
BRANCH  20  23
ATOM     23  C   UNL     1       1.253  -6.686   3.966  0.00  0.00    +0.056 A 
ATOM     24  C   UNL     1       0.237  -7.164   4.782  0.00  0.00    +0.025 A 
ATOM     25  C   UNL     1      -0.668  -8.084   4.290  0.00  0.00    +0.002 A 
ATOM     26  C   UNL     1      -0.563  -8.529   2.984  0.00  0.00    +0.002 A 
ATOM     27  C   UNL     1       0.448  -8.056   2.168  0.00  0.00    +0.022 A 
ATOM     28  C   UNL     1       1.353  -7.131   2.653  0.00  0.00    +0.062 A 
ATOM     29 CL   UNL     1       2.618  -6.531   1.626  0.00  0.00    -0.082 Cl
ENDBRANCH  20  23
BRANCH  21  30
ATOM     30  C   UNL     1       3.548  -7.620   5.242  0.00  0.00    +0.037 A 
ATOM     31  C   UNL     1       3.706  -8.407   4.098  0.00  0.00    +0.016 A 
ATOM     32  C   UNL     1       3.962  -9.754   4.222  0.00  0.00    +0.046 A 
ATOM     33  C   UNL     1       4.064 -10.331   5.483  0.00  0.00    +0.117 A 
ATOM     34  C   UNL     1       3.908  -9.551   6.623  0.00  0.00    +0.046 A 
ATOM     35  C   UNL     1       3.657  -8.202   6.507  0.00  0.00    +0.016 A 
BRANCH  33  36
ATOM     36  O   UNL     1       4.317 -11.659   5.601  0.00  0.00    -0.507 OA
ATOM     37  H   UNL     1       5.258 -11.878   5.641  0.00  0.00    +0.292 HD
ENDBRANCH  33  36
ENDBRANCH  21  30
ENDBRANCH   1  20
TORSDOF 11
