REMARK  Name = ZINC32524060
REMARK  4 active torsions:
REMARK  status: ('A' for Active; 'I' for Inactive)
REMARK    1  A    between atoms: C_10  and  C_12
REMARK    2  A    between atoms: C_18  and  C_20
REMARK    3  A    between atoms: N_22  and  C_23
REMARK    4  A    between atoms: C_23  and  C_24
REMARK                            x       y       z     vdW  Elec       q    Type
REMARK                         _______ _______ _______ _____ _____    ______ ____
ROOT
ATOM      1  C   UNL     1      -2.479   0.935   0.019  0.00  0.00    +0.087 C 
ATOM      2  C   UNL     1      -3.122   2.272   0.396  0.00  0.00    +0.013 C 
ATOM      3  C   UNL     1      -3.221   3.158  -0.847  0.00  0.00    +0.001 C 
ATOM      4  C   UNL     1      -1.820   3.406  -1.411  0.00  0.00    +0.001 C 
ATOM      5  C   UNL     1      -1.178   2.069  -1.787  0.00  0.00    +0.013 C 
ATOM      6  C   UNL     1      -1.079   1.183  -0.543  0.00  0.00    +0.087 C 
ENDROOT
BRANCH   1  16
ATOM      7  C   UNL     1      -3.897  -3.367   4.774  0.00  0.00    +0.000 A 
ATOM      8  C   UNL     1      -2.785  -2.545   4.795  0.00  0.00    +0.002 A 
ATOM      9  C   UNL     1      -2.541  -1.682   3.749  0.00  0.00    +0.024 A 
ATOM     10  C   UNL     1      -3.412  -1.631   2.659  0.00  0.00    +0.039 A 
ATOM     11  C   UNL     1      -4.525  -2.457   2.649  0.00  0.00    -0.024 A 
ATOM     12  C   UNL     1      -4.769  -3.317   3.703  0.00  0.00    +0.005 A 
ATOM     13  C   UNL     1      -5.292  -2.215   1.368  0.00  0.00    +0.056 C 
ATOM     14  C   UNL     1      -4.485  -1.133   0.632  0.00  0.00    +0.118 C 
ATOM     15  N   UNL     1      -3.349  -0.838   1.509  0.00  0.00    -0.271 N 
ATOM     16  C   UNL     1      -2.381   0.062   1.244  0.00  0.00    +0.224 C 
ATOM     17  O   UNL     1      -1.432   0.170   1.991  0.00  0.00    -0.275 OA
ENDBRANCH   1  16
BRANCH   6  18
ATOM     18  C   UNL     1      -0.446  -0.134  -0.914  0.00  0.00    +0.217 C 
ATOM     19  O   UNL     1      -1.056  -1.168  -0.745  0.00  0.00    -0.275 OA
ATOM     20  N   UNL     1       0.795  -0.161  -1.439  0.00  0.00    -0.308 N 
ATOM     21  H   UNL     1       1.348   0.778  -1.593  0.00  0.00    +0.149 HD
BRANCH  20  22
ATOM     22  C   UNL     1       1.407  -1.440  -1.805  0.00  0.00    +0.181 C 
BRANCH  22  23
ATOM     23  C   UNL     1       2.785  -1.196  -2.365  0.00  0.00    +0.155 A 
ATOM     24  N   UNL     1       3.085  -0.994  -3.622  0.00  0.00    -0.132 NA
ATOM     25  N   UNL     1       4.352  -0.815  -3.756  0.00  0.00    -0.129 NA
ATOM     26  C   UNL     1       4.937  -0.904  -2.573  0.00  0.00    +0.161 A 
ATOM     27  N   UNL     1       3.945  -1.150  -1.656  0.00  0.00    -0.285 N 
ATOM     28  C   UNL     1       4.247  -1.293  -0.333  0.00  0.00    +0.094 A 
ATOM     29  C   UNL     1       5.523  -1.194   0.093  0.00  0.00    +0.018 A 
ATOM     30  C   UNL     1       6.560  -0.943  -0.821  0.00  0.00    +0.005 A 
ATOM     31  C   UNL     1       6.274  -0.799  -2.143  0.00  0.00    +0.048 A 
ENDBRANCH  22  23
ENDBRANCH  20  22
ENDBRANCH   6  18
TORSDOF 4
