REMARK  Name = ZINC39948786
REMARK  7 active torsions:
REMARK  status: ('A' for Active; 'I' for Inactive)
REMARK    1  A    between atoms: C_1  and  C_2
REMARK    2  A    between atoms: N_8  and  C_9
REMARK    3  A    between atoms: C_9  and  C_10
REMARK    4  A    between atoms: C_11  and  C_21
REMARK    5  A    between atoms: N_23  and  N_24
REMARK    6  A    between atoms: C_25  and  C_26
REMARK    7  A    between atoms: C_31  and  O_32
REMARK                            x       y       z     vdW  Elec       q    Type
REMARK                         _______ _______ _______ _____ _____    ______ ____
ROOT
ATOM      1  C   UNL     1       2.074  -1.600   2.512  0.00  0.00    +0.063 A 
ATOM      2  C   UNL     1       1.731  -2.589   3.390  0.00  0.00    +0.170 A 
ATOM      3  N   UNL     1       2.795  -2.855   4.168  0.00  0.00    -0.124 NA
ATOM      4  N   UNL     1       3.778  -2.095   3.830  0.00  0.00    -0.058 NA
ATOM      5  N   UNL     1       3.362  -1.279   2.769  0.00  0.00    -0.194 N 
ATOM      6  C   UNL     1       4.130  -0.316   2.105  0.00  0.00    +0.240 A 
ATOM      7  C   UNL     1       5.529   0.014   2.394  0.00  0.00    +0.206 A 
ATOM      8  N   UNL     1       5.906   0.956   1.575  0.00  0.00    -0.032 NA
ATOM      9  O   UNL     1       4.805   1.272   0.741  0.00  0.00    -0.239 OA
ATOM     10  N   UNL     1       3.726   0.436   1.121  0.00  0.00    -0.027 NA
ATOM     11  N   UNL     1       6.318  -0.576   3.375  0.00  0.00    -0.337 N 
ATOM     12  H   UNL     1       5.949  -1.273   3.941  0.00  0.00    +0.144 HD
ATOM     13  H   UNL     1       7.237  -0.291   3.494  0.00  0.00    +0.144 HD
ENDROOT
BRANCH   2  14
ATOM     14  C   UNL     1       0.416  -3.251   3.472  0.00  0.00    +0.285 C 
ATOM     15  O   UNL     1      -0.477  -2.926   2.712  0.00  0.00    -0.267 OA
ATOM     16  N   UNL     1       0.204  -4.217   4.388  0.00  0.00    -0.202 N 
ATOM     17  H   UNL     1       0.916  -4.476   4.993  0.00  0.00    +0.178 HD
BRANCH  16  18
ATOM     18  N   UNL     1      -1.045  -4.847   4.465  0.00  0.00    -0.187 NA
ATOM     19  C   UNL     1      -1.285  -5.699   5.414  0.00  0.00    +0.142 C 
BRANCH  19  20
ATOM     20  C   UNL     1      -0.353  -5.818   6.550  0.00  0.00    +0.037 A 
ATOM     21  C   UNL     1       0.447  -4.734   6.918  0.00  0.00    +0.028 A 
ATOM     22  C   UNL     1       1.317  -4.853   7.983  0.00  0.00    +0.019 A 
ATOM     23  C   UNL     1       1.399  -6.042   8.688  0.00  0.00    +0.019 A 
ATOM     24  C   UNL     1       0.612  -7.121   8.334  0.00  0.00    +0.047 A 
ATOM     25  C   UNL     1      -0.271  -7.017   7.271  0.00  0.00    +0.126 A 
ATOM     26 BR   UNL     1       2.401  -3.385   8.480  0.00  0.00    -0.050 Br
BRANCH  25  27
ATOM     27  O   UNL     1      -1.049  -8.075   6.925  0.00  0.00    -0.506 OA
ATOM     28  H   UNL     1      -0.676  -8.625   6.223  0.00  0.00    +0.292 HD
ENDBRANCH  25  27
ENDBRANCH  19  20
ENDBRANCH  16  18
ENDBRANCH   2  14
BRANCH   1  29
ATOM     29  C   UNL     1       1.189  -0.990   1.456  0.00  0.00    -0.019 C 
BRANCH  29  36
ATOM     30  C   UNL     1       1.035   0.358  -1.003  0.00  0.00    -0.013 C 
ATOM     31  C   UNL     1       0.553  -1.087  -0.853  0.00  0.00    -0.071 C 
ATOM     32  C   UNL     1       0.754  -1.830  -2.176  0.00  0.00    -0.016 C 
ATOM     33  C   UNL     1       0.270  -3.275  -2.021  0.00  0.00    -0.003 C 
ATOM     34  C   UNL     1       1.025  -3.935  -0.864  0.00  0.00    -0.019 C 
ATOM     35  C   UNL     1       0.814  -3.113   0.410  0.00  0.00    -0.078 C 
ATOM     36  N   UNL     1       1.321  -1.751   0.206  0.00  0.00    +0.385 N 
ATOM     37  H   UNL     1       2.294  -1.791  -0.059  0.00  0.00    -0.081 HD
ENDBRANCH  29  36
ENDBRANCH   1  29
TORSDOF 6
