REMARK  Name = ZINC36582518
REMARK  25 active torsions:
REMARK  status: ('A' for Active; 'I' for Inactive)
REMARK    1  A    between atoms: C_1  and  C_2
REMARK    2  A    between atoms: C_2  and  C_3
REMARK    3  A    between atoms: C_3  and  C_4
REMARK    4  A    between atoms: C_4  and  C_5
REMARK    5  A    between atoms: C_5  and  C_7
REMARK    6  A    between atoms: C_5  and  C_9
REMARK    7  A    between atoms: C_7  and  C_8
REMARK    8  A    between atoms: N_11  and  C_12
REMARK    9  A    between atoms: N_11  and  C_34
REMARK   10  A    between atoms: C_12  and  C_14
REMARK   11  A    between atoms: C_12  and  C_23
REMARK   12  A    between atoms: C_15  and  O_22
REMARK   13  A    between atoms: C_17  and  O_21
REMARK   14  A    between atoms: C_19  and  O_20
REMARK   15  A    between atoms: N_25  and  C_26
REMARK   16  A    between atoms: C_26  and  C_27
REMARK   17  A    between atoms: C_26  and  C_28
REMARK   18  A    between atoms: C_26  and  C_29
REMARK   19  A    between atoms: C_29  and  C_30
REMARK   20  A    between atoms: C_30  and  C_31
REMARK   21  A    between atoms: C_30  and  C_32
REMARK   22  A    between atoms: C_30  and  C_33
REMARK   23  A    between atoms: C_34  and  C_35
REMARK   24  A    between atoms: C_34  and  C_36
REMARK   25  A    between atoms: C_34  and  C_37
REMARK                            x       y       z     vdW  Elec       q    Type
REMARK                         _______ _______ _______ _____ _____    ______ ____
ROOT
ATOM      1  C   UNL     1       1.767  -7.484  -5.542  0.00  0.00    +0.200 C 
ENDROOT
BRANCH   1   2
ATOM      2  C   UNL     1       1.268  -7.474  -6.964  0.00  0.00    +0.065 A 
ATOM      3  C   UNL     1       1.752  -6.535  -7.862  0.00  0.00    +0.129 A 
ATOM      4  C   UNL     1       1.293  -6.526  -9.170  0.00  0.00    +0.091 A 
ATOM      5  C   UNL     1       0.351  -7.457  -9.581  0.00  0.00    +0.124 A 
ATOM      6  C   UNL     1      -0.132  -8.397  -8.684  0.00  0.00    +0.091 A 
ATOM      7  C   UNL     1       0.330  -8.409  -7.376  0.00  0.00    +0.129 A 
BRANCH   7   8
ATOM      8  O   UNL     1      -0.140  -9.333  -6.498  0.00  0.00    -0.506 OA
ATOM      9  H   UNL     1      -0.926  -9.050  -6.012  0.00  0.00    +0.292 HD
ENDBRANCH   7   8
BRANCH   5  10
ATOM     10  O   UNL     1      -0.099  -7.447 -10.864  0.00  0.00    -0.507 OA
ATOM     11  H   UNL     1       0.419  -7.998 -11.466  0.00  0.00    +0.292 HD
ENDBRANCH   5  10
BRANCH   3  12
ATOM     12  O   UNL     1       2.675  -5.622  -7.459  0.00  0.00    -0.506 OA
ATOM     13  H   UNL     1       3.589  -5.879  -7.643  0.00  0.00    +0.292 HD
ENDBRANCH   3  12
ENDBRANCH   1   2
BRANCH   1  14
ATOM     14  C   UNL     1       3.272  -7.424  -5.537  0.00  0.00    +0.239 C 
ATOM     15  O   UNL     1       3.839  -6.448  -5.091  0.00  0.00    -0.273 OA
ATOM     16  N   UNL     1       3.990  -8.454  -6.027  0.00  0.00    -0.308 N 
ATOM     17  H   UNL     1       3.537  -9.235  -6.383  0.00  0.00    +0.149 HD
BRANCH  16  18
ATOM     18  C   UNL     1       5.454  -8.396  -6.022  0.00  0.00    +0.030 C 
ATOM     19  C   UNL     1       5.923  -7.295  -6.976  0.00  0.00    +0.031 C 
ATOM     20  C   UNL     1       5.947  -8.089  -4.607  0.00  0.00    +0.031 C 
BRANCH  18  21
ATOM     21  C   UNL     1       6.019  -9.742  -6.479  0.00  0.00    +0.031 C 
BRANCH  21  22
ATOM     22  C   UNL     1       5.643 -10.824  -5.465  0.00  0.00    -0.036 C 
ATOM     23  C   UNL     1       4.187 -10.635  -5.034  0.00  0.00    +0.010 C 
ATOM     24  C   UNL     1       5.811 -12.203  -6.105  0.00  0.00    +0.010 C 
ATOM     25  C   UNL     1       6.556 -10.715  -4.242  0.00  0.00    +0.010 C 
ENDBRANCH  21  22
ENDBRANCH  18  21
ENDBRANCH  16  18
ENDBRANCH   1  14
BRANCH   1  28
ATOM     26  C   UNL     1       0.432  -5.447  -5.470  0.00  0.00    +0.220 C 
ATOM     27  O   UNL     1       0.158  -5.621  -6.639  0.00  0.00    -0.275 OA
ATOM     28  N   UNL     1       1.229  -6.323  -4.828  0.00  0.00    -0.280 N 
BRANCH  28  29
ATOM     29  C   UNL     1       1.558  -6.115  -3.416  0.00  0.00    +0.030 C 
ATOM     30  C   UNL     1       0.273  -6.125  -2.586  0.00  0.00    +0.031 C 
ATOM     31  C   UNL     1       2.483  -7.236  -2.937  0.00  0.00    +0.031 C 
ATOM     32  C   UNL     1       2.262  -4.767  -3.249  0.00  0.00    +0.031 C 
ENDBRANCH  28  29
BRANCH  26  33
ATOM     33  C   UNL     1      -0.119  -4.251  -4.737  0.00  0.00    +0.075 C 
BRANCH  33  34
ATOM     34  C   UNL     1      -1.645  -4.249  -4.839  0.00  0.00    +0.009 C 
ATOM     35  C   UNL     1      -2.200  -5.529  -4.212  0.00  0.00    +0.004 C 
ENDBRANCH  33  34
BRANCH  33  36
ATOM     36  C   UNL     1       0.436  -2.970  -5.362  0.00  0.00    +0.013 C 
BRANCH  36  37
ATOM     37  C   UNL     1      -0.022  -1.762  -4.541  0.00  0.00    +0.000 C 
BRANCH  37  39
ATOM     38  C   UNL     1       0.074   0.727  -4.346  0.00  0.00    +0.004 C 
ATOM     39  C   UNL     1       0.532  -0.481  -5.166  0.00  0.00    -0.003 C 
ENDBRANCH  37  39
ENDBRANCH  36  37
ENDBRANCH  33  36
ENDBRANCH  26  33
ENDBRANCH   1  28
TORSDOF 15
