REMARK  Name = ZINC63187719
REMARK  6 active torsions:
REMARK  status: ('A' for Active; 'I' for Inactive)
REMARK    1  A    between atoms: C_4  and  C_7
REMARK    2  A    between atoms: C_10  and  C_13
REMARK    3  A    between atoms: C_13  and  C_15
REMARK    4  A    between atoms: C_15  and  N_16
REMARK    5  A    between atoms: C_19  and  C_24
REMARK    6  A    between atoms: C_24  and  C_25
REMARK                            x       y       z     vdW  Elec       q    Type
REMARK                         _______ _______ _______ _____ _____    ______ ____
ROOT
ATOM      1  N   UNL     1       8.814  -4.721  -0.113  0.00  0.00    -0.217 N 
ATOM      2  C   UNL     1       9.525  -4.947  -1.236  0.00  0.00    +0.244 C 
ATOM      3  O   UNL     1       9.150  -4.808  -2.380  0.00  0.00    -0.273 OA
ATOM      4  C   UNL     1      10.891  -5.410  -0.770  0.00  0.00    +0.165 C 
ATOM      5  N   UNL     1      10.781  -5.390   0.699  0.00  0.00    -0.287 N 
ATOM      6  C   UNL     1       9.535  -4.970   0.986  0.00  0.00    +0.310 C 
ATOM      7  O   UNL     1       9.112  -4.836   2.117  0.00  0.00    -0.252 OA
ATOM      8  H   UNL     1      11.473  -5.630   1.335  0.00  0.00    +0.151 HD
ENDROOT
BRANCH   1   9
ATOM      9  C   UNL     1       7.426  -4.255  -0.098  0.00  0.00    +0.197 C 
BRANCH   9  10
ATOM     10  C   UNL     1       7.402  -2.748  -0.084  0.00  0.00    +0.181 C 
ATOM     11  O   UNL     1       8.442  -2.125  -0.086  0.00  0.00    -0.290 OA
BRANCH  10  15
ATOM     12  C   UNL     1       3.698  -0.688  -0.037  0.00  0.00    -0.018 A 
ATOM     13  C   UNL     1       4.895   0.030  -0.040  0.00  0.00    +0.009 A 
ATOM     14  C   UNL     1       6.094  -0.634  -0.054  0.00  0.00    +0.012 A 
ATOM     15  C   UNL     1       6.117  -2.034  -0.068  0.00  0.00    +0.019 A 
ATOM     16  C   UNL     1       4.915  -2.752  -0.065  0.00  0.00    +0.012 A 
ATOM     17  C   UNL     1       3.719  -2.083  -0.045  0.00  0.00    +0.009 A 
BRANCH  12  21
ATOM     18  C   UNL     1      -0.017   1.379   0.010  0.00  0.00    +0.000 A 
ATOM     19  C   UNL     1       1.169   2.092   0.002  0.00  0.00    +0.001 A 
ATOM     20  C   UNL     1       2.377   1.427  -0.013  0.00  0.00    +0.008 A 
ATOM     21  C   UNL     1       2.403   0.033  -0.021  0.00  0.00    -0.018 A 
ATOM     22  C   UNL     1       1.205  -0.680  -0.013  0.00  0.00    +0.008 A 
ATOM     23  C   UNL     1       0.002  -0.004   0.002  0.00  0.00    +0.001 A 
ENDBRANCH  12  21
ENDBRANCH  10  15
ENDBRANCH   9  10
ENDBRANCH   1   9
BRANCH   4  24
ATOM     24  C   UNL     1      11.179  -6.827  -1.272  0.00  0.00    +0.065 C 
BRANCH  24  25
ATOM     25  C   UNL     1      12.587  -7.215  -0.900  0.00  0.00    -0.039 C 
ATOM     26  C   UNL     1      12.977  -7.916   0.189  0.00  0.00    -0.001 A 
ATOM     27  C   UNL     1      12.235  -8.503   1.311  0.00  0.00    +0.010 A 
ATOM     28  C   UNL     1      12.917  -9.162   2.275  0.00  0.00    +0.001 A 
ATOM     29  C   UNL     1      14.311  -9.298   2.230  0.00  0.00    +0.002 A 
ATOM     30  C   UNL     1      15.062  -8.785   1.232  0.00  0.00    +0.026 A 
ATOM     31  C   UNL     1      14.448  -8.073   0.164  0.00  0.00    +0.043 A 
ATOM     32  N   UNL     1      14.949  -7.492  -0.899  0.00  0.00    -0.380 N 
ATOM     33  C   UNL     1      13.850  -6.904  -1.673  0.00  0.00    +0.144 C 
ATOM     34  H   UNL     1      15.889  -7.459  -1.136  0.00  0.00    +0.160 HD
ENDBRANCH  24  25
ENDBRANCH   4  24
TORSDOF 6
