REMARK  Name = ZINC35564509
REMARK  10 active torsions:
REMARK  status: ('A' for Active; 'I' for Inactive)
REMARK    1  A    between atoms: C_1  and  C_2
REMARK    2  A    between atoms: C_2  and  C_3
REMARK    3  A    between atoms: C_3  and  C_4
REMARK    4  A    between atoms: C_4  and  C_5
REMARK    5  A    between atoms: C_5  and  C_7
REMARK    6  A    between atoms: C_5  and  C_9
REMARK    7  A    between atoms: C_7  and  C_8
REMARK    8  A    between atoms: C_23  and  C_25
REMARK    9  A    between atoms: C_25  and  N_26
REMARK   10  A    between atoms: C_29  and  C_32
REMARK                            x       y       z     vdW  Elec       q    Type
REMARK                         _______ _______ _______ _____ _____    ______ ____
ROOT
ATOM      1  C   UNL     1       1.357  -3.944  -2.489  0.00  0.00    +0.219 C 
ATOM      2  O   UNL     1       0.684  -4.462  -1.623  0.00  0.00    -0.275 OA
ATOM      3  N   UNL     1       1.980  -4.710  -3.407  0.00  0.00    -0.298 N 
ATOM      4  C   UNL     1       2.712  -4.094  -4.523  0.00  0.00    +0.127 C 
ATOM      5  C   UNL     1       4.150  -4.625  -4.518  0.00  0.00    +0.127 C 
ATOM      6  N   UNL     1       4.109  -6.091  -4.421  0.00  0.00    -0.298 N 
ATOM      7  C   UNL     1       3.377  -6.707  -3.305  0.00  0.00    +0.127 C 
ATOM      8  C   UNL     1       1.943  -6.176  -3.308  0.00  0.00    +0.127 C 
ATOM      9  C   UNL     1       4.741  -6.869  -5.354  0.00  0.00    +0.198 A 
ATOM     10  N   UNL     1       5.513  -6.277  -6.305  0.00  0.00    -0.295 N 
ATOM     11  H   UNL     1       5.612  -5.312  -6.321  0.00  0.00    +0.172 HD
ATOM     12  C   UNL     1       6.139  -7.038  -7.228  0.00  0.00    +0.253 A 
ATOM     13  O   UNL     1       6.835  -6.524  -8.089  0.00  0.00    -0.268 OA
ATOM     14  C   UNL     1       5.976  -8.433  -7.179  0.00  0.00    +0.091 A 
ATOM     15  C   UNL     1       5.190  -8.970  -6.201  0.00  0.00    +0.034 A 
ATOM     16  N   UNL     1       4.596  -8.178  -5.311  0.00  0.00    -0.223 NA
ENDROOT
BRANCH   1  17
ATOM     17  C   UNL     1       1.498  -2.445  -2.539  0.00  0.00    +0.075 C 
BRANCH  17  18
ATOM     18  C   UNL     1       1.270  -1.865  -1.141  0.00  0.00    +0.009 C 
ATOM     19  C   UNL     1       2.374  -2.352  -0.201  0.00  0.00    +0.004 C 
ENDBRANCH  17  18
BRANCH  17  20
ATOM     20  C   UNL     1       0.462  -1.867  -3.505  0.00  0.00    +0.013 C 
BRANCH  20  21
ATOM     21  C   UNL     1       0.685  -0.360  -3.651  0.00  0.00    +0.000 C 
BRANCH  21  23
ATOM     22  C   UNL     1      -0.128   1.724  -4.764  0.00  0.00    +0.004 C 
ATOM     23  C   UNL     1      -0.351   0.217  -4.618  0.00  0.00    -0.003 C 
ENDBRANCH  21  23
ENDBRANCH  20  21
ENDBRANCH  17  20
ENDBRANCH   1  17
BRANCH  15  24
ATOM     24  C   UNL     1       4.997 -10.463  -6.125  0.00  0.00    -0.022 C 
BRANCH  24  25
ATOM     25  N   UNL     1       5.589 -10.971  -4.880  0.00  0.00    +0.383 N 
ATOM     26  C   UNL     1       4.858 -10.418  -3.733  0.00  0.00    -0.078 C 
ATOM     27  C   UNL     1       5.520 -10.879  -2.432  0.00  0.00    -0.016 C 
ATOM     28  C   UNL     1       5.495 -12.409  -2.367  0.00  0.00    -0.018 C 
ATOM     29  C   UNL     1       6.194 -12.975  -3.606  0.00  0.00    -0.016 C 
ATOM     30  C   UNL     1       5.507 -12.436  -4.863  0.00  0.00    -0.078 C 
ATOM     31  C   UNL     1       6.225 -12.880  -1.108  0.00  0.00    +0.007 C 
ATOM     32  H   UNL     1       6.556 -10.688  -4.828  0.00  0.00    -0.081 HD
ENDBRANCH  24  25
ENDBRANCH  15  24
TORSDOF 7
