REMARK  Name = ZINC45548306
REMARK  5 active torsions:
REMARK  status: ('A' for Active; 'I' for Inactive)
REMARK    1  A    between atoms: C_1  and  C_2
REMARK    2  A    between atoms: C_2  and  C_4
REMARK    3  A    between atoms: C_2  and  N_19
REMARK    4  A    between atoms: C_12  and  C_14
REMARK    5  A    between atoms: C_22  and  C_25
REMARK                            x       y       z     vdW  Elec       q    Type
REMARK                         _______ _______ _______ _____ _____    ______ ____
ROOT
ATOM      1  C   UNL     1      -0.453   1.611   0.109  0.00  0.00    -0.004 C 
ATOM      2  C   UNL     1      -0.358   0.084   0.111  0.00  0.00    +0.016 C 
ENDROOT
BRANCH   2   3
ATOM      3  C   UNL     1      -1.743  -0.506   0.179  0.00  0.00    +0.202 C 
ATOM      4  O   UNL     1      -2.215  -0.822   1.251  0.00  0.00    -0.277 OA
ATOM      5  N   UNL     1      -2.456  -0.683  -0.950  0.00  0.00    -0.300 N 
ATOM      6  C   UNL     1      -1.942  -0.207  -2.242  0.00  0.00    +0.126 C 
ATOM      7  C   UNL     1      -1.915  -1.385  -3.223  0.00  0.00    +0.127 C 
ATOM      8  N   UNL     1      -3.221  -2.058  -3.186  0.00  0.00    -0.292 N 
ATOM      9  C   UNL     1      -3.735  -2.534  -1.894  0.00  0.00    +0.127 C 
ATOM     10  C   UNL     1      -3.760  -1.361  -0.914  0.00  0.00    +0.126 C 
ATOM     11  C   UNL     1      -3.934  -2.234  -4.316  0.00  0.00    +0.282 C 
ATOM     12  O   UNL     1      -5.064  -2.684  -4.258  0.00  0.00    -0.267 OA
BRANCH  11  13
ATOM     13  C   UNL     1      -3.349  -1.884  -5.614  0.00  0.00    +0.189 A 
ATOM     14  C   UNL     1      -4.004  -1.874  -6.812  0.00  0.00    +0.054 A 
ATOM     15  C   UNL     1      -3.067  -1.481  -7.781  0.00  0.00    +0.042 A 
ATOM     16  C   UNL     1      -1.897  -1.271  -7.140  0.00  0.00    +0.196 A 
ATOM     17  O   UNL     1      -2.072  -1.510  -5.833  0.00  0.00    -0.458 OA
ENDBRANCH  11  13
ENDBRANCH   2   3
BRANCH   2  18
ATOM     18  N   UNL     1       0.420  -0.357   1.277  0.00  0.00    +0.387 N 
ATOM     19  C   UNL     1       1.727   0.311   1.272  0.00  0.00    -0.077 C 
ATOM     20  C   UNL     1       2.510  -0.082   2.527  0.00  0.00    -0.011 C 
ATOM     21  C   UNL     1       2.710  -1.600   2.543  0.00  0.00    +0.016 C 
ATOM     22  C   UNL     1       1.342  -2.286   2.473  0.00  0.00    -0.011 C 
ATOM     23  C   UNL     1       0.603  -1.812   1.220  0.00  0.00    -0.077 C 
ATOM     24  H   UNL     1      -0.076  -0.114   2.122  0.00  0.00    -0.081 HD
BRANCH  21  25
ATOM     25  C   UNL     1       3.411  -2.003   3.815  0.00  0.00    -0.044 A 
ATOM     26  C   UNL     1       2.829  -1.736   5.040  0.00  0.00    +0.004 A 
ATOM     27  C   UNL     1       3.472  -2.105   6.206  0.00  0.00    +0.000 A 
ATOM     28  C   UNL     1       4.698  -2.742   6.147  0.00  0.00    +0.000 A 
ATOM     29  C   UNL     1       5.280  -3.010   4.923  0.00  0.00    +0.000 A 
ATOM     30  C   UNL     1       4.634  -2.644   3.756  0.00  0.00    +0.004 A 
ENDBRANCH  21  25
ENDBRANCH   2  18
TORSDOF 4
