REMARK  Name = ZINC12217808
REMARK  6 active torsions:
REMARK  status: ('A' for Active; 'I' for Inactive)
REMARK    1  A    between atoms: C_1  and  C_2
REMARK    2  A    between atoms: C_2  and  C_17
REMARK    3  A    between atoms: N_5  and  C_9
REMARK    4  A    between atoms: C_9  and  C_10
REMARK    5  A    between atoms: C_22  and  C_23
REMARK    6  A    between atoms: C_22  and  N_62
REMARK                            x       y       z     vdW  Elec       q    Type
REMARK                         _______ _______ _______ _____ _____    ______ ____
ROOT
ATOM      1  C   UNL     1      -2.068   1.870   1.279  0.00  0.00    +0.018 C 
ATOM      2  C   UNL     1      -2.430   0.385   1.381  0.00  0.00    -0.013 C 
ATOM      3  C   UNL     1      -3.314   0.164   2.611  0.00  0.00    -0.078 C 
ATOM      4  C   UNL     1      -4.212   2.408   2.440  0.00  0.00    -0.078 C 
ATOM      5  C   UNL     1      -3.355   2.696   1.205  0.00  0.00    -0.013 C 
ATOM      6  N   UNL     1      -4.546   0.968   2.467  0.00  0.00    +0.383 N 
ATOM      7  H   UNL     1      -5.007   0.717   1.584  0.00  0.00    -0.081 HD
ENDROOT
BRANCH   1   9
ATOM      8  C   UNL     1      -2.079   1.882  -1.237  0.00  0.00    +0.042 C 
ATOM      9  C   UNL     1      -1.235   2.107   0.018  0.00  0.00    +0.112 C 
ATOM     10  C   UNL     1      -0.014   1.208   0.009  0.00  0.00    +0.247 C 
ATOM     11  O   UNL     1       0.002  -0.004   0.002  0.00  0.00    -0.273 OA
ATOM     12  N   UNL     1       1.048   2.037   0.003  0.00  0.00    -0.220 N 
ATOM     13  C   UNL     1       0.673   3.321   0.013  0.00  0.00    +0.310 C 
ATOM     14  O   UNL     1       1.453   4.253   0.010  0.00  0.00    -0.252 OA
ATOM     15  N   UNL     1      -0.664   3.465   0.026  0.00  0.00    -0.285 N 
ATOM     16  H   UNL     1      -1.157   4.301   0.034  0.00  0.00    +0.151 HD
BRANCH  12  17
ATOM     17  C   UNL     1       2.443   1.587  -0.013  0.00  0.00    +0.153 C 
BRANCH  17  18
ATOM     18  C   UNL     1       2.907   1.440  -1.439  0.00  0.00    -0.029 A 
ATOM     19  C   UNL     1       2.757   0.232  -2.093  0.00  0.00    +0.008 A 
ATOM     20  C   UNL     1       3.178   0.098  -3.403  0.00  0.00    +0.038 A 
ATOM     21  C   UNL     1       3.760   1.171  -4.056  0.00  0.00    +0.123 A 
ATOM     22  C   UNL     1       3.914   2.379  -3.397  0.00  0.00    +0.038 A 
ATOM     23  C   UNL     1       3.488   2.513  -2.090  0.00  0.00    +0.008 A 
ATOM     24  F   UNL     1       4.177   1.039  -5.334  0.00  0.00    -0.205 F 
ENDBRANCH  17  18
ENDBRANCH  12  17
ENDBRANCH   1   9
BRANCH   6  25
ATOM     25  C   UNL     1      -5.468   0.685   3.586  0.00  0.00    -0.024 C 
BRANCH  25  26
ATOM     26  C   UNL     1      -5.962  -0.734   3.461  0.00  0.00    +0.009 A 
ATOM     27  C   UNL     1      -5.443  -1.810   4.085  0.00  0.00    +0.021 A 
ATOM     28  C   UNL     1      -6.201  -2.932   3.695  0.00  0.00    +0.020 A 
ATOM     29  C   UNL     1      -7.150  -2.503   2.839  0.00  0.00    +0.093 A 
ATOM     30  N   UNL     1      -7.010  -1.152   2.690  0.00  0.00    -0.307 N 
ATOM     31  C   UNL     1      -7.806  -0.334   1.883  0.00  0.00    +0.138 A 
ATOM     32  C   UNL     1      -8.844  -0.893   1.148  0.00  0.00    +0.047 A 
ATOM     33  C   UNL     1      -9.625  -0.071   0.354  0.00  0.00    +0.005 A 
ATOM     34  C   UNL     1      -9.339   1.286   0.323  0.00  0.00    +0.020 A 
ATOM     35  C   UNL     1      -8.292   1.774   1.080  0.00  0.00    +0.113 A 
ATOM     36  N   UNL     1      -7.568   0.967   1.831  0.00  0.00    -0.238 NA
ENDBRANCH  25  26
ENDBRANCH   6  25
TORSDOF 5
