REMARK  Name = ZINC22816849
REMARK  12 active torsions:
REMARK  status: ('A' for Active; 'I' for Inactive)
REMARK    1  A    between atoms: C_1  and  C_2
REMARK    2  A    between atoms: C_3  and  S_8
REMARK    3  A    between atoms: C_4  and  C_7
REMARK    4  A    between atoms: S_8  and  N_11
REMARK    5  A    between atoms: C_17  and  C_19
REMARK    6  A    between atoms: C_19  and  N_20
REMARK    7  A    between atoms: N_23  and  C_26
REMARK    8  A    between atoms: C_26  and  C_27
REMARK    9  A    between atoms: N_29  and  C_30
REMARK   10  A    between atoms: C_30  and  C_31
REMARK   11  A    between atoms: C_31  and  C_32
REMARK   12  A    between atoms: C_31  and  C_33
REMARK                            x       y       z     vdW  Elec       q    Type
REMARK                         _______ _______ _______ _____ _____    ______ ____
ROOT
ATOM      1  N   UNL     1       2.279   3.181   2.634  0.00  0.00    -0.173 NA
ATOM      2  C   UNL     1       2.888   3.441   1.322  0.00  0.00    +0.128 C 
ATOM      3  C   UNL     1       2.253   4.713   0.735  0.00  0.00    +0.125 C 
ATOM      4  N   UNL     1       2.292   5.769   1.756  0.00  0.00    -0.298 N 
ATOM      5  C   UNL     1       1.687   5.507   3.069  0.00  0.00    +0.125 C 
ATOM      6  C   UNL     1       2.317   4.237   3.654  0.00  0.00    +0.128 C 
ATOM      7  C   UNL     1       2.871   6.957   1.492  0.00  0.00    +0.230 C 
ATOM      8  O   UNL     1       2.896   7.822   2.342  0.00  0.00    -0.274 OA
ENDROOT
BRANCH   1   9
ATOM      9  S   UNL     1       1.568   1.721   2.958  0.00  0.00    +0.066 S 
ATOM     10  O   UNL     1       1.597   1.560   4.370  0.00  0.00    -0.153 OA
ATOM     11  O   UNL     1       2.154   0.778   2.071  0.00  0.00    -0.153 OA
BRANCH   9  14
ATOM     12  C   UNL     1      -0.013   1.086   0.008  0.00  0.00    +0.071 C 
ATOM     13  C   UNL     1      -0.718   1.572   1.248  0.00  0.00    +0.107 A 
ATOM     14  C   UNL     1      -0.129   1.855   2.501  0.00  0.00    +0.170 A 
ATOM     15  C   UNL     1      -1.171   2.253   3.270  0.00  0.00    +0.161 A 
ATOM     16  O   UNL     1      -2.261   2.193   2.493  0.00  0.00    -0.358 OA
ATOM     17  N   UNL     1      -1.990   1.819   1.375  0.00  0.00    -0.081 NA
ATOM     18  C   UNL     1      -1.115   2.679   4.715  0.00  0.00    +0.091 C 
ENDBRANCH   9  14
ENDBRANCH   1   9
BRANCH   7  19
ATOM     19  C   UNL     1       3.486   7.212   0.140  0.00  0.00    +0.180 C 
BRANCH  19  20
ATOM     20  N   UNL     1       4.047   8.569   0.105  0.00  0.00    -0.298 NA
ATOM     21  C   UNL     1       2.984   9.580   0.197  0.00  0.00    +0.066 C 
ATOM     22  C   UNL     1       3.613  10.975   0.237  0.00  0.00    -0.063 C 
ATOM     23  N   UNL     1       4.425  11.178  -0.970  0.00  0.00    +0.387 N 
ATOM     24  C   UNL     1       5.488  10.167  -1.063  0.00  0.00    -0.063 C 
ATOM     25  C   UNL     1       4.859   8.772  -1.103  0.00  0.00    +0.066 C 
ATOM     26  H   UNL     1       3.769  11.062  -1.845  0.00  0.00    -0.081 HD
BRANCH  23  27
ATOM     27  C   UNL     1       4.986  12.536  -1.006  0.00  0.00    +0.019 C 
BRANCH  27  28
ATOM     28  C   UNL     1       3.869  13.536  -1.157  0.00  0.00    +0.196 C 
ATOM     29  O   UNL     1       2.720  13.156  -1.228  0.00  0.00    -0.278 OA
ATOM     30  N   UNL     1       4.148  14.854  -1.212  0.00  0.00    -0.317 N 
ATOM     31  H   UNL     1       5.190  15.199  -1.148  0.00  0.00    +0.149 HD
BRANCH  30  32
ATOM     32  C   UNL     1       3.062  15.826  -1.359  0.00  0.00    +0.107 C 
BRANCH  32  33
ATOM     33  C   UNL     1       3.646  17.240  -1.396  0.00  0.00    -0.000 C 
ATOM     34  C   UNL     1       4.508  17.404  -2.649  0.00  0.00    +0.009 C 
ATOM     35  C   UNL     1       2.507  18.262  -1.424  0.00  0.00    +0.009 C 
ENDBRANCH  32  33
ENDBRANCH  30  32
ENDBRANCH  27  28
ENDBRANCH  23  27
ENDBRANCH  19  20
ENDBRANCH   7  19
TORSDOF 8
