REMARK  Name = ZINC09416070
REMARK  7 active torsions:
REMARK  status: ('A' for Active; 'I' for Inactive)
REMARK    1  A    between atoms: C_1  and  O_2
REMARK    2  A    between atoms: O_2  and  C_3
REMARK    3  A    between atoms: C_6  and  N_9
REMARK    4  A    between atoms: N_9  and  C_10
REMARK    5  A    between atoms: C_18  and  C_20
REMARK    6  A    between atoms: C_23  and  S_26
REMARK    7  A    between atoms: S_26  and  N_29
REMARK                            x       y       z     vdW  Elec       q    Type
REMARK                         _______ _______ _______ _____ _____    ______ ____
ROOT
ATOM      1  N   UNL     1       2.538  -2.437  -3.627  0.00  0.00    -0.259 N 
ATOM      2  C   UNL     1       3.474  -1.635  -4.173  0.00  0.00    +0.251 C 
ATOM      3  O   UNL     1       3.179  -0.511  -4.529  0.00  0.00    -0.270 OA
ENDROOT
BRANCH   1   4
ATOM      4  C   UNL     1       2.918  -3.747  -3.092  0.00  0.00    +0.127 C 
ATOM      5  C   UNL     1       2.069  -4.847  -3.783  0.00  0.00    +0.198 C 
ATOM      6  S   UNL     1       0.755  -5.031  -2.505  0.00  0.00    -0.008 S 
ATOM      7  O   UNL     1      -0.324  -4.139  -2.748  0.00  0.00    -0.170 OA
ATOM      8  O   UNL     1       0.530  -6.400  -2.196  0.00  0.00    -0.170 OA
ATOM      9  C   UNL     1       1.644  -4.355  -1.114  0.00  0.00    +0.132 C 
ATOM     10  C   UNL     1       2.693  -3.760  -1.614  0.00  0.00    +0.016 C 
ENDBRANCH   1   4
BRANCH   1  14
ATOM     11  C   UNL     1      -1.436  -1.188  -3.461  0.00  0.00    +0.120 A 
ATOM     12  C   UNL     1      -0.717  -1.372  -2.288  0.00  0.00    +0.047 A 
ATOM     13  C   UNL     1       0.599  -1.786  -2.342  0.00  0.00    +0.027 A 
ATOM     14  C   UNL     1       1.204  -2.018  -3.571  0.00  0.00    +0.037 A 
ATOM     15  C   UNL     1       0.483  -1.833  -4.744  0.00  0.00    +0.027 A 
ATOM     16  C   UNL     1      -0.834  -1.425  -4.688  0.00  0.00    +0.047 A 
BRANCH  11  18
ATOM     17  C   UNL     1      -3.287  -0.554  -2.109  0.00  0.00    +0.277 C 
ATOM     18  O   UNL     1      -2.732  -0.780  -3.406  0.00  0.00    -0.495 OA
ENDBRANCH  11  18
ENDBRANCH   1  14
BRANCH   2  19
ATOM     19  C   UNL     1       4.860  -2.123  -4.338  0.00  0.00    +0.037 A 
ATOM     20  C   UNL     1       5.100  -3.467  -4.630  0.00  0.00    +0.015 A 
ATOM     21  C   UNL     1       6.395  -3.915  -4.783  0.00  0.00    +0.029 A 
ATOM     22  C   UNL     1       7.456  -3.037  -4.648  0.00  0.00    +0.106 A 
ATOM     23  C   UNL     1       7.224  -1.703  -4.360  0.00  0.00    +0.029 A 
ATOM     24  C   UNL     1       5.934  -1.240  -4.210  0.00  0.00    +0.015 A 
BRANCH  22  25
ATOM     25  S   UNL     1       9.107  -3.618  -4.845  0.00  0.00    +0.061 S 
ATOM     26  O   UNL     1       9.943  -2.716  -4.132  0.00  0.00    -0.153 OA
ATOM     27  O   UNL     1       9.082  -5.012  -4.571  0.00  0.00    -0.153 OA
BRANCH  25  28
ATOM     28  N   UNL     1       9.496  -3.458  -6.446  0.00  0.00    -0.177 NA
ATOM     29  C   UNL     1       9.278  -4.473  -7.487  0.00  0.00    +0.109 C 
ATOM     30  C   UNL     1       9.816  -3.894  -8.812  0.00  0.00    +0.018 C 
ATOM     31  C   UNL     1      10.820  -2.811  -8.336  0.00  0.00    +0.018 C 
ATOM     32  C   UNL     1      10.111  -2.270  -7.066  0.00  0.00    +0.109 C 
ENDBRANCH  25  28
ENDBRANCH  22  25
ENDBRANCH   2  19
TORSDOF 6
