REMARK  Name = ZINC44255015
REMARK  5 active torsions:
REMARK  status: ('A' for Active; 'I' for Inactive)
REMARK    1  A    between atoms: C_3  and  C_13
REMARK    2  A    between atoms: N_4  and  C_6
REMARK    3  A    between atoms: C_13  and  C_15
REMARK    4  A    between atoms: C_13  and  N_19
REMARK    5  A    between atoms: C_15  and  C_16
REMARK                            x       y       z     vdW  Elec       q    Type
REMARK                         _______ _______ _______ _____ _____    ______ ____
ROOT
ATOM      1  C   UNL     1      -0.089   1.437   0.082  0.00  0.00    +0.020 A 
ATOM      2  C   UNL     1       1.248   1.845   0.259  0.00  0.00    +0.021 A 
ATOM      3  C   UNL     1       2.013   0.734   0.258  0.00  0.00    +0.010 A 
ATOM      4  N   UNL     1       1.196  -0.347   0.087  0.00  0.00    -0.322 N 
ATOM      5  C   UNL     1      -0.093   0.093  -0.021  0.00  0.00    +0.091 A 
ENDROOT
BRANCH   4   6
ATOM      6  C   UNL     1       1.611  -1.685   0.030  0.00  0.00    +0.046 A 
ATOM      7  C   UNL     1       2.569  -2.077  -0.895  0.00  0.00    +0.027 A 
ATOM      8  C   UNL     1       2.976  -3.396  -0.949  0.00  0.00    +0.016 A 
ATOM      9  C   UNL     1       2.429  -4.325  -0.083  0.00  0.00    +0.014 A 
ATOM     10  C   UNL     1       1.474  -3.938   0.839  0.00  0.00    +0.016 A 
ATOM     11  C   UNL     1       1.068  -2.619   0.902  0.00  0.00    +0.027 A 
ATOM     12  I   UNL     1       3.049  -6.325  -0.168  0.00  0.00    -0.044 I 
ENDBRANCH   4   6
BRANCH   3  13
ATOM     13  C   UNL     1       3.511   0.692   0.418  0.00  0.00    -0.018 C 
BRANCH  13  14
ATOM     14  N   UNL     1       3.934   1.751   1.344  0.00  0.00    +0.384 N 
ATOM     15  H   UNL     1       3.756   2.653   0.928  0.00  0.00    -0.089 HD
ATOM     16  H   UNL     1       3.415   1.671   2.206  0.00  0.00    -0.089 HD
ATOM     17  H   UNL     1       4.920   1.657   1.535  0.00  0.00    -0.089 HD
ENDBRANCH  13  14
BRANCH  13  18
ATOM     18  C   UNL     1       4.175   0.909  -0.942  0.00  0.00    +0.085 C 
BRANCH  18  19
ATOM     19  C   UNL     1       5.662   0.700  -0.814  0.00  0.00    +0.209 C 
ATOM     20  O   UNL     1       6.143   0.406   0.260  0.00  0.00    -0.276 OA
ATOM     21  N   UNL     1       6.458   0.839  -1.893  0.00  0.00    -0.329 N 
ATOM     22  H   UNL     1       6.073   1.074  -2.752  0.00  0.00    +0.145 HD
ATOM     23  H   UNL     1       7.415   0.704  -1.811  0.00  0.00    +0.145 HD
ENDBRANCH  18  19
ENDBRANCH  13  18
ENDBRANCH   3  13
TORSDOF 5
