REMARK  Name = ZINC40948791
REMARK  13 active torsions:
REMARK  status: ('A' for Active; 'I' for Inactive)
REMARK    1  A    between atoms: C_1  and  C_2
REMARK    2  A    between atoms: C_2  and  O_3
REMARK    3  A    between atoms: O_3  and  C_4
REMARK    4  A    between atoms: C_4  and  C_6
REMARK    5  A    between atoms: C_10  and  N_11
REMARK    6  A    between atoms: C_12  and  C_14
REMARK    7  A    between atoms: C_15  and  C_16
REMARK    8  A    between atoms: C_21  and  O_22
REMARK    9  A    between atoms: O_22  and  C_23
REMARK   10  A    between atoms: C_26  and  C_30
REMARK   11  A    between atoms: C_30  and  C_31
REMARK   12  A    between atoms: C_30  and  C_32
REMARK   13  A    between atoms: C_30  and  C_33
REMARK                            x       y       z     vdW  Elec       q    Type
REMARK                         _______ _______ _______ _____ _____    ______ ____
ROOT
ATOM      1  C   UNL     1       1.449  -2.344  -2.516  0.00  0.00    +0.091 A 
ATOM      2  C   UNL     1       2.875  -2.619  -2.515  0.00  0.00    -0.021 A 
ATOM      3  C   UNL     1       3.342  -3.118  -3.680  0.00  0.00    -0.004 A 
ATOM      4  S   UNL     1       1.922  -3.213  -4.730  0.00  0.00    -0.077 S 
ATOM      5  C   UNL     1       0.750  -2.624  -3.682  0.00  0.00    +0.087 A 
ATOM      6  C   UNL     1       4.756  -3.499  -3.993  0.00  0.00    +0.046 C 
ATOM      7  C   UNL     1       5.669  -2.888  -2.920  0.00  0.00    -0.000 C 
ATOM      8  C   UNL     1       5.082  -3.191  -1.538  0.00  0.00    +0.009 C 
ATOM      9  C   UNL     1       3.799  -2.383  -1.329  0.00  0.00    +0.037 C 
ENDROOT
BRANCH   5  10
ATOM     10  N   UNL     1      -0.602  -2.455  -3.925  0.00  0.00    -0.276 N 
ATOM     11  C   UNL     1      -1.117  -2.783  -5.127  0.00  0.00    +0.241 C 
ATOM     12  O   UNL     1      -0.392  -3.227  -5.998  0.00  0.00    -0.270 OA
ATOM     13  H   UNL     1      -1.179  -2.101  -3.231  0.00  0.00    +0.156 HD
BRANCH  11  14
ATOM     14  C   UNL     1      -2.545  -2.604  -5.384  0.00  0.00    +0.068 C 
ATOM     15  C   UNL     1      -3.060  -2.933  -6.588  0.00  0.00    +0.016 C 
BRANCH  15  16
ATOM     16  C   UNL     1      -4.495  -2.753  -6.846  0.00  0.00    +0.018 A 
ATOM     17  C   UNL     1      -5.331  -2.237  -5.849  0.00  0.00    +0.026 A 
ATOM     18  C   UNL     1      -6.676  -2.072  -6.099  0.00  0.00    +0.019 A 
ATOM     19  C   UNL     1      -7.206  -2.415  -7.334  0.00  0.00    +0.019 A 
ATOM     20  C   UNL     1      -6.393  -2.926  -8.326  0.00  0.00    +0.047 A 
ATOM     21  C   UNL     1      -5.036  -3.093  -8.097  0.00  0.00    +0.127 A 
ATOM     22 BR   UNL     1      -7.805  -1.375  -4.752  0.00  0.00    -0.050 Br
BRANCH  21  23
ATOM     23  O   UNL     1      -4.235  -3.589  -9.073  0.00  0.00    -0.495 OA
ATOM     24  C   UNL     1      -4.856  -3.912 -10.319  0.00  0.00    +0.277 C 
ENDBRANCH  21  23
ENDBRANCH  15  16
ENDBRANCH  11  14
ENDBRANCH   5  10
BRANCH   7  25
ATOM     25  C   UNL     1       7.068  -3.497  -3.029  0.00  0.00    -0.035 C 
ATOM     26  C   UNL     1       7.646  -3.203  -4.415  0.00  0.00    +0.011 C 
ATOM     27  C   UNL     1       7.976  -2.886  -1.959  0.00  0.00    +0.011 C 
ATOM     28  C   UNL     1       6.983  -5.011  -2.822  0.00  0.00    +0.011 C 
ENDBRANCH   7  25
BRANCH   1  29
ATOM     29  C   UNL     1       0.776  -1.800  -1.335  0.00  0.00    +0.342 C 
ATOM     30  O   UNL     1       0.312  -2.552  -0.499  0.00  0.00    -0.245 OA
BRANCH  29  31
ATOM     31  O   UNL     1       0.671  -0.465  -1.174  0.00  0.00    -0.461 OA
BRANCH  31  33
ATOM     32  C   UNL     1      -0.019   1.526   0.010  0.00  0.00    +0.048 C 
ATOM     33  C   UNL     1       0.002  -0.004   0.002  0.00  0.00    +0.229 C 
ENDBRANCH  31  33
ENDBRANCH  29  31
ENDBRANCH   1  29
TORSDOF 8
