REMARK  Name = ZINC35047251
REMARK  6 active torsions:
REMARK  status: ('A' for Active; 'I' for Inactive)
REMARK    1  A    between atoms: C_1  and  C_2
REMARK    2  A    between atoms: N_8  and  N_9
REMARK    3  A    between atoms: C_12  and  C_17
REMARK    4  A    between atoms: N_19  and  C_20
REMARK    5  A    between atoms: C_20  and  C_22
REMARK    6  A    between atoms: C_20  and  O_26
REMARK                            x       y       z     vdW  Elec       q    Type
REMARK                         _______ _______ _______ _____ _____    ______ ____
ROOT
ATOM      1  C   UNL     1      -0.018   1.503   0.010  0.00  0.00    +0.088 C 
ATOM      2  C   UNL     1       0.002  -0.004   0.002  0.00  0.00    +0.133 A 
ATOM      3  N   UNL     1       0.006  -0.657  -1.147  0.00  0.00    -0.200 NA
ATOM      4  C   UNL     1       0.024  -1.988  -1.159  0.00  0.00    +0.222 A 
ATOM      5  N   UNL     1       0.039  -2.660  -0.013  0.00  0.00    -0.180 NA
ATOM      6  C   UNL     1       0.035  -2.000   1.140  0.00  0.00    +0.237 A 
ATOM      7  N   UNL     1       0.022  -0.669   1.144  0.00  0.00    -0.199 NA
ATOM      8  N   UNL     1       0.051  -2.694   2.333  0.00  0.00    -0.225 N 
ATOM      9  N   UNL     1       0.027  -2.668  -2.359  0.00  0.00    -0.285 N 
ATOM     10  H   UNL     1       0.064  -3.664   2.330  0.00  0.00    +0.174 HD
ATOM     11  H   UNL     1       0.041  -3.638  -2.366  0.00  0.00    +0.151 HD
ENDROOT
BRANCH   8  12
ATOM     12  N   UNL     1       0.047  -1.997   3.549  0.00  0.00    -0.191 N 
ATOM     13  C   UNL     1       1.197  -1.922   4.254  0.00  0.00    +0.126 C 
ATOM     14  N   UNL     1       2.296  -2.467   3.850  0.00  0.00    -0.287 NA
ATOM     15  C   UNL     1       1.101  -1.147   5.560  0.00  0.00    +0.132 C 
ATOM     16  S   UNL     1      -0.675  -0.664   5.518  0.00  0.00    -0.089 S 
ATOM     17  C   UNL     1      -1.100  -1.428   3.961  0.00  0.00    +0.132 C 
ATOM     18  S   UNL     1      -2.620  -1.436   3.173  0.00  0.00    -0.026 S 
ATOM     19  H   UNL     1       2.316  -2.954   3.011  0.00  0.00    +0.188 HD
BRANCH  15  20
ATOM     20  C   UNL     1       1.405  -2.043   6.762  0.00  0.00    +0.130 C 
ATOM     21 CL   UNL     1       1.278  -1.078   8.279  0.00  0.00    -0.124 Cl
ENDBRANCH  15  20
ENDBRANCH   8  12
BRANCH   9  22
ATOM     22  C   UNL     1       0.010  -1.926  -3.622  0.00  0.00    +0.254 C 
BRANCH  22  23
ATOM     23  C   UNL     1       0.843  -2.675  -4.665  0.00  0.00    +0.232 C 
ATOM     24 CL   UNL     1       0.822  -1.761  -6.219  0.00  0.00    -0.079 Cl
ATOM     25 CL   UNL     1       2.542  -2.828  -4.080  0.00  0.00    -0.079 Cl
ATOM     26 CL   UNL     1       0.146  -4.317  -4.923  0.00  0.00    -0.079 Cl
ENDBRANCH  22  23
BRANCH  22  27
ATOM     27  O   UNL     1      -1.336  -1.805  -4.085  0.00  0.00    -0.370 OA
ATOM     28  H   UNL     1      -1.775  -2.651  -4.246  0.00  0.00    +0.212 HD
ENDBRANCH  22  27
ENDBRANCH   9  22
TORSDOF 5
