REMARK  Name = ZINC21928644
REMARK  14 active torsions:
REMARK  status: ('A' for Active; 'I' for Inactive)
REMARK    1  A    between atoms: C_1  and  C_2
REMARK    2  A    between atoms: C_7  and  N_8
REMARK    3  A    between atoms: N_13  and  C_30
REMARK    4  A    between atoms: N_18  and  C_19
REMARK    5  A    between atoms: C_19  and  C_20
REMARK    6  A    between atoms: C_20  and  N_21
REMARK    7  A    between atoms: N_21  and  C_22
REMARK    8  A    between atoms: N_21  and  C_26
REMARK    9  A    between atoms: C_22  and  C_23
REMARK   10  A    between atoms: C_23  and  C_24
REMARK   11  A    between atoms: C_23  and  C_25
REMARK   12  A    between atoms: C_26  and  C_27
REMARK   13  A    between atoms: C_27  and  C_28
REMARK   14  A    between atoms: C_27  and  C_29
REMARK                            x       y       z     vdW  Elec       q    Type
REMARK                         _______ _______ _______ _____ _____    ______ ____
ROOT
ATOM      1  N   UNL     1       1.863  -0.276   3.566  0.00  0.00    -0.299 N 
ATOM      2  C   UNL     1       1.260   0.819   2.977  0.00  0.00    +0.139 A 
ATOM      3  C   UNL     1       0.697   1.843   3.765  0.00  0.00    +0.079 A 
ATOM      4  C   UNL     1       0.575   2.071   5.152  0.00  0.00    +0.148 A 
ATOM      5  N   UNL     1      -0.047   3.201   5.332  0.00  0.00    -0.177 NA
ATOM      6  N   UNL     1      -0.362   3.768   4.090  0.00  0.00    -0.249 N 
ATOM      7  C   UNL     1       0.094   2.935   3.112  0.00  0.00    +0.165 A 
ATOM      8  N   UNL     1       0.082   2.963   1.781  0.00  0.00    -0.195 NA
ATOM      9  C   UNL     1       0.617   1.977   1.081  0.00  0.00    +0.219 A 
ATOM     10  N   UNL     1       1.196   0.929   1.655  0.00  0.00    -0.199 NA
ATOM     11  N   UNL     1       0.577   2.043  -0.301  0.00  0.00    -0.315 N 
ATOM     12  C   UNL     1      -1.062   5.038   3.879  0.00  0.00    +0.174 C 
ATOM     13  H   UNL     1       1.996  -0.309   4.657  0.00  0.00    +0.154 HD
ATOM     14  H   UNL     1       0.103   2.902  -0.797  0.00  0.00    +0.149 HD
ENDROOT
BRANCH   1  21
ATOM     15  C   UNL     1       4.052  -1.831   4.508  0.00  0.00    +0.045 C 
ATOM     16  C   UNL     1       3.370  -2.126   3.196  0.00  0.00    -0.029 A 
ATOM     17  C   UNL     1       3.804  -3.177   2.413  0.00  0.00    +0.005 A 
ATOM     18  C   UNL     1       3.179  -3.449   1.210  0.00  0.00    +0.000 A 
ATOM     19  C   UNL     1       2.117  -2.669   0.787  0.00  0.00    +0.002 A 
ATOM     20  C   UNL     1       1.675  -1.620   1.568  0.00  0.00    +0.023 A 
ATOM     21  C   UNL     1       2.305  -1.341   2.775  0.00  0.00    +0.035 A 
ENDBRANCH   1  21
BRANCH  11  22
ATOM     22  C   UNL     1       1.167   0.968  -1.102  0.00  0.00    +0.086 C 
BRANCH  22  23
ATOM     23  C   UNL     1       0.990   1.284  -2.588  0.00  0.00    -0.060 C 
BRANCH  23  24
ATOM     24  N   UNL     1       1.582   0.205  -3.392  0.00  0.00    +0.381 N 
ATOM     25  H   UNL     1       2.611   0.047  -3.039  0.00  0.00    -0.082 HD
BRANCH  24  26
ATOM     26  C   UNL     1       0.844  -1.052  -3.211  0.00  0.00    -0.076 C 
BRANCH  26  27
ATOM     27  C   UNL     1      -0.659  -0.774  -3.269  0.00  0.00    -0.034 C 
ATOM     28  C   UNL     1      -1.049  -0.372  -4.693  0.00  0.00    +0.005 C 
ATOM     29  C   UNL     1      -1.427  -2.034  -2.867  0.00  0.00    +0.005 C 
ENDBRANCH  26  27
ENDBRANCH  24  26
BRANCH  24  30
ATOM     30  C   UNL     1       1.644   0.580  -4.811  0.00  0.00    -0.076 C 
BRANCH  30  31
ATOM     31  C   UNL     1       2.551  -0.400  -5.558  0.00  0.00    -0.034 C 
ATOM     32  C   UNL     1       2.546  -0.063  -7.051  0.00  0.00    +0.005 C 
ATOM     33  C   UNL     1       3.978  -0.289  -5.015  0.00  0.00    +0.005 C 
ENDBRANCH  30  31
ENDBRANCH  24  30
ENDBRANCH  23  24
ENDBRANCH  22  23
ENDBRANCH  11  22
TORSDOF 8
