REMARK  Name = ZINC67642577
REMARK  7 active torsions:
REMARK  status: ('A' for Active; 'I' for Inactive)
REMARK    1  A    between atoms: C_1  and  C_2
REMARK    2  A    between atoms: C_2  and  C_3
REMARK    3  A    between atoms: C_2  and  C_4
REMARK    4  A    between atoms: C_4  and  C_6
REMARK    5  A    between atoms: C_4  and  N_12
REMARK    6  A    between atoms: N_10  and  C_11
REMARK    7  A    between atoms: C_15  and  C_19
REMARK                            x       y       z     vdW  Elec       q    Type
REMARK                         _______ _______ _______ _____ _____    ______ ____
ROOT
ATOM      1  N   UNL     1       2.237  -0.057   1.124  0.00  0.00    -0.319 N 
ATOM      2  C   UNL     1       2.607   1.132   1.732  0.00  0.00    +0.123 A 
ATOM      3  C   UNL     1       1.657   1.921   2.384  0.00  0.00    +0.067 A 
ATOM      4  C   UNL     1       2.076   3.097   2.974  0.00  0.00    +0.049 A 
ATOM      5  N   UNL     1       3.356   3.436   2.903  0.00  0.00    -0.240 NA
ATOM      6  C   UNL     1       4.228   2.670   2.280  0.00  0.00    +0.223 A 
ATOM      7  N   UNL     1       3.873   1.537   1.708  0.00  0.00    -0.221 NA
ATOM      8  H   UNL     1       2.888  -0.565   0.614  0.00  0.00    +0.148 HD
ENDROOT
BRANCH   4   9
ATOM      9  C   UNL     1       1.091   3.984   3.690  0.00  0.00    +0.034 C 
ATOM     10  C   UNL     1       0.027   3.120   4.375  0.00  0.00    -0.010 C 
ATOM     11  C   UNL     1      -1.014   4.028   5.032  0.00  0.00    -0.082 C 
ATOM     12  N   UNL     1      -1.649   4.870   4.011  0.00  0.00    +0.379 N 
ATOM     13  C   UNL     1      -0.647   5.753   3.400  0.00  0.00    -0.082 C 
ATOM     14  C   UNL     1       0.408   4.911   2.680  0.00  0.00    -0.010 C 
ATOM     15  H   UNL     1      -2.058   4.284   3.300  0.00  0.00    -0.086 HD
ATOM     16  H   UNL     1      -2.371   5.429   4.440  0.00  0.00    -0.086 HD
ENDBRANCH   4   9
BRANCH   1  17
ATOM     17  C   UNL     1       0.862  -0.547   1.250  0.00  0.00    +0.138 C 
BRANCH  17  18
ATOM     18  C   UNL     1       0.709  -1.282   2.558  0.00  0.00    +0.108 A 
ATOM     19  N   UNL     1       1.628  -2.008   3.134  0.00  0.00    -0.348 N 
ATOM     20  C   UNL     1       1.142  -2.508   4.280  0.00  0.00    +0.102 A 
ATOM     21  C   UNL     1      -0.125  -2.074   4.419  0.00  0.00    +0.104 A 
ATOM     22  N   UNL     1      -0.399  -1.292   3.330  0.00  0.00    -0.337 N 
ATOM     23  C   UNL     1      -1.658  -0.598   3.051  0.00  0.00    +0.150 C 
ATOM     24  H   UNL     1       2.521  -2.163   2.788  0.00  0.00    +0.166 HD
ENDBRANCH  17  18
BRANCH  17  26
ATOM     25  C   UNL     1       0.631  -0.733  -1.230  0.00  0.00    +0.009 C 
ATOM     26  C   UNL     1       0.551  -1.498   0.092  0.00  0.00    +0.010 C 
ATOM     27  C   UNL     1       1.568  -2.641   0.083  0.00  0.00    +0.009 C 
ENDBRANCH  17  26
ENDBRANCH   1  17
TORSDOF 4
