REMARK  Name = ZINC12070737
REMARK  14 active torsions:
REMARK  status: ('A' for Active; 'I' for Inactive)
REMARK    1  A    between atoms: C_1  and  C_2
REMARK    2  A    between atoms: C_2  and  O_3
REMARK    3  A    between atoms: O_3  and  C_4
REMARK    4  A    between atoms: C_4  and  C_6
REMARK    5  A    between atoms: C_10  and  N_11
REMARK    6  A    between atoms: C_12  and  C_14
REMARK    7  A    between atoms: C_14  and  C_15
REMARK    8  A    between atoms: C_18  and  S_21
REMARK    9  A    between atoms: S_21  and  C_24
REMARK   10  A    between atoms: C_24  and  C_25
REMARK   11  A    between atoms: C_24  and  C_26
REMARK   12  A    between atoms: C_30  and  C_31
REMARK   13  A    between atoms: C_30  and  C_32
REMARK   14  A    between atoms: C_30  and  N_65
REMARK                            x       y       z     vdW  Elec       q    Type
REMARK                         _______ _______ _______ _____ _____    ______ ____
ROOT
ATOM      1  C   UNL     1      -1.699   2.348  10.056  0.00  0.00    +0.091 A 
ATOM      2  C   UNL     1      -0.713   1.796  10.967  0.00  0.00    -0.025 A 
ATOM      3  C   UNL     1       0.353   1.208  10.378  0.00  0.00    -0.021 A 
ATOM      4  S   UNL     1       0.057   1.372   8.642  0.00  0.00    -0.079 S 
ATOM      5  C   UNL     1      -1.460   2.209   8.694  0.00  0.00    +0.086 A 
ATOM      6  C   UNL     1       1.513   0.569  11.075  0.00  0.00    -0.035 C 
ATOM      7  C   UNL     1       0.153   0.813  13.066  0.00  0.00    -0.073 C 
ATOM      8  C   UNL     1      -0.814   1.849  12.487  0.00  0.00    +0.018 C 
ATOM      9  N   UNL     1       1.497   1.020  12.488  0.00  0.00    +0.384 N 
ATOM     10  H   UNL     1       1.725   2.021  12.522  0.00  0.00    -0.081 HD
ENDROOT
BRANCH   5  11
ATOM     11  N   UNL     1      -2.241   2.642   7.634  0.00  0.00    -0.279 N 
ATOM     12  C   UNL     1      -1.840   2.421   6.367  0.00  0.00    +0.222 C 
ATOM     13  O   UNL     1      -0.795   1.843   6.154  0.00  0.00    -0.275 OA
ATOM     14  H   UNL     1      -3.077   3.104   7.805  0.00  0.00    +0.155 HD
BRANCH  12  15
ATOM     15  C   UNL     1      -2.690   2.891   5.215  0.00  0.00    +0.131 C 
BRANCH  15  16
ATOM     16  C   UNL     1      -2.022   2.523   3.915  0.00  0.00    -0.039 A 
ATOM     17  C   UNL     1      -2.295   1.306   3.318  0.00  0.00    +0.006 A 
ATOM     18  C   UNL     1      -1.683   0.968   2.126  0.00  0.00    +0.027 A 
ATOM     19  C   UNL     1      -0.798   1.847   1.530  0.00  0.00    +0.088 A 
ATOM     20  C   UNL     1      -0.521   3.062   2.129  0.00  0.00    +0.027 A 
ATOM     21  C   UNL     1      -1.137   3.402   3.319  0.00  0.00    +0.006 A 
BRANCH  19  22
ATOM     22  S   UNL     1      -0.017   1.417   0.010  0.00  0.00    -0.001 S 
ATOM     23  O   UNL     1       0.002  -0.004   0.002  0.00  0.00    -0.169 OA
ATOM     24  O   UNL     1       1.195   2.158   0.002  0.00  0.00    -0.169 OA
BRANCH  22  25
ATOM     25  C   UNL     1      -1.135   2.034  -1.279  0.00  0.00    +0.130 C 
ATOM     26  C   UNL     1      -1.294   3.548  -1.134  0.00  0.00    +0.032 C 
ATOM     27  C   UNL     1      -0.551   1.712  -2.657  0.00  0.00    +0.032 C 
ENDBRANCH  22  25
ENDBRANCH  19  22
ENDBRANCH  15  16
ENDBRANCH  12  15
ENDBRANCH   5  11
BRANCH   9  28
ATOM     28  C   UNL     1       2.505   0.271  13.269  0.00  0.00    -0.074 C 
ATOM     29  C   UNL     1       2.208  -1.229  13.226  0.00  0.00    -0.014 C 
ATOM     30  C   UNL     1       3.890   0.534  12.676  0.00  0.00    -0.014 C 
ENDBRANCH   9  28
BRANCH   1  31
ATOM     31  C   UNL     1      -2.901   3.020  10.553  0.00  0.00    +0.342 C 
ATOM     32  O   UNL     1      -3.913   2.379  10.762  0.00  0.00    -0.245 OA
BRANCH  31  33
ATOM     33  O   UNL     1      -2.886   4.350  10.778  0.00  0.00    -0.461 OA
BRANCH  33  35
ATOM     34  C   UNL     1      -3.905   6.453  11.463  0.00  0.00    +0.048 C 
ATOM     35  C   UNL     1      -4.113   4.949  11.270  0.00  0.00    +0.229 C 
ENDBRANCH  33  35
ENDBRANCH  31  33
ENDBRANCH   1  31
TORSDOF 9
