REMARK  Name = ZINC14996561
REMARK  5 active torsions:
REMARK  status: ('A' for Active; 'I' for Inactive)
REMARK    1  A    between atoms: C_3  and  C_8
REMARK    2  A    between atoms: C_8  and  C_9
REMARK    3  A    between atoms: C_9  and  N_10
REMARK    4  A    between atoms: C_21  and  N_54
REMARK    5  A    between atoms: C_25  and  N_54
REMARK                            x       y       z     vdW  Elec       q    Type
REMARK                         _______ _______ _______ _____ _____    ______ ____
ROOT
ATOM      1  N   UNL     1      -0.698   1.558   1.213  0.00  0.00    -0.298 N 
ATOM      2  C   UNL     1      -1.680   0.797   1.762  0.00  0.00    +0.203 A 
ATOM      3  N   UNL     1      -2.315   1.183   2.836  0.00  0.00    -0.230 NA
ATOM      4  C   UNL     1      -2.019   2.337   3.427  0.00  0.00    +0.116 A 
ATOM      5  C   UNL     1      -1.020   3.192   2.934  0.00  0.00    +0.076 A 
ATOM      6  C   UNL     1      -0.339   2.736   1.758  0.00  0.00    +0.262 A 
ATOM      7  O   UNL     1       0.548   3.405   1.256  0.00  0.00    -0.267 OA
ATOM      8  C   UNL     1      -0.805   4.426   3.687  0.00  0.00    -0.023 A 
ATOM      9  C   UNL     1      -1.580   4.624   4.774  0.00  0.00    -0.006 A 
ATOM     10  S   UNL     1      -2.627   3.196   4.856  0.00  0.00    -0.073 S 
ATOM     11  C   UNL     1      -1.555   5.798   5.705  0.00  0.00    +0.027 C 
ATOM     12  C   UNL     1      -0.260   6.584   5.459  0.00  0.00    -0.066 C 
ATOM     13  C   UNL     1      -0.089   6.791   3.951  0.00  0.00    -0.011 C 
ATOM     14  C   UNL     1       0.243   5.458   3.279  0.00  0.00    +0.035 C 
ENDROOT
BRANCH  12  15
ATOM     15  N   UNL     1      -0.340   7.898   6.125  0.00  0.00    +0.383 N 
ATOM     16  H   UNL     1      -1.309   8.236   6.091  0.00  0.00    -0.085 HD
ATOM     17  H   UNL     1       0.272   8.562   5.637  0.00  0.00    -0.085 HD
BRANCH  15  18
ATOM     18  C   UNL     1       0.087   7.785   7.532  0.00  0.00    -0.071 C 
ATOM     19  C   UNL     1      -1.116   7.412   8.422  0.00  0.00    -0.016 C 
ATOM     20  C   UNL     1      -0.887   8.215   9.727  0.00  0.00    -0.002 C 
ATOM     21  C   UNL     1      -0.315   9.557   9.206  0.00  0.00    -0.002 C 
ATOM     22  C   UNL     1       0.597   9.149   8.031  0.00  0.00    -0.016 C 
ENDBRANCH  15  18
ENDBRANCH  12  15
BRANCH   1  23
ATOM     23  C   UNL     1      -0.013   1.086   0.008  0.00  0.00    +0.131 C 
BRANCH  23  24
ATOM     24  C   UNL     1      -0.753   1.593  -1.232  0.00  0.00    +0.057 C 
BRANCH  24  27
ATOM     25  C   UNL     1       0.244  -0.549  -4.177  0.00  0.00    +0.002 A 
ATOM     26  C   UNL     1      -0.402  -0.103  -3.039  0.00  0.00    +0.004 A 
ATOM     27  C   UNL     1      -0.047   1.107  -2.471  0.00  0.00    -0.044 A 
ATOM     28  C   UNL     1       0.950   1.873  -3.044  0.00  0.00    +0.023 A 
ATOM     29  C   UNL     1       1.601   1.425  -4.180  0.00  0.00    +0.041 A 
ATOM     30  C   UNL     1       1.245   0.214  -4.748  0.00  0.00    +0.020 A 
ATOM     31 CL   UNL     1       2.857   2.385  -4.897  0.00  0.00    -0.084 Cl
ENDBRANCH  24  27
ENDBRANCH  23  24
ENDBRANCH   1  23
TORSDOF 5
