REMARK  Name = ZINC55305619
REMARK  4 active torsions:
REMARK  status: ('A' for Active; 'I' for Inactive)
REMARK    1  A    between atoms: C_1  and  C_2
REMARK    2  A    between atoms: C_7  and  C_9
REMARK    3  A    between atoms: C_7  and  N_21
REMARK    4  A    between atoms: C_11  and  C_14
REMARK                            x       y       z     vdW  Elec       q    Type
REMARK                         _______ _______ _______ _____ _____    ______ ____
ROOT
ATOM      1  C   UNL     1      -0.019   1.526   0.010  0.00  0.00    +0.007 C 
ATOM      2  C   UNL     1       0.002  -0.004   0.002  0.00  0.00    -0.015 C 
ATOM      3  C   UNL     1      -1.433  -0.534   0.013  0.00  0.00    +0.003 C 
ATOM      4  C   UNL     1      -1.413  -2.063   0.004  0.00  0.00    -0.001 C 
ATOM      5  C   UNL     1      -0.673  -2.570   1.244  0.00  0.00    -0.005 C 
ATOM      6  C   UNL     1       0.763  -2.041   1.233  0.00  0.00    -0.006 C 
ATOM      7  C   UNL     1       0.742  -0.511   1.242  0.00  0.00    -0.002 C 
ENDROOT
BRANCH   6   8
ATOM      8  C   UNL     1       1.492  -2.540   2.454  0.00  0.00    +0.161 A 
ATOM      9  N   UNL     1       1.784  -3.819   2.716  0.00  0.00    -0.195 NA
ATOM     10  C   UNL     1       2.419  -3.909   3.852  0.00  0.00    +0.258 A 
ATOM     11  O   UNL     1       2.553  -2.675   4.357  0.00  0.00    -0.335 OA
ATOM     12  N   UNL     1       1.944  -1.796   3.422  0.00  0.00    -0.063 NA
BRANCH  10  13
ATOM     13  C   UNL     1       2.916  -5.181   4.488  0.00  0.00    +0.232 C 
ATOM     14  C   UNL     1       2.006  -5.557   5.661  0.00  0.00    +0.201 C 
ATOM     15  O   UNL     1       2.548  -6.702   6.327  0.00  0.00    -0.374 OA
ATOM     16  C   UNL     1       3.880  -6.506   6.810  0.00  0.00    +0.188 C 
ATOM     17  C   UNL     1       4.790  -6.131   5.637  0.00  0.00    +0.189 C 
ATOM     18  O   UNL     1       4.249  -4.987   4.969  0.00  0.00    -0.363 OA
ENDBRANCH  10  13
ENDBRANCH   6   8
BRANCH   6  19
ATOM     19  N   UNL     1       1.450  -2.514   0.025  0.00  0.00    +0.387 N 
ATOM     20  H   UNL     1       0.962  -2.180  -0.793  0.00  0.00    -0.089 HD
ATOM     21  H   UNL     1       2.397  -2.165   0.017  0.00  0.00    -0.089 HD
ATOM     22  H   UNL     1       1.464  -3.523   0.019  0.00  0.00    -0.089 HD
ENDBRANCH   6  19
TORSDOF 3
