REMARK  Name = ZINC43763951
REMARK  11 active torsions:
REMARK  status: ('A' for Active; 'I' for Inactive)
REMARK    1  A    between atoms: C_1  and  C_2
REMARK    2  A    between atoms: C_3  and  C_4
REMARK    3  A    between atoms: C_4  and  O_6
REMARK    4  A    between atoms: O_6  and  C_7
REMARK    5  A    between atoms: C_15  and  O_28
REMARK    6  A    between atoms: C_17  and  C_27
REMARK    7  A    between atoms: C_18  and  C_26
REMARK    8  A    between atoms: C_19  and  C_22
REMARK    9  A    between atoms: C_19  and  O_25
REMARK   10  A    between atoms: C_22  and  C_23
REMARK   11  A    between atoms: C_22  and  C_24
REMARK                            x       y       z     vdW  Elec       q    Type
REMARK                         _______ _______ _______ _____ _____    ______ ____
ROOT
ATOM      1  C   UNL     1      -4.537  -0.944   1.212  0.00  0.00    +0.188 C 
ATOM      2  C   UNL     1      -4.953  -1.241   2.652  0.00  0.00    +0.079 C 
ATOM      3  C   UNL     1      -4.827  -2.721   3.002  0.00  0.00    +0.154 C 
ATOM      4  C   UNL     1      -5.735  -3.736   2.280  0.00  0.00    +0.176 C 
ATOM      5  O   UNL     1      -4.340  -3.629   2.026  0.00  0.00    -0.365 OA
ATOM      6  C   UNL     1      -6.771  -3.173   1.305  0.00  0.00    +0.152 C 
ATOM      7  C   UNL     1      -6.151  -2.578   0.068  0.00  0.00    +0.008 C 
ATOM      8  C   UNL     1      -5.643  -1.162   0.230  0.00  0.00    +0.042 C 
ATOM      9  C   UNL     1      -5.431  -0.645  -1.203  0.00  0.00    +0.078 C 
ATOM     10  C   UNL     1      -6.424  -1.466  -2.063  0.00  0.00    +0.036 C 
ATOM     11  C   UNL     1      -7.183  -2.400  -1.085  0.00  0.00    +0.013 C 
ATOM     12  C   UNL     1      -6.834  -0.291   0.719  0.00  0.00    +0.018 C 
ATOM     13  C   UNL     1      -5.090  -3.530  -0.501  0.00  0.00    +0.014 C 
ENDROOT
BRANCH   9  14
ATOM     14  C   UNL     1      -4.006  -0.788  -1.710  0.00  0.00    +0.015 C 
ATOM     15  C   UNL     1      -3.975  -0.541  -3.220  0.00  0.00    +0.010 C 
ATOM     16  C   UNL     1      -3.110   0.233  -1.008  0.00  0.00    +0.010 C 
ENDBRANCH   9  14
BRANCH   9  17
ATOM     17  O   UNL     1      -5.816   0.740  -1.251  0.00  0.00    -0.388 OA
ATOM     18  H   UNL     1      -5.713   1.147  -2.122  0.00  0.00    +0.210 HD
ENDBRANCH   9  17
BRANCH   6  19
ATOM     19  O   UNL     1      -7.656  -4.242   0.905  0.00  0.00    -0.389 OA
ATOM     20  H   UNL     1      -8.136  -4.650   1.639  0.00  0.00    +0.210 HD
ENDBRANCH   6  19
BRANCH   1  21
ATOM     21  O   UNL     1      -3.359  -1.685   0.899  0.00  0.00    -0.458 OA
BRANCH  21  22
ATOM     22  C   UNL     1      -2.208  -1.271   1.465  0.00  0.00    +0.332 C 
ATOM     23  O   UNL     1      -2.205  -0.302   2.199  0.00  0.00    -0.246 OA
BRANCH  22  26
ATOM     24  C   UNL     1       0.184  -0.382   2.664  0.00  0.00    +0.035 C 
ATOM     25  C   UNL     1       0.181  -1.583   1.754  0.00  0.00    -0.023 C 
ATOM     26  C   UNL     1      -0.956  -1.992   1.195  0.00  0.00    +0.087 C 
ENDBRANCH  22  26
ENDBRANCH  21  22
ENDBRANCH   1  21
TORSDOF 6
