REMARK  Name = ZINC14884685
REMARK  11 active torsions:
REMARK  status: ('A' for Active; 'I' for Inactive)
REMARK    1  A    between atoms: C_1  and  C_2
REMARK    2  A    between atoms: C_7  and  C_8
REMARK    3  A    between atoms: C_8  and  C_20
REMARK    4  A    between atoms: N_12  and  C_15
REMARK    5  A    between atoms: C_15  and  C_16
REMARK    6  A    between atoms: C_16  and  N_17
REMARK    7  A    between atoms: N_17  and  C_18
REMARK    8  A    between atoms: N_17  and  C_19
REMARK    9  A    between atoms: C_20  and  C_21
REMARK   10  A    between atoms: N_26  and  C_36
REMARK   11  A    between atoms: C_27  and  C_30
REMARK                            x       y       z     vdW  Elec       q    Type
REMARK                         _______ _______ _______ _____ _____    ______ ____
ROOT
ATOM      1  C   UNL     1      -2.529   3.901   0.181  0.00  0.00    +0.089 C 
ATOM      2  C   UNL     1      -3.385   3.652  -1.077  0.00  0.00    +0.117 C 
ATOM      3  C   UNL     1      -4.634   2.994  -0.531  0.00  0.00    +0.223 C 
ATOM      4  O   UNL     1      -5.581   2.628  -1.194  0.00  0.00    -0.275 OA
ATOM      5  N   UNL     1      -4.527   2.880   0.798  0.00  0.00    -0.243 N 
ATOM      6  C   UNL     1      -3.382   3.361   1.308  0.00  0.00    +0.233 C 
ATOM      7  O   UNL     1      -3.078   3.361   2.482  0.00  0.00    -0.274 OA
ENDROOT
BRANCH   1  14
ATOM      8  C   UNL     1      -2.533   1.014   0.074  0.00  0.00    +0.044 C 
ATOM      9  C   UNL     1      -1.228   1.767   0.043  0.00  0.00    -0.046 A 
ATOM     10  C   UNL     1      -0.033   1.077  -0.031  0.00  0.00    +0.003 A 
ATOM     11  C   UNL     1       1.163   1.767  -0.065  0.00  0.00    +0.000 A 
ATOM     12  C   UNL     1       1.165   3.149  -0.018  0.00  0.00    +0.000 A 
ATOM     13  C   UNL     1      -0.029   3.840   0.062  0.00  0.00    +0.005 A 
ATOM     14  C   UNL     1      -1.226   3.148   0.094  0.00  0.00    -0.029 A 
ENDBRANCH   1  14
BRANCH   5  15
ATOM     15  C   UNL     1      -5.574   2.282   1.629  0.00  0.00    +0.098 C 
BRANCH  15  16
ATOM     16  C   UNL     1      -5.327   0.777   1.758  0.00  0.00    -0.060 C 
BRANCH  16  17
ATOM     17  N   UNL     1      -6.377   0.177   2.591  0.00  0.00    +0.377 N 
ATOM     18  C   UNL     1      -7.686   0.261   1.930  0.00  0.00    -0.097 C 
ATOM     19  C   UNL     1      -6.048  -1.213   2.934  0.00  0.00    -0.097 C 
ATOM     20  H   UNL     1      -6.435   0.752   3.528  0.00  0.00    -0.083 HD
ENDBRANCH  16  17
ENDBRANCH  15  16
ENDBRANCH   5  15
BRANCH   1  21
ATOM     21  C   UNL     1      -2.273   5.398   0.371  0.00  0.00    +0.117 C 
BRANCH  21  22
ATOM     22  C   UNL     1      -3.589   6.126   0.455  0.00  0.00    +0.217 C 
ATOM     23  O   UNL     1      -4.630   5.509   0.372  0.00  0.00    -0.276 OA
ATOM     24  N   UNL     1      -3.610   7.463   0.623  0.00  0.00    -0.298 N 
ATOM     25  C   UNL     1      -2.359   8.231   0.726  0.00  0.00    +0.123 C 
ATOM     26  C   UNL     1      -2.431   9.112   1.977  0.00  0.00    +0.103 C 
ATOM     27  N   UNL     1      -3.655   9.923   1.931  0.00  0.00    -0.295 NA
ATOM     28  C   UNL     1      -4.856   9.077   1.959  0.00  0.00    +0.104 C 
ATOM     29  C   UNL     1      -4.884   8.195   0.701  0.00  0.00    +0.131 C 
ATOM     30  C   UNL     1      -3.678  10.905   3.024  0.00  0.00    +0.105 C 
BRANCH  28  31
ATOM     31  C   UNL     1      -6.085   9.949   1.988  0.00  0.00    -0.029 A 
ATOM     32  C   UNL     1      -6.134  11.100   1.223  0.00  0.00    +0.005 A 
ATOM     33  C   UNL     1      -7.263  11.896   1.245  0.00  0.00    +0.000 A 
ATOM     34  C   UNL     1      -8.339  11.549   2.040  0.00  0.00    +0.000 A 
ATOM     35  C   UNL     1      -8.288  10.400   2.808  0.00  0.00    +0.000 A 
ATOM     36  C   UNL     1      -7.161   9.601   2.782  0.00  0.00    +0.005 A 
ENDBRANCH  28  31
ENDBRANCH  21  22
ENDBRANCH   1  21
TORSDOF 7
