REMARK  Name = ZINC63625004
REMARK  6 active torsions:
REMARK  status: ('A' for Active; 'I' for Inactive)
REMARK    1  A    between atoms: C_1  and  C_2
REMARK    2  A    between atoms: C_5  and  C_8
REMARK    3  A    between atoms: N_22  and  S_23
REMARK    4  A    between atoms: S_23  and  C_26
REMARK    5  A    between atoms: N_29  and  C_33
REMARK    6  A    between atoms: C_30  and  C_32
REMARK                            x       y       z     vdW  Elec       q    Type
REMARK                         _______ _______ _______ _____ _____    ______ ____
ROOT
ATOM      1  C   UNL     1      -0.081  -4.630  -1.001  0.00  0.00    +0.136 C 
ATOM      2  C   UNL     1       1.336  -4.897  -0.484  0.00  0.00    +0.129 C 
ATOM      3  C   UNL     1       1.437  -4.219   0.877  0.00  0.00    -0.035 C 
ATOM      4  C   UNL     1       2.472  -3.390   0.808  0.00  0.00    -0.001 A 
ATOM      5  C   UNL     1       3.100  -2.522   1.816  0.00  0.00    +0.010 A 
ATOM      6  C   UNL     1       4.159  -1.781   1.394  0.00  0.00    +0.001 A 
ATOM      7  C   UNL     1       4.649  -1.817   0.085  0.00  0.00    +0.002 A 
ATOM      8  C   UNL     1       4.136  -2.590  -0.906  0.00  0.00    +0.026 A 
ATOM      9  C   UNL     1       3.022  -3.418  -0.582  0.00  0.00    +0.043 A 
ATOM     10  N   UNL     1       2.353  -4.274  -1.334  0.00  0.00    -0.376 N 
ATOM     11  C   UNL     1       0.439  -4.468   1.982  0.00  0.00    +0.050 C 
ATOM     12  C   UNL     1      -0.959  -4.271   1.368  0.00  0.00    +0.114 C 
ATOM     13  N   UNL     1      -1.026  -4.963   0.076  0.00  0.00    -0.167 NA
ATOM     14  H   UNL     1       2.496  -4.459  -2.275  0.00  0.00    +0.160 HD
ENDROOT
BRANCH   1  19
ATOM     15  C   UNL     1      -0.623   0.944  -2.428  0.00  0.00    +0.044 C 
ATOM     16  C   UNL     1      -0.482  -0.510  -2.056  0.00  0.00    -0.050 A 
ATOM     17  C   UNL     1      -0.182  -0.864  -0.754  0.00  0.00    +0.003 A 
ATOM     18  C   UNL     1      -0.052  -2.197  -0.413  0.00  0.00    +0.005 A 
ATOM     19  C   UNL     1      -0.224  -3.176  -1.373  0.00  0.00    -0.026 A 
ATOM     20  C   UNL     1      -0.525  -2.822  -2.675  0.00  0.00    +0.005 A 
ATOM     21  C   UNL     1      -0.659  -1.489  -3.015  0.00  0.00    +0.003 A 
ENDBRANCH   1  19
BRANCH  13  22
ATOM     22  S   UNL     1      -2.175  -6.130  -0.173  0.00  0.00    +0.060 S 
ATOM     23  O   UNL     1      -3.234  -5.857   0.735  0.00  0.00    -0.153 OA
ATOM     24  O   UNL     1      -2.377  -6.208  -1.577  0.00  0.00    -0.153 OA
BRANCH  22  25
ATOM     25  C   UNL     1      -1.471  -7.668   0.322  0.00  0.00    +0.116 C 
ATOM     26  C   UNL     1      -1.033  -8.623  -0.473  0.00  0.00    +0.110 C 
ATOM     27  N   UNL     1      -0.541  -9.697   0.241  0.00  0.00    -0.278 N 
ATOM     28  N   UNL     1      -0.640  -9.480   1.585  0.00  0.00    -0.162 NA
ATOM     29  C   UNL     1      -1.247  -8.143   1.741  0.00  0.00    +0.129 C 
ATOM     30  C   UNL     1      -2.579  -8.246   2.487  0.00  0.00    +0.032 C 
ATOM     31  H   UNL     1      -0.173 -10.500  -0.160  0.00  0.00    +0.166 HD
BRANCH  28  32
ATOM     32  C   UNL     1      -1.463 -10.514   2.226  0.00  0.00    +0.433 C 
ATOM     33  F   UNL     1      -0.932 -11.777   1.940  0.00  0.00    -0.189 F 
ATOM     34  F   UNL     1      -1.470 -10.314   3.611  0.00  0.00    -0.189 F 
ENDBRANCH  28  32
ENDBRANCH  22  25
ENDBRANCH  13  22
TORSDOF 4
