REMARK  Name = ZINC35709796
REMARK  13 active torsions:
REMARK  status: ('A' for Active; 'I' for Inactive)
REMARK    1  A    between atoms: C_1  and  C_2
REMARK    2  A    between atoms: C_5  and  C_37
REMARK    3  A    between atoms: C_6  and  C_8
REMARK    4  A    between atoms: C_10  and  C_28
REMARK    5  A    between atoms: C_11  and  C_27
REMARK    6  A    between atoms: C_15  and  C_18
REMARK    7  A    between atoms: C_19  and  N_21
REMARK    8  A    between atoms: N_21  and  C_22
REMARK    9  A    between atoms: C_22  and  C_23
REMARK   10  A    between atoms: C_23  and  N_24
REMARK   11  A    between atoms: N_24  and  C_25
REMARK   12  A    between atoms: N_24  and  C_26
REMARK   13  A    between atoms: N_30  and  C_31
REMARK                            x       y       z     vdW  Elec       q    Type
REMARK                         _______ _______ _______ _____ _____    ______ ____
ROOT
ATOM      1  C   UNL     1       0.337  -2.067   1.825  0.00  0.00    +0.148 C 
ATOM      2  C   UNL     1      -0.628  -3.194   2.115  0.00  0.00    +0.061 C 
ATOM      3  C   UNL     1      -1.019  -3.386   3.425  0.00  0.00    +0.051 C 
ATOM      4  N   UNL     1      -0.556  -2.602   4.386  0.00  0.00    -0.230 NA
ATOM      5  C   UNL     1       0.284  -1.605   4.202  0.00  0.00    +0.166 C 
ATOM      6  N   UNL     1       0.790  -1.250   2.983  0.00  0.00    -0.267 N 
ATOM      7  C   UNL     1       1.661  -0.179   2.954  0.00  0.00    +0.048 C 
ATOM      8  C   UNL     1       1.943   0.431   4.127  0.00  0.00    +0.072 C 
ATOM      9  S   UNL     1       0.972  -0.516   5.279  0.00  0.00    -0.060 S 
ATOM     10  C   UNL     1      -1.980  -4.496   3.764  0.00  0.00    +0.066 C 
ENDROOT
BRANCH   1  16
ATOM     11  C   UNL     1      -2.494   1.943   0.849  0.00  0.00    +0.044 C 
ATOM     12  C   UNL     1      -1.671   0.777   0.364  0.00  0.00    -0.050 A 
ATOM     13  C   UNL     1      -1.515   0.557  -0.992  0.00  0.00    +0.003 A 
ATOM     14  C   UNL     1      -0.759  -0.512  -1.436  0.00  0.00    +0.004 A 
ATOM     15  C   UNL     1      -0.160  -1.361  -0.524  0.00  0.00    -0.045 A 
ATOM     16  C   UNL     1      -0.316  -1.141   0.832  0.00  0.00    -0.019 A 
ATOM     17  C   UNL     1      -1.068  -0.069   1.276  0.00  0.00    +0.009 A 
ATOM     18  C   UNL     1       0.662  -2.527  -1.008  0.00  0.00    +0.044 C 
ENDBRANCH   1  16
BRANCH   2  19
ATOM     19  C   UNL     1      -1.111  -4.017   1.087  0.00  0.00    +0.248 C 
ATOM     20  O   UNL     1      -0.428  -4.939   0.673  0.00  0.00    -0.270 OA
ATOM     21  N   UNL     1      -2.329  -3.789   0.557  0.00  0.00    -0.282 N 
ATOM     22  H   UNL     1      -2.830  -2.999   0.815  0.00  0.00    +0.155 HD
BRANCH  21  23
ATOM     23  C   UNL     1      -2.870  -4.691  -0.364  0.00  0.00    +0.034 A 
ATOM     24  C   UNL     1      -2.606  -6.049  -0.247  0.00  0.00    +0.023 A 
ATOM     25  C   UNL     1      -3.142  -6.937  -1.158  0.00  0.00    +0.002 A 
ATOM     26  C   UNL     1      -3.943  -6.476  -2.187  0.00  0.00    +0.000 A 
ATOM     27  C   UNL     1      -4.208  -5.124  -2.307  0.00  0.00    +0.002 A 
ATOM     28  C   UNL     1      -3.679  -4.231  -1.395  0.00  0.00    +0.023 A 
ENDBRANCH  21  23
ENDBRANCH   2  19
BRANCH   7  29
ATOM     29  C   UNL     1       2.261   0.281   1.694  0.00  0.00    +0.091 C 
ATOM     30  C   UNL     1       3.218   1.229   1.710  0.00  0.00    +0.239 C 
ATOM     31  O   UNL     1       3.730   1.655   2.890  0.00  0.00    -0.271 OA
BRANCH  30  32
ATOM     32  N   UNL     1       3.678   1.768   0.520  0.00  0.00    -0.314 N 
ATOM     33  H   UNL     1       3.312   1.463  -0.325  0.00  0.00    +0.149 HD
BRANCH  32  34
ATOM     34  C   UNL     1       4.719   2.799   0.537  0.00  0.00    +0.086 C 
BRANCH  34  35
ATOM     35  C   UNL     1       5.043   3.220  -0.897  0.00  0.00    -0.061 C 
BRANCH  35  36
ATOM     36  N   UNL     1       6.087   4.254  -0.880  0.00  0.00    +0.377 N 
ATOM     37  C   UNL     1       7.333   3.683  -0.351  0.00  0.00    -0.097 C 
ATOM     38  C   UNL     1       6.314   4.744  -2.246  0.00  0.00    -0.097 C 
ATOM     39  H   UNL     1       5.792   5.020  -0.293  0.00  0.00    -0.083 HD
ENDBRANCH  35  36
ENDBRANCH  34  35
ENDBRANCH  32  34
ENDBRANCH  30  32
ENDBRANCH   7  29
TORSDOF 8
