REMARK  Name = ZINC13032251
REMARK  13 active torsions:
REMARK  status: ('A' for Active; 'I' for Inactive)
REMARK    1  A    between atoms: C_1  and  C_2
REMARK    2  A    between atoms: C_2  and  C_3
REMARK    3  A    between atoms: C_3  and  C_4
REMARK    4  A    between atoms: C_3  and  C_5
REMARK    5  A    between atoms: C_3  and  N_6
REMARK    6  A    between atoms: C_7  and  C_9
REMARK    7  A    between atoms: C_9  and  C_11
REMARK    8  A    between atoms: C_9  and  N_18
REMARK    9  A    between atoms: C_14  and  O_17
REMARK   10  A    between atoms: N_18  and  C_19
REMARK   11  A    between atoms: C_19  and  C_20
REMARK   12  A    between atoms: C_27  and  C_29
REMARK   13  A    between atoms: C_29  and  N_30
REMARK                            x       y       z     vdW  Elec       q    Type
REMARK                         _______ _______ _______ _____ _____    ______ ____
ROOT
ATOM      1  N   UNL     1       1.408  -0.157   0.092  0.00  0.00    -0.280 N 
ATOM      2  C   UNL     1       1.645  -0.049   1.414  0.00  0.00    +0.238 C 
ATOM      3  O   UNL     1       0.779   0.370   2.153  0.00  0.00    -0.274 OA
ENDROOT
BRANCH   1   4
ATOM      4  C   UNL     1       0.075   0.136  -0.440  0.00  0.00    +0.193 C 
BRANCH   4   5
ATOM      5  C   UNL     1      -0.907  -0.883   0.079  0.00  0.00    -0.018 A 
ATOM      6  C   UNL     1      -0.628  -1.582   1.239  0.00  0.00    +0.009 A 
ATOM      7  C   UNL     1      -1.529  -2.512   1.720  0.00  0.00    +0.046 A 
ATOM      8  C   UNL     1      -2.709  -2.753   1.032  0.00  0.00    +0.117 A 
ATOM      9  C   UNL     1      -2.984  -2.054  -0.135  0.00  0.00    +0.046 A 
ATOM     10  C   UNL     1      -2.083  -1.121  -0.609  0.00  0.00    +0.009 A 
BRANCH   8  11
ATOM     11  O   UNL     1      -3.595  -3.672   1.499  0.00  0.00    -0.507 OA
ATOM     12  H   UNL     1      -3.447  -4.567   1.163  0.00  0.00    +0.292 HD
ENDBRANCH   8  11
ENDBRANCH   4   5
BRANCH   4  14
ATOM     13  N   UNL     1      -1.549   2.001  -0.379  0.00  0.00    -0.308 N 
ATOM     14  C   UNL     1      -0.350   1.513  -0.001  0.00  0.00    +0.239 C 
ATOM     15  O   UNL     1       0.388   2.184   0.688  0.00  0.00    -0.273 OA
ATOM     16  H   UNL     1      -2.137   1.465  -0.934  0.00  0.00    +0.149 HD
BRANCH  13  17
ATOM     17  C   UNL     1      -1.962   3.340   0.048  0.00  0.00    +0.029 C 
ATOM     18  C   UNL     1      -2.005   3.397   1.576  0.00  0.00    +0.031 C 
ATOM     19  C   UNL     1      -0.962   4.373  -0.473  0.00  0.00    +0.031 C 
BRANCH  17  21
ATOM     20  C   UNL     1      -3.784   5.046  -0.068  0.00  0.00    +0.006 C 
ATOM     21  C   UNL     1      -3.352   3.647  -0.513  0.00  0.00    +0.022 C 
ENDBRANCH  17  21
ENDBRANCH  13  17
ENDBRANCH   4  14
ENDBRANCH   1   4
BRANCH   1  22
ATOM     22  C   UNL     1       2.485  -0.565  -0.814  0.00  0.00    +0.145 C 
BRANCH  22  23
ATOM     23  C   UNL     1       2.564  -2.070  -0.854  0.00  0.00    -0.012 A 
ATOM     24  C   UNL     1       3.521  -2.732  -0.108  0.00  0.00    +0.006 A 
ATOM     25  C   UNL     1       3.591  -4.112  -0.141  0.00  0.00    +0.000 A 
ATOM     26  C   UNL     1       2.709  -4.830  -0.928  0.00  0.00    +0.001 A 
ATOM     27  C   UNL     1       1.756  -4.169  -1.679  0.00  0.00    +0.020 A 
ATOM     28  C   UNL     1       1.683  -2.788  -1.642  0.00  0.00    +0.046 A 
ATOM     29 CL   UNL     1       0.485  -1.956  -2.585  0.00  0.00    -0.083 Cl
ENDBRANCH  22  23
ENDBRANCH   1  22
BRANCH   2  30
ATOM     30  C   UNL     1       2.984  -0.451   1.975  0.00  0.00    +0.241 C 
BRANCH  30  31
ATOM     31  N   UNL     1       3.019  -0.161   3.411  0.00  0.00    -0.235 N 
ATOM     32  C   UNL     1       2.648  -1.006   4.430  0.00  0.00    +0.090 A 
ATOM     33  C   UNL     1       2.154  -2.306   4.476  0.00  0.00    +0.029 A 
ATOM     34  C   UNL     1       1.874  -2.884   5.683  0.00  0.00    +0.002 A 
ATOM     35  C   UNL     1       2.078  -2.184   6.865  0.00  0.00    +0.002 A 
ATOM     36  C   UNL     1       2.561  -0.908   6.847  0.00  0.00    +0.032 A 
ATOM     37  C   UNL     1       2.856  -0.293   5.623  0.00  0.00    +0.113 A 
ATOM     38  N   UNL     1       3.333   0.924   5.294  0.00  0.00    -0.129 NA
ATOM     39  N   UNL     1       3.444   1.030   4.017  0.00  0.00    -0.064 NA
ENDBRANCH  30  31
ENDBRANCH   2  30
TORSDOF 10
