REMARK  Name = ZINC03098472
REMARK  5 active torsions:
REMARK  status: ('A' for Active; 'I' for Inactive)
REMARK    1  A    between atoms: C_1  and  C_2
REMARK    2  A    between atoms: C_3  and  C_22
REMARK    3  A    between atoms: C_4  and  C_14
REMARK    4  A    between atoms: C_22  and  O_24
REMARK    5  A    between atoms: O_24  and  C_25
REMARK                            x       y       z     vdW  Elec       q    Type
REMARK                         _______ _______ _______ _____ _____    ______ ____
ROOT
ATOM      1  C   UNL     1      -2.419   5.748   0.870  0.00  0.00    +0.061 C 
ATOM      2  C   UNL     1      -2.502   4.970   2.158  0.00  0.00    +0.016 C 
ATOM      3  C   UNL     1      -2.087   3.692   2.194  0.00  0.00    +0.065 C 
ATOM      4  C   UNL     1      -2.155   2.886   3.458  0.00  0.00    +0.094 C 
ATOM      5  C   UNL     1      -2.316   3.781   4.662  0.00  0.00    +0.024 C 
ATOM      6  C   UNL     1      -2.732   5.057   4.522  0.00  0.00    +0.015 C 
ATOM      7  N   UNL     1      -3.004   5.567   3.281  0.00  0.00    -0.321 N 
ATOM      8  C   UNL     1      -2.913   5.951   5.723  0.00  0.00    +0.051 C 
ATOM      9  C   UNL     1      -1.914   5.555   6.813  0.00  0.00    +0.014 C 
ATOM     10  C   UNL     1      -2.146   4.084   7.174  0.00  0.00    +0.080 C 
ATOM     11  C   UNL     1      -2.018   3.249   5.929  0.00  0.00    +0.162 C 
ATOM     12  O   UNL     1      -1.652   2.094   6.020  0.00  0.00    -0.292 OA
ATOM     13  H   UNL     1      -3.633   6.465   3.192  0.00  0.00    +0.152 HD
ENDROOT
BRANCH   4  14
ATOM     14  C   UNL     1      -3.329   1.945   3.381  0.00  0.00    -0.017 A 
ATOM     15  C   UNL     1      -4.609   2.446   3.235  0.00  0.00    +0.007 A 
ATOM     16  C   UNL     1      -5.686   1.583   3.159  0.00  0.00    +0.020 A 
ATOM     17  C   UNL     1      -5.484   0.216   3.240  0.00  0.00    +0.042 A 
ATOM     18  C   UNL     1      -4.205  -0.286   3.392  0.00  0.00    +0.040 A 
ATOM     19  C   UNL     1      -3.127   0.579   3.462  0.00  0.00    +0.046 A 
ATOM     20 CL   UNL     1      -1.520  -0.051   3.654  0.00  0.00    -0.083 Cl
ATOM     21 CL   UNL     1      -6.837  -0.867   3.151  0.00  0.00    -0.083 Cl
ENDBRANCH   4  14
BRANCH   3  22
ATOM     22  C   UNL     1      -1.570   3.098   1.019  0.00  0.00    +0.338 C 
ATOM     23  O   UNL     1      -0.373   2.909   0.909  0.00  0.00    -0.245 OA
BRANCH  22  24
ATOM     24  O   UNL     1      -2.404   2.740   0.021  0.00  0.00    -0.458 OA
BRANCH  24  25
ATOM     25  C   UNL     1      -1.813   2.145  -1.137  0.00  0.00    +0.177 C 
ATOM     26  C   UNL     1      -1.861   0.600  -1.036  0.00  0.00    +0.044 C 
ATOM     27  C   UNL     1      -1.777   0.158  -2.518  0.00  0.00    +0.004 C 
ATOM     28  C   UNL     1      -2.623   1.205  -3.273  0.00  0.00    +0.004 C 
ATOM     29  C   UNL     1      -2.646   2.468  -2.394  0.00  0.00    +0.044 C 
ENDBRANCH  24  25
ENDBRANCH  22  24
ENDBRANCH   3  22
TORSDOF 4
