REMARK  Name = ZINC66697631
REMARK  7 active torsions:
REMARK  status: ('A' for Active; 'I' for Inactive)
REMARK    1  A    between atoms: C_1  and  C_2
REMARK    2  A    between atoms: C_2  and  N_3
REMARK    3  A    between atoms: C_6  and  N_9
REMARK    4  A    between atoms: N_15  and  C_18
REMARK    5  A    between atoms: C_18  and  C_19
REMARK    6  A    between atoms: N_21  and  C_22
REMARK    7  A    between atoms: C_27  and  C_30
REMARK                            x       y       z     vdW  Elec       q    Type
REMARK                         _______ _______ _______ _____ _____    ______ ____
ROOT
ATOM      1  N   UNL     1      -4.952  -2.536  -0.926  0.00  0.00    -0.297 N 
ATOM      2  C   UNL     1      -5.298  -3.788  -1.284  0.00  0.00    +0.302 C 
ATOM      3  O   UNL     1      -4.473  -4.526  -1.789  0.00  0.00    -0.253 OA
ATOM      4  N   UNL     1      -6.558  -4.223  -1.084  0.00  0.00    -0.283 N 
ATOM      5  C   UNL     1      -7.599  -3.314  -0.583  0.00  0.00    +0.124 C 
ATOM      6  C   UNL     1      -8.284  -3.974   0.619  0.00  0.00    +0.104 C 
ATOM      7  N   UNL     1      -8.758  -5.311   0.236  0.00  0.00    -0.291 NA
ATOM      8  C   UNL     1      -7.638  -6.189  -0.128  0.00  0.00    +0.104 C 
ATOM      9  C   UNL     1      -6.928  -5.619  -1.366  0.00  0.00    +0.124 C 
ATOM     10  H   UNL     1      -5.626  -1.924  -0.592  0.00  0.00    +0.151 HD
ENDROOT
BRANCH   1  14
ATOM     11  N   UNL     1      -1.377  -0.514   0.017  0.00  0.00    +0.380 N 
ATOM     12  C   UNL     1      -2.050  -0.119  -1.227  0.00  0.00    -0.077 C 
ATOM     13  C   UNL     1      -3.510  -0.576  -1.188  0.00  0.00    +0.004 C 
ATOM     14  C   UNL     1      -3.558  -2.099  -1.040  0.00  0.00    +0.071 C 
ATOM     15  C   UNL     1      -2.790  -2.505   0.221  0.00  0.00    +0.004 C 
ATOM     16  C   UNL     1      -1.356  -1.977   0.130  0.00  0.00    -0.077 C 
ATOM     17  H   UNL     1      -1.873  -0.123   0.804  0.00  0.00    -0.082 HD
BRANCH  11  19
ATOM     18  C   UNL     1      -0.018   1.524   0.016  0.00  0.00    -0.017 C 
ATOM     19  C   UNL     1       0.002  -0.006   0.008  0.00  0.00    -0.082 C 
ENDBRANCH  11  19
ENDBRANCH   1  14
BRANCH   7  20
ATOM     20  C   UNL     1      -9.569  -5.908   1.306  0.00  0.00    +0.180 C 
BRANCH  20  21
ATOM     21  C   UNL     1     -10.236  -7.157   0.791  0.00  0.00    +0.227 C 
ATOM     22  O   UNL     1     -10.054  -7.515  -0.353  0.00  0.00    -0.274 OA
ATOM     23  N   UNL     1     -11.035  -7.877   1.603  0.00  0.00    -0.311 N 
ATOM     24  H   UNL     1     -11.181  -7.591   2.519  0.00  0.00    +0.149 HD
BRANCH  23  25
ATOM     25  C   UNL     1     -11.684  -9.092   1.103  0.00  0.00    +0.073 C 
ATOM     26  C   UNL     1     -10.725 -10.276   1.241  0.00  0.00    +0.022 C 
ATOM     27  C   UNL     1     -10.355 -10.464   2.714  0.00  0.00    +0.002 C 
ATOM     28  C   UNL     1     -11.622 -10.738   3.527  0.00  0.00    +0.003 C 
ATOM     29  C   UNL     1     -12.581  -9.554   3.389  0.00  0.00    -0.012 C 
ATOM     30  C   UNL     1     -12.951  -9.365   1.917  0.00  0.00    +0.025 C 
ATOM     31  C   UNL     1     -13.848  -9.827   4.202  0.00  0.00    +0.007 C 
ENDBRANCH  23  25
ENDBRANCH  20  21
ENDBRANCH   7  20
TORSDOF 5
