REMARK  Name = ZINC65040076
REMARK  8 active torsions:
REMARK  status: ('A' for Active; 'I' for Inactive)
REMARK    1  A    between atoms: C_1  and  C_2
REMARK    2  A    between atoms: C_2  and  C_3
REMARK    3  A    between atoms: C_2  and  O_19
REMARK    4  A    between atoms: N_5  and  C_6
REMARK    5  A    between atoms: N_5  and  C_7
REMARK    6  A    between atoms: N_10  and  C_13
REMARK    7  A    between atoms: O_19  and  C_20
REMARK    8  A    between atoms: C_23  and  C_26
REMARK                            x       y       z     vdW  Elec       q    Type
REMARK                         _______ _______ _______ _____ _____    ______ ____
ROOT
ATOM      1  C   UNL     1      -1.347  -0.588  -0.028  0.00  0.00    +0.256 C 
ATOM      2  O   UNL     1      -1.718  -1.157   0.976  0.00  0.00    -0.272 OA
ATOM      3  N   UNL     1      -2.176  -0.476  -1.085  0.00  0.00    -0.299 N 
ATOM      4  C   UNL     1      -1.770   0.305  -2.256  0.00  0.00    +0.132 C 
ENDROOT
BRANCH   3   5
ATOM      5  C   UNL     1      -3.485  -1.135  -1.062  0.00  0.00    +0.072 C 
ATOM      6  C   UNL     1      -4.589  -0.086  -1.217  0.00  0.00    +0.004 C 
ATOM      7  C   UNL     1      -5.948  -0.787  -1.272  0.00  0.00    -0.077 C 
ATOM      8  N   UNL     1      -5.981  -1.708  -2.416  0.00  0.00    +0.382 N 
ATOM      9  C   UNL     1      -4.972  -2.759  -2.239  0.00  0.00    -0.077 C 
ATOM     10  C   UNL     1      -3.576  -2.132  -2.221  0.00  0.00    +0.004 C 
ATOM     11  H   UNL     1      -5.787  -1.196  -3.264  0.00  0.00    -0.081 HD
BRANCH   8  12
ATOM     12  C   UNL     1      -7.313  -2.320  -2.511  0.00  0.00    -0.064 C 
ATOM     13  C   UNL     1      -7.354  -3.273  -3.710  0.00  0.00    +0.013 C 
ATOM     14  C   UNL     1      -8.767  -3.846  -3.848  0.00  0.00    +0.158 C 
ATOM     15  O   UNL     1      -9.702  -2.775  -3.994  0.00  0.00    -0.380 OA
ATOM     16  C   UNL     1      -9.741  -1.879  -2.881  0.00  0.00    +0.158 C 
ATOM     17  C   UNL     1      -8.367  -1.227  -2.705  0.00  0.00    +0.013 C 
ENDBRANCH   8  12
ENDBRANCH   3   5
BRANCH   1  19
ATOM     18  C   UNL     1      -0.023   1.500   0.162  0.00  0.00    +0.062 C 
ATOM     19  C   UNL     1       0.042  -0.007  -0.096  0.00  0.00    +0.256 C 
BRANCH  19  20
ATOM     20  O   UNL     1       0.865  -0.625   0.895  0.00  0.00    -0.480 OA
BRANCH  20  21
ATOM     21  C   UNL     1       2.204  -0.633   0.667  0.00  0.00    +0.122 A 
ATOM     22  C   UNL     1       2.724   0.051  -0.425  0.00  0.00    +0.047 A 
ATOM     23  C   UNL     1       4.081   0.046  -0.660  0.00  0.00    +0.022 A 
ATOM     24  C   UNL     1       4.935  -0.649   0.201  0.00  0.00    +0.052 A 
ATOM     25  C   UNL     1       4.407  -1.335   1.298  0.00  0.00    +0.022 A 
ATOM     26  C   UNL     1       3.049  -1.320   1.529  0.00  0.00    +0.047 A 
BRANCH  24  27
ATOM     27  C   UNL     1       6.346  -0.657  -0.040  0.00  0.00    +0.099 C 
ATOM     28  N   UNL     1       7.466  -0.664  -0.231  0.00  0.00    -0.191 NA
ENDBRANCH  24  27
ENDBRANCH  20  21
ENDBRANCH  19  20
ENDBRANCH   1  19
TORSDOF 6
