REMARK  Name = ZINC39691306
REMARK  8 active torsions:
REMARK  status: ('A' for Active; 'I' for Inactive)
REMARK    1  A    between atoms: C_1  and  C_2
REMARK    2  A    between atoms: C_7  and  C_8
REMARK    3  A    between atoms: C_12  and  C_21
REMARK    4  A    between atoms: N_23  and  C_24
REMARK    5  A    between atoms: C_24  and  C_25
REMARK    6  A    between atoms: C_25  and  N_26
REMARK    7  A    between atoms: C_27  and  C_29
REMARK    8  A    between atoms: C_29  and  C_30
REMARK                            x       y       z     vdW  Elec       q    Type
REMARK                         _______ _______ _______ _____ _____    ______ ____
ROOT
ATOM      1  C   UNL     1       0.117   0.199   2.410  0.00  0.00    +0.247 C 
ATOM      2  O   UNL     1      -0.024   1.405   2.357  0.00  0.00    -0.270 OA
ATOM      3  N   UNL     1       0.321  -0.403   3.599  0.00  0.00    -0.296 N 
ATOM      4  C   UNL     1       0.601  -1.836   3.855  0.00  0.00    +0.121 C 
ATOM      5  C   UNL     1       1.656  -1.831   4.984  0.00  0.00    +0.100 C 
ATOM      6  C   UNL     1       1.462  -0.482   5.697  0.00  0.00    -0.004 C 
ATOM      7  C   UNL     1       0.322   0.219   4.944  0.00  0.00    +0.115 C 
ATOM      8  C   UNL     1       2.737   0.351   5.606  0.00  0.00    -0.010 C 
ATOM      9  C   UNL     1       2.539   1.663   6.370  0.00  0.00    -0.082 C 
ATOM     10  N   UNL     1       2.220   1.371   7.773  0.00  0.00    +0.379 N 
ATOM     11  C   UNL     1       0.945   0.649   7.857  0.00  0.00    -0.082 C 
ATOM     12  C   UNL     1       1.075  -0.706   7.155  0.00  0.00    -0.010 C 
ATOM     13  H   UNL     1       2.953   0.803   8.172  0.00  0.00    -0.086 HD
ATOM     14  H   UNL     1       2.150   2.236   8.288  0.00  0.00    -0.086 HD
ENDROOT
BRANCH   1  21
ATOM     15  C   UNL     1      -2.145   0.461   0.626  0.00  0.00    +0.044 C 
ATOM     16  C   UNL     1      -1.021  -0.489   0.304  0.00  0.00    -0.038 A 
ATOM     17  C   UNL     1      -1.060  -1.240  -0.853  0.00  0.00    +0.004 A 
ATOM     18  C   UNL     1      -0.029  -2.113  -1.150  0.00  0.00    +0.000 A 
ATOM     19  C   UNL     1       1.049  -2.239  -0.291  0.00  0.00    +0.001 A 
ATOM     20  C   UNL     1       1.101  -1.494   0.869  0.00  0.00    +0.013 A 
ATOM     21  C   UNL     1       0.066  -0.607   1.172  0.00  0.00    +0.040 A 
ENDBRANCH   1  21
BRANCH   5  22
ATOM     22  C   UNL     1       1.408  -2.972   5.938  0.00  0.00    +0.218 C 
ATOM     23  O   UNL     1       0.273  -3.329   6.174  0.00  0.00    -0.275 OA
ATOM     24  N   UNL     1       2.447  -3.595   6.528  0.00  0.00    -0.314 N 
ATOM     25  H   UNL     1       3.355  -3.309   6.338  0.00  0.00    +0.149 HD
BRANCH  24  26
ATOM     26  C   UNL     1       2.207  -4.703   7.455  0.00  0.00    +0.123 C 
BRANCH  26  27
ATOM     27  C   UNL     1       3.544  -5.229   7.980  0.00  0.00    +0.123 C 
BRANCH  27  28
ATOM     28  N   UNL     1       3.303  -6.337   8.907  0.00  0.00    -0.314 N 
ATOM     29  C   UNL     1       4.343  -6.960   9.497  0.00  0.00    +0.217 C 
ATOM     30  O   UNL     1       5.477  -6.603   9.260  0.00  0.00    -0.275 OA
ATOM     31  H   UNL     1       2.396  -6.623   9.096  0.00  0.00    +0.149 HD
BRANCH  29  32
ATOM     32  C   UNL     1       4.095  -8.100  10.450  0.00  0.00    +0.131 C 
BRANCH  32  33
ATOM     33  C   UNL     1       5.412  -8.618  10.968  0.00  0.00    -0.031 A 
ATOM     34  C   UNL     1       6.016  -9.677  10.363  0.00  0.00    +0.005 A 
ATOM     35  C   UNL     1       7.234 -10.170  10.826  0.00  0.00    +0.001 A 
ATOM     36  C   UNL     1       7.856  -9.606  11.899  0.00  0.00    +0.008 A 
ATOM     37  C   UNL     1       7.263  -8.511  12.549  0.00  0.00    -0.018 A 
ATOM     38  C   UNL     1       6.027  -8.006  12.073  0.00  0.00    -0.014 A 
ATOM     39  C   UNL     1       5.437  -6.907  12.720  0.00  0.00    +0.009 A 
ATOM     40  C   UNL     1       6.061  -6.340  13.788  0.00  0.00    +0.001 A 
ATOM     41  C   UNL     1       7.279  -6.832  14.252  0.00  0.00    +0.001 A 
ATOM     42  C   UNL     1       7.874  -7.903  13.659  0.00  0.00    +0.008 A 
ENDBRANCH  32  33
ENDBRANCH  29  32
ENDBRANCH  27  28
ENDBRANCH  26  27
ENDBRANCH  24  26
ENDBRANCH   5  22
TORSDOF 7
