REMARK  Name = ZINC00874507
REMARK  9 active torsions:
REMARK  status: ('A' for Active; 'I' for Inactive)
REMARK    1  A    between atoms: C_1  and  C_2
REMARK    2  A    between atoms: C_7  and  C_15
REMARK    3  A    between atoms: C_13  and  C_14
REMARK    4  A    between atoms: C_15  and  N_16
REMARK    5  A    between atoms: N_16  and  C_17
REMARK    6  A    between atoms: N_16  and  C_22
REMARK    7  A    between atoms: C_22  and  N_24
REMARK    8  A    between atoms: N_24  and  C_25
REMARK    9  A    between atoms: C_25  and  C_26
REMARK                            x       y       z     vdW  Elec       q    Type
REMARK                         _______ _______ _______ _____ _____    ______ ____
ROOT
ATOM      1  N   UNL     1       2.937   4.004   1.365  0.00  0.00    -0.305 N 
ENDROOT
BRANCH   1   2
ATOM      2  C   UNL     1       2.511   5.162   2.154  0.00  0.00    +0.075 C 
ATOM      3  C   UNL     1       3.743   5.893   2.727  0.00  0.00    +0.022 C 
ATOM      4  C   UNL     1       3.290   6.355   4.134  0.00  0.00    +0.002 C 
ATOM      5  C   UNL     1       2.426   5.166   4.623  0.00  0.00    +0.002 C 
ATOM      6  C   UNL     1       1.673   4.700   3.359  0.00  0.00    +0.022 C 
ENDBRANCH   1   2
BRANCH   1   7
ATOM      7  C   UNL     1       3.747   3.076   1.912  0.00  0.00    +0.134 C 
ATOM      8  S   UNL     1       4.169   3.179   3.568  0.00  0.00    -0.019 S 
BRANCH   7   9
ATOM      9  N   UNL     1       4.225   2.068   1.156  0.00  0.00    -0.319 N 
ATOM     10  H   UNL     1       4.048   2.051   0.202  0.00  0.00    +0.148 HD
BRANCH   9  11
ATOM     11  C   UNL     1       5.012   0.999   1.774  0.00  0.00    +0.177 C 
BRANCH  11  12
ATOM     12  C   UNL     1       5.423   0.004   0.719  0.00  0.00    +0.122 A 
ATOM     13  C   UNL     1       6.552   0.053  -0.011  0.00  0.00    +0.046 A 
ATOM     14  C   UNL     1       6.532  -1.069  -0.871  0.00  0.00    +0.041 A 
ATOM     15  C   UNL     1       5.393  -1.736  -0.615  0.00  0.00    +0.195 A 
ATOM     16  O   UNL     1       4.728  -1.085   0.353  0.00  0.00    -0.466 OA
ENDBRANCH  11  12
ENDBRANCH   9  11
ENDBRANCH   7   9
ENDBRANCH   1   7
BRANCH   1  17
ATOM     17  C   UNL     1       2.481   3.853  -0.020  0.00  0.00    +0.147 C 
BRANCH  17  24
ATOM     18  C   UNL     1      -5.095   1.361  -0.130  0.00  0.00    +0.044 C 
ATOM     19  C   UNL     1      -3.753   2.047  -0.118  0.00  0.00    -0.046 A 
ATOM     20  C   UNL     1      -3.691   3.434  -0.159  0.00  0.00    +0.004 A 
ATOM     21  C   UNL     1      -2.485   4.076  -0.148  0.00  0.00    +0.010 A 
ATOM     22  C   UNL     1      -1.303   3.330  -0.096  0.00  0.00    -0.001 A 
ATOM     23  C   UNL     1       0.007   3.985  -0.084  0.00  0.00    +0.020 A 
ATOM     24  C   UNL     1       1.118   3.211  -0.033  0.00  0.00    +0.035 A 
ATOM     25  C   UNL     1       1.004   1.804   0.007  0.00  0.00    +0.254 A 
ATOM     26  O   UNL     1       2.016   1.127   0.053  0.00  0.00    -0.268 OA
ATOM     27  N   UNL     1      -0.194   1.194  -0.003  0.00  0.00    -0.322 N 
ATOM     28  H   UNL     1      -0.237   0.225   0.026  0.00  0.00    +0.169 HD
ATOM     29  C   UNL     1      -1.362   1.924  -0.060  0.00  0.00    +0.052 A 
ATOM     30  C   UNL     1      -2.602   1.293  -0.066  0.00  0.00    -0.024 A 
ATOM     31  C   UNL     1      -2.684  -0.211  -0.022  0.00  0.00    +0.046 C 
ENDBRANCH  17  24
ENDBRANCH   1  17
TORSDOF 7
