REMARK  Name = ZINC09246495
REMARK  7 active torsions:
REMARK  status: ('A' for Active; 'I' for Inactive)
REMARK    1  A    between atoms: C_1  and  C_2
REMARK    2  A    between atoms: C_5  and  C_34
REMARK    3  A    between atoms: C_11  and  C_12
REMARK    4  A    between atoms: C_16  and  O_33
REMARK    5  A    between atoms: C_19  and  C_21
REMARK    6  A    between atoms: C_21  and  S_22
REMARK    7  A    between atoms: S_22  and  C_23
REMARK                            x       y       z     vdW  Elec       q    Type
REMARK                         _______ _______ _______ _____ _____    ______ ____
ROOT
ATOM      1  C   UNL     1       2.573   5.517   0.008  0.00  0.00    +0.044 C 
ATOM      2  C   UNL     1       2.499   4.012   0.001  0.00  0.00    -0.047 A 
ATOM      3  C   UNL     1       1.281   3.400   0.009  0.00  0.00    +0.015 A 
ATOM      4  C   UNL     1       1.212   2.000   0.001  0.00  0.00    +0.022 A 
ATOM      5  C   UNL     1      -0.016   1.312   0.009  0.00  0.00    +0.051 A 
ATOM      6  N   UNL     1       0.002  -0.004   0.002  0.00  0.00    -0.219 NA
ATOM      7  C   UNL     1       1.146  -0.686  -0.013  0.00  0.00    +0.222 A 
ATOM      8  N   UNL     1       2.325  -0.097  -0.020  0.00  0.00    -0.214 NA
ATOM      9  C   UNL     1       2.410   1.240  -0.014  0.00  0.00    +0.077 A 
ATOM     10  C   UNL     1       3.645   1.905  -0.021  0.00  0.00    +0.032 A 
ATOM     11  C   UNL     1       3.675   3.267  -0.014  0.00  0.00    -0.045 A 
ATOM     12  C   UNL     1       5.004   3.979  -0.022  0.00  0.00    +0.044 C 
ATOM     13  N   UNL     1       1.094  -2.072  -0.020  0.00  0.00    -0.256 N 
ATOM     14  C   UNL     1      -0.124  -2.716  -0.011  0.00  0.00    +0.189 C 
ATOM     15  N   UNL     1      -1.216  -2.018   0.003  0.00  0.00    -0.221 NA
ATOM     16  C   UNL     1      -2.539  -2.629   0.027  0.00  0.00    +0.260 C 
ATOM     17  C   UNL     1      -2.481  -4.077  -0.366  0.00  0.00    +0.047 C 
ATOM     18  C   UNL     1      -1.343  -4.739  -0.373  0.00  0.00    +0.021 C 
ATOM     19  N   UNL     1      -0.163  -4.091  -0.024  0.00  0.00    -0.290 N 
ATOM     20  C   UNL     1      -1.321   2.065   0.020  0.00  0.00    +0.066 C 
ATOM     21  H   UNL     1       1.916  -2.587  -0.030  0.00  0.00    +0.158 HD
ATOM     22  H   UNL     1       0.624  -4.606   0.212  0.00  0.00    +0.154 HD
ENDROOT
BRANCH  16  23
ATOM     23  O   UNL     1      -3.078  -2.523   1.346  0.00  0.00    -0.367 OA
ATOM     24  H   UNL     1      -3.175  -1.614   1.660  0.00  0.00    +0.212 HD
ENDBRANCH  16  23
BRANCH  18  25
ATOM     25  C   UNL     1      -1.318  -6.194  -0.766  0.00  0.00    +0.128 C 
BRANCH  25  26
ATOM     26  S   UNL     1      -0.632  -6.358  -2.433  0.00  0.00    -0.082 S 
BRANCH  26  27
ATOM     27  C   UNL     1      -0.719  -8.107  -2.628  0.00  0.00    +0.168 A 
ATOM     28  N   UNL     1      -0.322  -8.793  -3.741  0.00  0.00    -0.333 N 
ATOM     29  H   UNL     1       0.060  -8.398  -4.577  0.00  0.00    +0.168 HD
ATOM     30  C   UNL     1      -0.548 -10.138  -3.497  0.00  0.00    +0.067 A 
ATOM     31  C   UNL     1      -0.349 -11.296  -4.234  0.00  0.00    +0.028 A 
ATOM     32  C   UNL     1      -0.693 -12.519  -3.697  0.00  0.00    +0.002 A 
ATOM     33  C   UNL     1      -1.237 -12.600  -2.424  0.00  0.00    +0.002 A 
ATOM     34  C   UNL     1      -1.441 -11.460  -1.678  0.00  0.00    +0.030 A 
ATOM     35  C   UNL     1      -1.099 -10.214  -2.207  0.00  0.00    +0.090 A 
ATOM     36  N   UNL     1      -1.177  -8.944  -1.730  0.00  0.00    -0.222 NA
ENDBRANCH  26  27
ENDBRANCH  25  26
ENDBRANCH  18  25
TORSDOF 4
