REMARK  Name = ZINC10315503
REMARK  8 active torsions:
REMARK  status: ('A' for Active; 'I' for Inactive)
REMARK    1  A    between atoms: C_1  and  C_2
REMARK    2  A    between atoms: C_3  and  C_19
REMARK    3  A    between atoms: N_10  and  C_11
REMARK    4  A    between atoms: C_11  and  C_12
REMARK    5  A    between atoms: C_19  and  N_52
REMARK    6  A    between atoms: C_20  and  C_22
REMARK    7  A    between atoms: C_20  and  C_23
REMARK    8  A    between atoms: C_20  and  N_52
REMARK                            x       y       z     vdW  Elec       q    Type
REMARK                         _______ _______ _______ _____ _____    ______ ____
ROOT
ATOM      1  C   UNL     1       1.419   4.120   3.144  0.00  0.00    +0.064 C 
ATOM      2  C   UNL     1       1.374   4.268   1.645  0.00  0.00    +0.018 A 
ATOM      3  C   UNL     1       1.450   3.254   0.768  0.00  0.00    -0.036 A 
ATOM      4  C   UNL     1       1.374   3.841  -0.572  0.00  0.00    +0.001 A 
ATOM      5  C   UNL     1       1.403   3.314  -1.865  0.00  0.00    +0.010 A 
ATOM      6  C   UNL     1       1.309   4.152  -2.940  0.00  0.00    +0.001 A 
ATOM      7  C   UNL     1       1.183   5.522  -2.758  0.00  0.00    +0.002 A 
ATOM      8  C   UNL     1       1.144   6.062  -1.492  0.00  0.00    +0.026 A 
ATOM      9  C   UNL     1       1.244   5.228  -0.382  0.00  0.00    +0.050 A 
ATOM     10  N   UNL     1       1.250   5.455   0.976  0.00  0.00    -0.339 N 
ENDROOT
BRANCH  10  11
ATOM     11  C   UNL     1       1.141   6.771   1.610  0.00  0.00    +0.158 C 
BRANCH  11  12
ATOM     12  C   UNL     1      -0.290   7.016   2.015  0.00  0.00    -0.009 A 
ATOM     13  C   UNL     1      -0.722   6.659   3.279  0.00  0.00    +0.007 A 
ATOM     14  C   UNL     1      -2.034   6.884   3.650  0.00  0.00    +0.000 A 
ATOM     15  C   UNL     1      -2.915   7.466   2.758  0.00  0.00    +0.001 A 
ATOM     16  C   UNL     1      -2.485   7.824   1.494  0.00  0.00    +0.020 A 
ATOM     17  C   UNL     1      -1.170   7.604   1.124  0.00  0.00    +0.046 A 
ATOM     18 CL   UNL     1      -0.626   8.059  -0.461  0.00  0.00    -0.083 Cl
ENDBRANCH  11  12
ENDBRANCH  10  11
BRANCH   3  19
ATOM     19  C   UNL     1       1.593   1.791   1.099  0.00  0.00    -0.044 C 
BRANCH  19  20
ATOM     20  N   UNL     1       0.252   1.192   1.235  0.00  0.00    +0.386 N 
ATOM     21  H   UNL     1      -0.258   1.302   0.350  0.00  0.00    -0.085 HD
ATOM     22  H   UNL     1      -0.259   1.672   1.986  0.00  0.00    -0.085 HD
BRANCH  20  23
ATOM     23  C   UNL     1       0.362  -0.242   1.560  0.00  0.00    -0.044 C 
ATOM     24  C   UNL     1       0.522  -0.413   3.072  0.00  0.00    -0.009 C 
BRANCH  23  25
ATOM     25  C   UNL     1      -0.888  -0.950   1.104  0.00  0.00    -0.062 A 
ATOM     26  C   UNL     1      -2.123  -0.350   1.273  0.00  0.00    +0.002 A 
ATOM     27  C   UNL     1      -3.269  -0.997   0.851  0.00  0.00    +0.000 A 
ATOM     28  C   UNL     1      -3.182  -2.247   0.269  0.00  0.00    +0.000 A 
ATOM     29  C   UNL     1      -1.949  -2.849   0.104  0.00  0.00    +0.000 A 
ATOM     30  C   UNL     1      -0.802  -2.200   0.522  0.00  0.00    +0.002 A 
ENDBRANCH  23  25
ENDBRANCH  20  23
ENDBRANCH  19  20
ENDBRANCH   3  19
TORSDOF 6
