REMARK  Name = ZINC26781378
REMARK  11 active torsions:
REMARK  status: ('A' for Active; 'I' for Inactive)
REMARK    1  A    between atoms: C_1  and  C_2
REMARK    2  A    between atoms: C_2  and  C_3
REMARK    3  A    between atoms: C_6  and  O_9
REMARK    4  A    between atoms: O_9  and  C_10
REMARK    5  A    between atoms: C_10  and  C_11
REMARK    6  A    between atoms: C_11  and  C_13
REMARK    7  A    between atoms: C_11  and  O_33
REMARK    8  A    between atoms: C_13  and  N_14
REMARK    9  A    between atoms: N_17  and  C_20
REMARK   10  A    between atoms: C_20  and  C_21
REMARK   11  A    between atoms: C_20  and  C_27
REMARK                            x       y       z     vdW  Elec       q    Type
REMARK                         _______ _______ _______ _____ _____    ______ ____
ROOT
ATOM      1  N   UNL     1      -2.146   1.320   3.415  0.00  0.00    -0.303 NA
ATOM      2  C   UNL     1      -2.071   2.784   3.522  0.00  0.00    +0.066 C 
ATOM      3  C   UNL     1      -2.614   3.220   4.885  0.00  0.00    -0.062 C 
ATOM      4  N   UNL     1      -1.833   2.576   5.950  0.00  0.00    +0.389 N 
ATOM      5  C   UNL     1      -1.907   1.113   5.842  0.00  0.00    -0.062 C 
ATOM      6  C   UNL     1      -1.364   0.676   4.480  0.00  0.00    +0.066 C 
ATOM      7  H   UNL     1      -0.781   2.873   5.827  0.00  0.00    -0.080 HD
ENDROOT
BRANCH   1   8
ATOM      8  C   UNL     1      -1.703   0.867   2.089  0.00  0.00    +0.119 C 
BRANCH   8   9
ATOM      9  C   UNL     1      -2.232  -0.545   1.830  0.00  0.00    +0.166 C 
BRANCH   9  10
ATOM     10  O   UNL     1      -3.660  -0.528   1.840  0.00  0.00    -0.387 OA
ATOM     11  H   UNL     1      -4.201  -0.203   2.741  0.00  0.00    +0.210 HD
ENDBRANCH   9  10
BRANCH   9  12
ATOM     12  C   UNL     1      -1.736  -1.034   0.468  0.00  0.00    +0.261 C 
BRANCH  12  13
ATOM     13  O   UNL     1      -2.132  -2.393   0.276  0.00  0.00    -0.489 OA
BRANCH  13  17
ATOM     14  C   UNL     1      -1.029  -4.183  -3.274  0.00  0.00    -0.047 A 
ATOM     15  C   UNL     1      -1.749  -4.898  -2.335  0.00  0.00    +0.007 A 
ATOM     16  C   UNL     1      -2.120  -4.301  -1.145  0.00  0.00    +0.046 A 
ATOM     17  C   UNL     1      -1.769  -2.983  -0.893  0.00  0.00    +0.121 A 
ATOM     18  C   UNL     1      -1.051  -2.265  -1.839  0.00  0.00    +0.046 A 
ATOM     19  C   UNL     1      -0.677  -2.869  -3.025  0.00  0.00    +0.007 A 
BRANCH  14  21
ATOM     20  C   UNL     1      -1.721  -4.614  -5.616  0.00  0.00    +0.009 C 
ATOM     21  C   UNL     1      -0.626  -4.836  -4.570  0.00  0.00    +0.032 C 
ENDBRANCH  14  21
ENDBRANCH  13  17
ENDBRANCH  12  13
ENDBRANCH   9  12
ENDBRANCH   8   9
ENDBRANCH   1   8
BRANCH   4  22
ATOM     22  C   UNL     1      -2.276   3.030   7.276  0.00  0.00    -0.007 C 
BRANCH  22  23
ATOM     23  C   UNL     1      -1.351   2.478   8.330  0.00  0.00    -0.057 A 
ATOM     24  C   UNL     1       0.013   2.453   8.108  0.00  0.00    +0.002 A 
ATOM     25  C   UNL     1       0.862   1.952   9.077  0.00  0.00    +0.000 A 
ATOM     26  C   UNL     1       0.346   1.467  10.264  0.00  0.00    +0.000 A 
ATOM     27  C   UNL     1      -1.018   1.487  10.484  0.00  0.00    +0.000 A 
ATOM     28  C   UNL     1      -1.867   1.993   9.517  0.00  0.00    +0.002 A 
ENDBRANCH  22  23
BRANCH  22  29
ATOM     29  C   UNL     1      -2.253   4.536   7.325  0.00  0.00    -0.057 A 
ATOM     30  C   UNL     1      -1.155   5.226   6.847  0.00  0.00    +0.002 A 
ATOM     31  C   UNL     1      -1.136   6.608   6.888  0.00  0.00    +0.000 A 
ATOM     32  C   UNL     1      -2.211   7.299   7.415  0.00  0.00    +0.000 A 
ATOM     33  C   UNL     1      -3.307   6.608   7.898  0.00  0.00    +0.000 A 
ATOM     34  C   UNL     1      -3.328   5.226   7.853  0.00  0.00    +0.002 A 
ENDBRANCH  22  29
ENDBRANCH   4  22
TORSDOF 10
