REMARK  Name = ZINC35667569
REMARK  13 active torsions:
REMARK  status: ('A' for Active; 'I' for Inactive)
REMARK    1  A    between atoms: C_1  and  N_2
REMARK    2  A    between atoms: N_2  and  C_3
REMARK    3  A    between atoms: N_2  and  C_4
REMARK    4  A    between atoms: C_4  and  C_5
REMARK    5  A    between atoms: C_5  and  N_6
REMARK    6  A    between atoms: N_6  and  C_7
REMARK    7  A    between atoms: C_7  and  C_8
REMARK    8  A    between atoms: C_11  and  S_20
REMARK    9  A    between atoms: N_12  and  C_13
REMARK   10  A    between atoms: C_13  and  C_14
REMARK   11  A    between atoms: S_20  and  C_23
REMARK   12  A    between atoms: C_23  and  C_24
REMARK   13  A    between atoms: C_31  and  C_33
REMARK                            x       y       z     vdW  Elec       q    Type
REMARK                         _______ _______ _______ _____ _____    ______ ____
ROOT
ATOM      1  C   UNL     1       3.803   0.779  -3.415  0.00  0.00    +0.057 A 
ATOM      2  C   UNL     1       4.591   0.625  -4.496  0.00  0.00    +0.137 A 
ATOM      3  N   UNL     1       5.386   1.702  -4.586  0.00  0.00    -0.220 NA
ATOM      4  C   UNL     1       5.121   2.517  -3.602  0.00  0.00    +0.252 A 
ATOM      5  N   UNL     1       4.134   1.981  -2.851  0.00  0.00    -0.307 N 
ENDROOT
BRANCH   4   6
ATOM      6  S   UNL     1       5.913   4.062  -3.306  0.00  0.00    +0.034 S 
ATOM      7  O   UNL     1       5.641   4.354  -1.942  0.00  0.00    -0.166 OA
ATOM      8  O   UNL     1       7.249   3.877  -3.755  0.00  0.00    -0.166 OA
BRANCH   6   9
ATOM      9  C   UNL     1       5.051   5.242  -4.382  0.00  0.00    +0.210 C 
BRANCH   9  10
ATOM     10  C   UNL     1       5.704   6.595  -4.268  0.00  0.00    -0.026 A 
ATOM     11  C   UNL     1       5.268   7.494  -3.312  0.00  0.00    +0.008 A 
ATOM     12  C   UNL     1       5.866   8.735  -3.207  0.00  0.00    +0.038 A 
ATOM     13  C   UNL     1       6.902   9.079  -4.059  0.00  0.00    +0.123 A 
ATOM     14  C   UNL     1       7.338   8.178  -5.015  0.00  0.00    +0.038 A 
ATOM     15  C   UNL     1       6.742   6.935  -5.116  0.00  0.00    +0.008 A 
ATOM     16  F   UNL     1       7.487  10.292  -3.957  0.00  0.00    -0.205 F 
ENDBRANCH   9  10
ENDBRANCH   6   9
ENDBRANCH   4   6
BRANCH   1  17
ATOM     17  C   UNL     1       2.753  -0.185  -2.924  0.00  0.00    +0.162 C 
BRANCH  17  18
ATOM     18  N   UNL     1       3.338  -1.072  -1.916  0.00  0.00    -0.297 N 
ATOM     19  C   UNL     1       4.006  -2.179  -2.298  0.00  0.00    +0.219 C 
ATOM     20  O   UNL     1       4.122  -2.440  -3.477  0.00  0.00    -0.275 OA
BRANCH  19  21
ATOM     21  C   UNL     1       4.608  -3.092  -1.261  0.00  0.00    +0.075 C 
ATOM     22  C   UNL     1       6.134  -3.153  -1.175  0.00  0.00    +0.013 C 
ATOM     23  C   UNL     1       5.353  -4.332  -1.759  0.00  0.00    +0.013 C 
ENDBRANCH  19  21
BRANCH  18  24
ATOM     24  C   UNL     1       3.198  -0.757  -0.492  0.00  0.00    +0.089 C 
BRANCH  24  25
ATOM     25  C   UNL     1       1.869  -1.312   0.025  0.00  0.00    -0.060 C 
BRANCH  25  27
ATOM     26  C   UNL     1       1.521   0.539   1.509  0.00  0.00    -0.097 C 
ATOM     27  N   UNL     1       1.686  -0.918   1.428  0.00  0.00    +0.377 N 
ATOM     28  C   UNL     1       0.490  -1.577   1.970  0.00  0.00    -0.097 C 
ATOM     29  H   UNL     1       2.495  -1.195   1.963  0.00  0.00    -0.083 HD
ENDBRANCH  25  27
ENDBRANCH  24  25
ENDBRANCH  18  24
ENDBRANCH  17  18
ENDBRANCH   1  17
BRANCH   5  30
ATOM     30  C   UNL     1       3.534   2.575  -1.654  0.00  0.00    +0.160 C 
BRANCH  30  31
ATOM     31  C   UNL     1       2.379   3.456  -2.055  0.00  0.00    -0.028 A 
ATOM     32  C   UNL     1       2.581   4.807  -2.267  0.00  0.00    +0.005 A 
ATOM     33  C   UNL     1       1.522   5.615  -2.635  0.00  0.00    +0.000 A 
ATOM     34  C   UNL     1       0.260   5.072  -2.793  0.00  0.00    +0.000 A 
ATOM     35  C   UNL     1       0.058   3.721  -2.582  0.00  0.00    +0.000 A 
ATOM     36  C   UNL     1       1.119   2.912  -2.218  0.00  0.00    +0.005 A 
ENDBRANCH  30  31
ENDBRANCH   5  30
TORSDOF 11
