REMARK  Name = ZINC42097985
REMARK  5 active torsions:
REMARK  status: ('A' for Active; 'I' for Inactive)
REMARK    1  A    between atoms: C_6  and  C_7
REMARK    2  A    between atoms: N_10  and  C_14
REMARK    3  A    between atoms: C_17  and  N_24
REMARK    4  A    between atoms: C_19  and  S_20
REMARK    5  A    between atoms: S_20  and  N_23
REMARK                            x       y       z     vdW  Elec       q    Type
REMARK                         _______ _______ _______ _____ _____    ______ ____
ROOT
ATOM      1  C   UNL     1      -3.909  -2.090  -2.109  0.00  0.00    +0.057 A 
ATOM      2  C   UNL     1      -5.004  -1.382  -1.630  0.00  0.00    +0.027 A 
ATOM      3  C   UNL     1      -6.055  -1.085  -2.475  0.00  0.00    +0.034 A 
ATOM      4  C   UNL     1      -6.019  -1.492  -3.796  0.00  0.00    +0.128 A 
ATOM      5  C   UNL     1      -4.931  -2.198  -4.276  0.00  0.00    +0.063 A 
ATOM      6  C   UNL     1      -3.874  -2.493  -3.438  0.00  0.00    +0.128 A 
ENDROOT
BRANCH   1   9
ATOM      7  C   UNL     1      -1.392  -1.204   0.298  0.00  0.00    +0.165 C 
ATOM      8  C   UNL     1      -1.665  -1.514  -1.178  0.00  0.00    +0.141 C 
ATOM      9  N   UNL     1      -2.844  -2.392  -1.257  0.00  0.00    -0.323 N 
ATOM     10  C   UNL     1      -2.867  -3.597  -0.413  0.00  0.00    +0.133 C 
ATOM     11  C   UNL     1      -2.535  -3.185   1.026  0.00  0.00    +0.179 C 
ATOM     12  O   UNL     1      -1.322  -2.428   1.032  0.00  0.00    -0.369 OA
BRANCH   7  18
ATOM     13  C   UNL     1      -0.078   0.908   0.579  0.00  0.00    +0.009 A 
ATOM     14  C   UNL     1       1.121   1.585   0.694  0.00  0.00    +0.039 A 
ATOM     15  C   UNL     1       2.316   0.888   0.654  0.00  0.00    +0.123 A 
ATOM     16  C   UNL     1       2.309  -0.488   0.499  0.00  0.00    +0.039 A 
ATOM     17  C   UNL     1       1.109  -1.163   0.384  0.00  0.00    +0.009 A 
ATOM     18  C   UNL     1      -0.084  -0.466   0.424  0.00  0.00    -0.017 A 
ATOM     19  F   UNL     1       3.489   1.550   0.766  0.00  0.00    -0.205 F 
ENDBRANCH   7  18
ENDBRANCH   1   9
BRANCH   6  20
ATOM     20  S   UNL     1      -2.485  -3.386  -4.052  0.00  0.00    +0.058 S 
ATOM     21  O   UNL     1      -2.229  -4.430  -3.122  0.00  0.00    -0.153 OA
ATOM     22  O   UNL     1      -2.739  -3.637  -5.427  0.00  0.00    -0.153 OA
BRANCH  20  23
ATOM     23  N   UNL     1      -1.181  -2.367  -3.990  0.00  0.00    -0.203 NA
ATOM     24  H   UNL     1      -0.284  -2.730  -3.913  0.00  0.00    +0.144 HD
ATOM     25  H   UNL     1      -1.313  -1.407  -4.030  0.00  0.00    +0.144 HD
ENDBRANCH  20  23
ENDBRANCH   6  20
BRANCH   4  26
ATOM     26  N   UNL     1      -7.148  -1.172  -4.698  0.00  0.00    +0.056 N 
ATOM     27  O   UNL     1      -8.100  -0.555  -4.280  0.00  0.00    -0.126 OA
ATOM     28  O   UNL     1      -7.117  -1.527  -5.854  0.00  0.00    -0.126 OA
ENDBRANCH   4  26
TORSDOF 5
