REMARK  Name = ZINC66347451
REMARK  8 active torsions:
REMARK  status: ('A' for Active; 'I' for Inactive)
REMARK    1  A    between atoms: C_1  and  O_2
REMARK    2  A    between atoms: O_2  and  C_3
REMARK    3  A    between atoms: C_8  and  C_9
REMARK    4  A    between atoms: C_12  and  S_15
REMARK    5  A    between atoms: S_15  and  C_16
REMARK    6  A    between atoms: C_16  and  C_17
REMARK    7  A    between atoms: C_17  and  C_19
REMARK    8  A    between atoms: C_17  and  O_26
REMARK                            x       y       z     vdW  Elec       q    Type
REMARK                         _______ _______ _______ _____ _____    ______ ____
ROOT
ATOM      1  C   UNL     1       0.063  -2.829  -0.053  0.00  0.00    +0.186 A 
ATOM      2  N   UNL     1       0.055  -4.170  -0.013  0.00  0.00    -0.201 NA
ATOM      3  H   UNL     1      -1.431  -3.470   2.611  0.00  0.00    +0.191 HD
ATOM      4  C   UNL     1      -0.556  -4.576   1.078  0.00  0.00    +0.185 A 
ATOM      5  N   UNL     1      -0.955  -3.483   1.766  0.00  0.00    -0.253 N 
ATOM      6  N   UNL     1      -0.540  -2.368   1.019  0.00  0.00    -0.151 NA
ENDROOT
BRANCH   1  12
ATOM      7  C   UNL     1       0.606  -0.607  -1.055  0.00  0.00    +0.131 A 
ATOM      8  C   UNL     1       1.173   0.159  -2.062  0.00  0.00    +0.048 A 
ATOM      9  C   UNL     1       1.786  -0.455  -3.137  0.00  0.00    +0.023 A 
ATOM     10  C   UNL     1       1.839  -1.837  -3.216  0.00  0.00    +0.042 A 
ATOM     11  C   UNL     1       1.277  -2.611  -2.220  0.00  0.00    +0.035 A 
ATOM     12  C   UNL     1       0.662  -2.002  -1.129  0.00  0.00    +0.064 A 
ATOM     13 CL   UNL     1       2.612  -2.597  -4.571  0.00  0.00    -0.084 Cl
BRANCH   7  15
ATOM     14  C   UNL     1      -0.017   1.425   0.010  0.00  0.00    +0.277 C 
ATOM     15  O   UNL     1       0.002  -0.004   0.002  0.00  0.00    -0.494 OA
ENDBRANCH   7  15
ENDBRANCH   1  12
BRANCH   4  16
ATOM     16  S   UNL     1      -0.810  -6.251   1.560  0.00  0.00    -0.084 S 
BRANCH  16  17
ATOM     17  C   UNL     1      -0.047  -7.212   0.224  0.00  0.00    +0.113 C 
BRANCH  17  18
ATOM     18  C   UNL     1      -0.198  -8.706   0.519  0.00  0.00    +0.155 C 
BRANCH  18  19
ATOM     19  C   UNL     1       0.435  -9.504  -0.591  0.00  0.00    -0.018 A 
ATOM     20  C   UNL     1       1.791  -9.776  -0.559  0.00  0.00    +0.009 A 
ATOM     21  C   UNL     1       2.373 -10.508  -1.576  0.00  0.00    +0.039 A 
ATOM     22  C   UNL     1       1.599 -10.970  -2.627  0.00  0.00    +0.123 A 
ATOM     23  C   UNL     1       0.241 -10.697  -2.658  0.00  0.00    +0.039 A 
ATOM     24  C   UNL     1      -0.340  -9.969  -1.637  0.00  0.00    +0.009 A 
ATOM     25  F   UNL     1       2.167 -11.686  -3.622  0.00  0.00    -0.205 F 
ENDBRANCH  18  19
BRANCH  18  26
ATOM     26  O   UNL     1       0.447  -9.014   1.756  0.00  0.00    -0.386 OA
ATOM     27  H   UNL     1       1.393  -8.816   1.767  0.00  0.00    +0.210 HD
ENDBRANCH  18  26
ENDBRANCH  17  18
ENDBRANCH  16  17
ENDBRANCH   4  16
TORSDOF 7
