REMARK  Name = ZINC00267939
REMARK  4 active torsions:
REMARK  status: ('A' for Active; 'I' for Inactive)
REMARK    1  A    between atoms: C_4  and  N_7
REMARK    2  A    between atoms: N_9  and  C_10
REMARK    3  A    between atoms: C_10  and  C_16
REMARK    4  A    between atoms: C_22  and  O_24
REMARK                            x       y       z     vdW  Elec       q    Type
REMARK                         _______ _______ _______ _____ _____    ______ ____
ROOT
ATOM      1  C   UNL     1       4.671  -4.139  -0.159  0.00  0.00    +0.045 C 
ATOM      2  C   UNL     1       3.939  -4.741   1.043  0.00  0.00    +0.028 C 
ATOM      3  C   UNL     1       2.491  -4.247   1.058  0.00  0.00    +0.002 C 
ATOM      4  C   UNL     1       1.792  -4.679  -0.233  0.00  0.00    +0.000 C 
ATOM      5  C   UNL     1       2.524  -4.077  -1.435  0.00  0.00    +0.002 C 
ATOM      6  C   UNL     1       3.972  -4.571  -1.450  0.00  0.00    +0.028 C 
ENDROOT
BRANCH   1   9
ATOM      7  N   UNL     1       5.590  -0.645  -0.835  0.00  0.00    -0.295 N 
ATOM      8  C   UNL     1       5.151  -1.918  -1.080  0.00  0.00    +0.143 C 
ATOM      9  N   UNL     1       4.654  -2.678  -0.059  0.00  0.00    -0.361 N 
ATOM     10  S   UNL     1       5.223  -2.538  -2.618  0.00  0.00    -0.016 SA
ATOM     11  H   UNL     1       5.880  -0.396   0.056  0.00  0.00    +0.154 HD
ATOM     12  H   UNL     1       4.290  -2.250   0.731  0.00  0.00    +0.162 HD
BRANCH   7  16
ATOM     13  C   UNL     1       5.675   2.159  -3.915  0.00  0.00    +0.000 A 
ATOM     14  C   UNL     1       4.660   1.221  -3.864  0.00  0.00    +0.002 A 
ATOM     15  C   UNL     1       4.629   0.290  -2.844  0.00  0.00    +0.023 A 
ATOM     16  C   UNL     1       5.618   0.296  -1.869  0.00  0.00    +0.033 A 
ATOM     17  C   UNL     1       6.636   1.240  -1.924  0.00  0.00    +0.023 A 
ATOM     18  C   UNL     1       6.661   2.168  -2.946  0.00  0.00    +0.002 A 
ENDBRANCH   7  16
ENDBRANCH   1   9
BRANCH   1  19
ATOM     19  C   UNL     1       6.119  -4.633  -0.173  0.00  0.00    +0.043 C 
ATOM     20  C   UNL     1       6.857  -4.014  -1.363  0.00  0.00    +0.008 C 
ATOM     21  C   UNL     1       8.305  -4.508  -1.377  0.00  0.00    +0.001 C 
ATOM     22  C   UNL     1       8.997  -4.095  -0.077  0.00  0.00    +0.003 C 
ATOM     23  C   UNL     1       8.260  -4.713   1.113  0.00  0.00    +0.032 C 
ATOM     24  C   UNL     1       6.812  -4.220   1.127  0.00  0.00    +0.120 C 
BRANCH  24  25
ATOM     25  O   UNL     1       6.795  -2.796   1.244  0.00  0.00    -0.391 OA
ATOM     26  H   UNL     1       7.218  -2.462   2.047  0.00  0.00    +0.210 HD
ENDBRANCH  24  25
ENDBRANCH   1  19
TORSDOF 4
