REMARK  Name = ZINC14732236
REMARK  15 active torsions:
REMARK  status: ('A' for Active; 'I' for Inactive)
REMARK    1  A    between atoms: C_1  and  C_2
REMARK    2  A    between atoms: C_2  and  N_3
REMARK    3  A    between atoms: N_3  and  C_4
REMARK    4  A    between atoms: C_4  and  C_5
REMARK    5  A    between atoms: C_6  and  C_8
REMARK    6  A    between atoms: C_8  and  O_9
REMARK    7  A    between atoms: O_9  and  C_10
REMARK    8  A    between atoms: N_13  and  C_28
REMARK    9  A    between atoms: N_17  and  C_19
REMARK   10  A    between atoms: C_19  and  C_20
REMARK   11  A    between atoms: C_23  and  O_26
REMARK   12  A    between atoms: O_26  and  C_27
REMARK   13  A    between atoms: C_28  and  C_29
REMARK   14  A    between atoms: N_31  and  C_35
REMARK   15  A    between atoms: C_33  and  C_34
REMARK                            x       y       z     vdW  Elec       q    Type
REMARK                         _______ _______ _______ _____ _____    ______ ____
ROOT
ATOM      1  C   UNL     1      -1.627  -0.461   4.968  0.00  0.00    +0.150 C 
ATOM      2  C   UNL     1      -2.160  -1.541   5.891  0.00  0.00    +0.118 C 
ATOM      3  N   UNL     1      -1.542  -1.548   7.211  0.00  0.00    -0.287 NA
ATOM      4  C   UNL     1      -1.892  -0.360   8.000  0.00  0.00    +0.181 C 
ATOM      5  C   UNL     1      -0.928   0.755   7.652  0.00  0.00    +0.230 C 
ATOM      6  O   UNL     1      -0.089   1.101   8.457  0.00  0.00    -0.274 OA
ATOM      7  N   UNL     1      -0.998   1.358   6.462  0.00  0.00    -0.294 N 
ATOM      8  C   UNL     1      -2.011   0.929   5.482  0.00  0.00    +0.141 C 
ENDROOT
BRANCH   1   9
ATOM      9  O   UNL     1      -2.175  -0.647   3.661  0.00  0.00    -0.365 OA
BRANCH   9  10
ATOM     10  C   UNL     1      -1.315  -0.214   2.604  0.00  0.00    +0.256 C 
BRANCH  10  12
ATOM     11  N   UNL     1      -1.362  -0.124   0.133  0.00  0.00    -0.300 N 
ATOM     12  C   UNL     1      -1.989  -0.456   1.278  0.00  0.00    +0.241 C 
ATOM     13  O   UNL     1      -3.097  -0.950   1.242  0.00  0.00    -0.273 OA
BRANCH  11  15
ATOM     14  C   UNL     1      -0.148   1.996   0.252  0.00  0.00    +0.024 C 
ATOM     15  C   UNL     1      -0.025   0.473   0.177  0.00  0.00    +0.104 C 
ENDBRANCH  11  15
BRANCH  11  16
ATOM     16  C   UNL     1      -2.017  -0.358  -1.156  0.00  0.00    +0.104 C 
ATOM     17  C   UNL     1      -1.657  -1.756  -1.664  0.00  0.00    +0.024 C 
ENDBRANCH  11  16
ENDBRANCH  10  12
ENDBRANCH   9  10
ENDBRANCH   1   9
BRANCH   7  18
ATOM     18  C   UNL     1      -0.071   2.443   6.133  0.00  0.00    +0.143 C 
BRANCH  18  19
ATOM     19  C   UNL     1       1.164   1.869   5.487  0.00  0.00    -0.030 A 
ATOM     20  C   UNL     1       2.240   1.490   6.269  0.00  0.00    +0.009 A 
ATOM     21  C   UNL     1       3.373   0.964   5.678  0.00  0.00    +0.046 A 
ATOM     22  C   UNL     1       3.431   0.816   4.300  0.00  0.00    +0.120 A 
ATOM     23  C   UNL     1       2.350   1.197   3.518  0.00  0.00    +0.046 A 
ATOM     24  C   UNL     1       1.217   1.717   4.113  0.00  0.00    +0.009 A 
BRANCH  22  25
ATOM     25  O   UNL     1       4.544   0.300   3.717  0.00  0.00    -0.495 OA
ATOM     26  C   UNL     1       4.534   0.176   2.294  0.00  0.00    +0.277 C 
ENDBRANCH  22  25
ENDBRANCH  18  19
ENDBRANCH   7  18
BRANCH   3  27
ATOM     27  C   UNL     1      -1.873  -2.780   7.940  0.00  0.00    +0.123 C 
BRANCH  27  28
ATOM     28  C   UNL     1      -0.931  -2.942   9.105  0.00  0.00    +0.007 A 
ATOM     29  C   UNL     1      -1.234  -2.737  10.408  0.00  0.00    +0.113 A 
ATOM     30  N   UNL     1      -0.124  -2.987  11.133  0.00  0.00    -0.274 N 
ATOM     31  N   UNL     1       0.895  -3.358  10.246  0.00  0.00    -0.176 NA
ATOM     32  C   UNL     1       0.409  -3.336   9.032  0.00  0.00    +0.064 A 
ATOM     33  C   UNL     1       1.163  -3.673   7.772  0.00  0.00    +0.068 C 
ATOM     34  C   UNL     1      -0.005  -2.889  12.590  0.00  0.00    +0.172 C 
ENDBRANCH  27  28
ENDBRANCH   3  27
TORSDOF 10
