REMARK  Name = ZINC45945424
REMARK  10 active torsions:
REMARK  status: ('A' for Active; 'I' for Inactive)
REMARK    1  A    between atoms: C_1  and  C_2
REMARK    2  A    between atoms: C_5  and  C_31
REMARK    3  A    between atoms: N_8  and  C_10
REMARK    4  A    between atoms: C_10  and  C_11
REMARK    5  A    between atoms: C_11  and  N_12
REMARK    6  A    between atoms: N_12  and  C_13
REMARK    7  A    between atoms: N_12  and  S_23
REMARK    8  A    between atoms: C_13  and  C_14
REMARK    9  A    between atoms: C_14  and  C_15
REMARK   10  A    between atoms: S_23  and  C_26
REMARK                            x       y       z     vdW  Elec       q    Type
REMARK                         _______ _______ _______ _____ _____    ______ ____
ROOT
ATOM      1  N   UNL     1       1.209  -2.551   4.896  0.00  0.00    -0.177 NA
ENDROOT
BRANCH   1   2
ATOM      2  S   UNL     1       0.758  -4.004   5.552  0.00  0.00    +0.067 S 
ATOM      3  O   UNL     1       0.957  -3.896   6.954  0.00  0.00    -0.152 OA
ATOM      4  O   UNL     1      -0.502  -4.332   4.984  0.00  0.00    -0.152 OA
BRANCH   2   5
ATOM      5  C   UNL     1       1.901  -5.213   4.973  0.00  0.00    +0.143 A 
ATOM      6  C   UNL     1       3.070  -5.619   5.528  0.00  0.00    +0.036 A 
ATOM      7  C   UNL     1       3.812  -6.595   4.891  0.00  0.00    +0.010 A 
ATOM      8  C   UNL     1       3.350  -7.118   3.728  0.00  0.00    +0.047 A 
ATOM      9  S   UNL     1       1.818  -6.228   3.506  0.00  0.00    -0.077 S 
ENDBRANCH   2   5
ENDBRANCH   1   2
BRANCH   1  10
ATOM     10  C   UNL     1       0.566  -2.069   3.672  0.00  0.00    +0.091 C 
BRANCH  10  11
ATOM     11  C   UNL     1       1.413  -2.463   2.461  0.00  0.00    -0.061 C 
BRANCH  11  17
ATOM     12  C   UNL     1      -0.019   1.526   0.010  0.00  0.00    +0.005 C 
ATOM     13  C   UNL     1       0.002  -0.004   0.002  0.00  0.00    -0.031 C 
ATOM     14  C   UNL     1       0.721  -0.499  -1.257  0.00  0.00    +0.003 C 
ATOM     15  C   UNL     1       0.805  -2.027  -1.217  0.00  0.00    -0.031 C 
ATOM     16  C   UNL     1       1.518  -2.460   0.066  0.00  0.00    -0.076 C 
ATOM     17  N   UNL     1       0.768  -1.979   1.233  0.00  0.00    +0.381 N 
ATOM     18  C   UNL     1       0.744  -0.512   1.240  0.00  0.00    -0.076 C 
ATOM     19  C   UNL     1      -0.606  -2.618  -1.242  0.00  0.00    +0.005 C 
ATOM     20  H   UNL     1      -0.177  -2.330   1.192  0.00  0.00    -0.082 HD
ENDBRANCH  11  17
ENDBRANCH  10  11
ENDBRANCH   1  10
BRANCH   1  21
ATOM     21  C   UNL     1       2.251  -1.748   5.541  0.00  0.00    +0.118 C 
BRANCH  21  22
ATOM     22  C   UNL     1       1.601  -0.716   6.464  0.00  0.00    +0.113 C 
BRANCH  22  23
ATOM     23  C   UNL     1       2.673   0.110   7.128  0.00  0.00    +0.217 C 
ATOM     24  O   UNL     1       3.842  -0.106   6.886  0.00  0.00    -0.276 OA
ATOM     25  N   UNL     1       2.333   1.089   7.990  0.00  0.00    -0.299 N 
ATOM     26  C   UNL     1       0.922   1.364   8.302  0.00  0.00    +0.123 C 
ATOM     27  C   UNL     1       0.664   2.862   8.111  0.00  0.00    +0.100 C 
ATOM     28  N   UNL     1       1.636   3.628   8.903  0.00  0.00    -0.313 NA
ATOM     29  C   UNL     1       3.009   3.388   8.440  0.00  0.00    +0.100 C 
ATOM     30  C   UNL     1       3.363   1.907   8.648  0.00  0.00    +0.123 C 
ATOM     31  H   UNL     1       1.417   4.612   8.891  0.00  0.00    +0.122 HD
ENDBRANCH  22  23
ENDBRANCH  21  22
ENDBRANCH   1  21
TORSDOF 8
