REMARK  Name = ZINC39631222
REMARK  15 active torsions:
REMARK  status: ('A' for Active; 'I' for Inactive)
REMARK    1  A    between atoms: C_1  and  C_2
REMARK    2  A    between atoms: C_2  and  C_3
REMARK    3  A    between atoms: C_3  and  C_4
REMARK    4  A    between atoms: C_4  and  C_6
REMARK    5  A    between atoms: C_4  and  C_7
REMARK    6  A    between atoms: C_11  and  C_20
REMARK    7  A    between atoms: N_22  and  C_23
REMARK    8  A    between atoms: C_23  and  C_25
REMARK    9  A    between atoms: C_23  and  C_26
REMARK   10  A    between atoms: C_26  and  C_27
REMARK   11  A    between atoms: C_27  and  C_28
REMARK   12  A    between atoms: C_28  and  C_29
REMARK   13  A    between atoms: C_29  and  C_30
REMARK   14  A    between atoms: C_29  and  C_31
REMARK   15  A    between atoms: C_29  and  O_32
REMARK                            x       y       z     vdW  Elec       q    Type
REMARK                         _______ _______ _______ _____ _____    ______ ____
ROOT
ATOM      1  C   UNL     1       0.410  -2.125  -2.904  0.00  0.00    +0.218 C 
ATOM      2  O   UNL     1      -0.436  -1.714  -2.140  0.00  0.00    -0.275 OA
ATOM      3  N   UNL     1       0.719  -3.437  -2.926  0.00  0.00    -0.300 N 
ATOM      4  C   UNL     1       0.080  -4.533  -2.160  0.00  0.00    +0.121 C 
ATOM      5  C   UNL     1       0.015  -5.716  -3.152  0.00  0.00    +0.100 C 
ATOM      6  C   UNL     1       1.130  -5.434  -4.173  0.00  0.00    -0.004 C 
ATOM      7  C   UNL     1       1.769  -4.110  -3.727  0.00  0.00    +0.115 C 
ATOM      8  C   UNL     1       2.164  -6.555  -4.150  0.00  0.00    -0.010 C 
ATOM      9  C   UNL     1       3.231  -6.281  -5.213  0.00  0.00    -0.082 C 
ATOM     10  N   UNL     1       2.598  -6.199  -6.535  0.00  0.00    +0.379 N 
ATOM     11  C   UNL     1       1.673  -5.060  -6.577  0.00  0.00    -0.082 C 
ATOM     12  C   UNL     1       0.540  -5.283  -5.571  0.00  0.00    -0.010 C 
ATOM     13  H   UNL     1       3.309  -6.079  -7.241  0.00  0.00    -0.086 HD
ATOM     14  H   UNL     1       2.089  -7.051  -6.716  0.00  0.00    -0.086 HD
ENDROOT
BRANCH   5  15
ATOM     15  C   UNL     1      -1.327  -5.756  -3.835  0.00  0.00    +0.218 C 
ATOM     16  O   UNL     1      -1.962  -4.733  -3.985  0.00  0.00    -0.275 OA
ATOM     17  N   UNL     1      -1.823  -6.928  -4.280  0.00  0.00    -0.312 N 
ATOM     18  H   UNL     1      -1.349  -7.755  -4.098  0.00  0.00    +0.149 HD
BRANCH  17  19
ATOM     19  C   UNL     1      -3.076  -6.952  -5.038  0.00  0.00    +0.070 C 
ATOM     20  C   UNL     1      -2.782  -6.705  -6.519  0.00  0.00    +0.028 C 
BRANCH  19  21
ATOM     21  C   UNL     1      -3.745  -8.318  -4.872  0.00  0.00    +0.022 C 
BRANCH  21  22
ATOM     22  C   UNL     1      -4.161  -8.509  -3.412  0.00  0.00    +0.005 C 
BRANCH  22  23
ATOM     23  C   UNL     1      -4.727  -9.918  -3.222  0.00  0.00    +0.034 C 
BRANCH  23  24
ATOM     24  C   UNL     1      -5.258 -10.066  -1.795  0.00  0.00    +0.061 C 
ATOM     25  C   UNL     1      -5.793 -11.485  -1.595  0.00  0.00    +0.041 C 
ATOM     26  C   UNL     1      -4.127  -9.801  -0.799  0.00  0.00    +0.041 C 
BRANCH  24  27
ATOM     27  O   UNL     1      -6.312  -9.125  -1.579  0.00  0.00    -0.389 OA
ATOM     28  H   UNL     1      -7.065  -9.234  -2.177  0.00  0.00    +0.210 HD
ENDBRANCH  24  27
ENDBRANCH  23  24
ENDBRANCH  22  23
ENDBRANCH  21  22
ENDBRANCH  19  21
ENDBRANCH  17  19
ENDBRANCH   5  15
BRANCH   1  29
ATOM     29  C   UNL     1       1.118  -1.169  -3.830  0.00  0.00    +0.072 C 
ATOM     30  C   UNL     1       2.445  -0.739  -3.202  0.00  0.00    +0.017 C 
BRANCH  29  31
ATOM     31  C   UNL     1       0.240   0.062  -4.060  0.00  0.00    +0.012 C 
BRANCH  31  33
ATOM     32  C   UNL     1       0.023   2.206  -5.326  0.00  0.00    +0.004 C 
ATOM     33  C   UNL     1       0.901   0.974  -5.096  0.00  0.00    -0.003 C 
ENDBRANCH  31  33
ENDBRANCH  29  31
ENDBRANCH   1  29
TORSDOF 10
