REMARK  Name = ZINC16667180
REMARK  8 active torsions:
REMARK  status: ('A' for Active; 'I' for Inactive)
REMARK    1  A    between atoms: C_1  and  C_2
REMARK    2  A    between atoms: C_5  and  N_11
REMARK    3  A    between atoms: C_6  and  N_8
REMARK    4  A    between atoms: N_11  and  C_12
REMARK    5  A    between atoms: C_14  and  O_26
REMARK    6  A    between atoms: C_16  and  O_25
REMARK    7  A    between atoms: C_18  and  O_24
REMARK    8  A    between atoms: C_20  and  C_23
REMARK                            x       y       z     vdW  Elec       q    Type
REMARK                         _______ _______ _______ _____ _____    ______ ____
ROOT
ATOM      1  C   UNL     1       3.417   1.775   1.267  0.00  0.00    +0.235 C 
ATOM      2  C   UNL     1       2.058   1.070   1.244  0.00  0.00    +0.192 C 
ATOM      3  C   UNL     1       1.282   1.515   0.000  0.00  0.00    +0.178 C 
ATOM      4  C   UNL     1       1.145   3.040   0.016  0.00  0.00    +0.174 C 
ATOM      5  C   UNL     1       2.539   3.669   0.087  0.00  0.00    +0.149 C 
ATOM      6  O   UNL     1       3.218   3.190   1.249  0.00  0.00    -0.351 OA
ATOM      7  C   UNL     1       2.408   5.192   0.163  0.00  0.00    +0.041 C 
ENDROOT
BRANCH   1   8
ATOM      8  N   UNL     1       4.194   1.376   0.091  0.00  0.00    -0.315 N 
ATOM      9  H   UNL     1       3.744   1.190  -0.748  0.00  0.00    +0.149 HD
BRANCH   8  14
ATOM     10  C   UNL     1       9.835   0.920   0.443  0.00  0.00    +0.044 C 
ATOM     11  C   UNL     1       8.336   1.041   0.349  0.00  0.00    -0.048 A 
ATOM     12  C   UNL     1       7.591   1.285   1.489  0.00  0.00    +0.005 A 
ATOM     13  C   UNL     1       6.217   1.397   1.407  0.00  0.00    +0.025 A 
ATOM     14  C   UNL     1       5.583   1.264   0.178  0.00  0.00    +0.060 A 
ATOM     15  C   UNL     1       6.334   1.012  -0.964  0.00  0.00    +0.147 A 
ATOM     16  C   UNL     1       7.708   0.907  -0.875  0.00  0.00    +0.038 A 
BRANCH  15  17
ATOM     17  N   UNL     1       5.662   0.863  -2.274  0.00  0.00    +0.058 N 
ATOM     18  O   UNL     1       6.306   0.531  -3.254  0.00  0.00    -0.126 OA
ATOM     19  O   UNL     1       4.467   1.073  -2.373  0.00  0.00    -0.126 OA
ENDBRANCH  15  17
ENDBRANCH   8  14
ENDBRANCH   1   8
BRANCH   4  20
ATOM     20  O   UNL     1       0.485   3.473  -1.176  0.00  0.00    -0.387 OA
ATOM     21  H   UNL     1       0.365   4.431  -1.233  0.00  0.00    +0.210 HD
ENDBRANCH   4  20
BRANCH   3  22
ATOM     22  O   UNL     1      -0.017   0.918   0.009  0.00  0.00    -0.386 OA
ATOM     23  H   UNL     1      -0.006  -0.049   0.006  0.00  0.00    +0.210 HD
ENDBRANCH   3  22
BRANCH   2  24
ATOM     24  O   UNL     1       1.319   1.416   2.417  0.00  0.00    -0.385 OA
ATOM     25  H   UNL     1       1.753   1.163   3.244  0.00  0.00    +0.210 HD
ENDBRANCH   2  24
TORSDOF 6
