REMARK  Name = ZINC58680220
REMARK  11 active torsions:
REMARK  status: ('A' for Active; 'I' for Inactive)
REMARK    1  A    between atoms: C_1  and  C_2
REMARK    2  A    between atoms: C_2  and  O_3
REMARK    3  A    between atoms: O_3  and  C_4
REMARK    4  A    between atoms: C_4  and  C_6
REMARK    5  A    between atoms: C_10  and  N_11
REMARK    6  A    between atoms: C_12  and  C_14
REMARK    7  A    between atoms: C_14  and  N_15
REMARK    8  A    between atoms: C_19  and  C_21
REMARK    9  A    between atoms: N_23  and  C_24
REMARK   10  A    between atoms: C_24  and  C_25
REMARK   11  A    between atoms: C_31  and  C_35
REMARK                            x       y       z     vdW  Elec       q    Type
REMARK                         _______ _______ _______ _____ _____    ______ ____
ROOT
ATOM      1  N   UNL     1      -3.033  -2.524   2.498  0.00  0.00    -0.281 N 
ATOM      2  C   UNL     1      -3.808  -2.867   3.546  0.00  0.00    +0.201 C 
ATOM      3  O   UNL     1      -4.910  -3.337   3.357  0.00  0.00    -0.278 OA
ATOM      4  H   UNL     1      -2.152  -2.147   2.650  0.00  0.00    +0.155 HD
ENDROOT
BRANCH   1   9
ATOM      5  C   UNL     1      -2.842  -2.416   0.016  0.00  0.00    +0.091 A 
ATOM      6  C   UNL     1      -3.548  -2.714  -1.219  0.00  0.00    -0.021 A 
ATOM      7  C   UNL     1      -4.777  -3.242  -1.039  0.00  0.00    -0.004 A 
ATOM      8  S   UNL     1      -4.974  -3.335   0.716  0.00  0.00    -0.077 S 
ATOM      9  C   UNL     1      -3.495  -2.708   1.205  0.00  0.00    +0.086 A 
ATOM     10  C   UNL     1      -5.745  -3.651  -2.106  0.00  0.00    +0.046 C 
ATOM     11  C   UNL     1      -5.287  -3.033  -3.435  0.00  0.00    -0.009 C 
ATOM     12  C   UNL     1      -3.790  -3.300  -3.616  0.00  0.00    +0.008 C 
ATOM     13  C   UNL     1      -2.988  -2.468  -2.612  0.00  0.00    +0.037 C 
ATOM     14  C   UNL     1      -6.066  -3.666  -4.590  0.00  0.00    +0.008 C 
BRANCH   5  15
ATOM     15  C   UNL     1      -1.497  -1.838   0.006  0.00  0.00    +0.342 C 
ATOM     16  O   UNL     1      -0.523  -2.566  -0.007  0.00  0.00    -0.245 OA
BRANCH  15  17
ATOM     17  O   UNL     1      -1.339  -0.499   0.012  0.00  0.00    -0.461 OA
BRANCH  17  19
ATOM     18  C   UNL     1      -0.019   1.526   0.010  0.00  0.00    +0.048 C 
ATOM     19  C   UNL     1       0.002  -0.004   0.002  0.00  0.00    +0.229 C 
ENDBRANCH  17  19
ENDBRANCH  15  17
ENDBRANCH   5  15
ENDBRANCH   1   9
BRANCH   2  20
ATOM     20  C   UNL     1      -3.306  -2.666   4.953  0.00  0.00    +0.020 C 
BRANCH  20  21
ATOM     21  N   UNL     1      -4.329  -3.115   5.907  0.00  0.00    +0.393 N 
ATOM     22  C   UNL     1      -5.518  -2.241   5.809  0.00  0.00    -0.077 C 
ATOM     23  C   UNL     1      -6.043  -2.123   7.262  0.00  0.00    -0.020 C 
ATOM     24  C   UNL     1      -4.719  -2.080   8.070  0.00  0.00    -0.008 C 
ATOM     25  C   UNL     1      -3.798  -3.032   7.279  0.00  0.00    +0.020 C 
ATOM     26  H   UNL     1      -4.592  -4.067   5.701  0.00  0.00    -0.080 HD
BRANCH  25  27
ATOM     27  C   UNL     1      -3.806  -4.399   7.915  0.00  0.00    +0.200 C 
ATOM     28  O   UNL     1      -4.214  -5.355   7.291  0.00  0.00    -0.278 OA
ATOM     29  N   UNL     1      -3.360  -4.558   9.177  0.00  0.00    -0.310 N 
ATOM     30  H   UNL     1      -3.034  -3.793   9.676  0.00  0.00    +0.149 HD
BRANCH  29  31
ATOM     31  C   UNL     1      -3.368  -5.886   9.795  0.00  0.00    +0.178 C 
BRANCH  31  32
ATOM     32  C   UNL     1      -2.823  -5.791  11.197  0.00  0.00    +0.122 A 
ATOM     33  C   UNL     1      -3.546  -5.565  12.308  0.00  0.00    +0.046 A 
ATOM     34  C   UNL     1      -2.639  -5.555  13.392  0.00  0.00    +0.041 A 
ATOM     35  C   UNL     1      -1.415  -5.776  12.879  0.00  0.00    +0.195 A 
ATOM     36  O   UNL     1      -1.534  -5.924  11.549  0.00  0.00    -0.466 OA
ENDBRANCH  31  32
ENDBRANCH  29  31
ENDBRANCH  25  27
ENDBRANCH  20  21
ENDBRANCH   2  20
TORSDOF 9
