REMARK  Name = ZINC29908438
REMARK  10 active torsions:
REMARK  status: ('A' for Active; 'I' for Inactive)
REMARK    1  A    between atoms: C_1  and  C_2
REMARK    2  A    between atoms: C_2  and  C_3
REMARK    3  A    between atoms: C_3  and  C_5
REMARK    4  A    between atoms: C_3  and  N_22
REMARK    5  A    between atoms: C_5  and  N_6
REMARK    6  A    between atoms: C_7  and  C_9
REMARK    7  A    between atoms: C_9  and  C_10
REMARK    8  A    between atoms: C_10  and  N_11
REMARK    9  A    between atoms: N_11  and  S_12
REMARK   10  A    between atoms: S_12  and  C_15
REMARK                            x       y       z     vdW  Elec       q    Type
REMARK                         _______ _______ _______ _____ _____    ______ ____
ROOT
ATOM      1  N   UNL     1      -1.546   5.668  -4.452  0.00  0.00    -0.317 N 
ATOM      2  C   UNL     1      -0.968   5.467  -3.251  0.00  0.00    +0.214 C 
ATOM      3  O   UNL     1      -0.831   6.394  -2.481  0.00  0.00    -0.276 OA
ATOM      4  H   UNL     1      -1.670   4.827  -5.150  0.00  0.00    +0.149 HD
ENDROOT
BRANCH   1   5
ATOM      5  C   UNL     1      -2.009   7.006  -4.827  0.00  0.00    +0.089 C 
BRANCH   5   6
ATOM      6  C   UNL     1      -2.621   6.959  -6.229  0.00  0.00    -0.051 C 
BRANCH   6   7
ATOM      7  N   UNL     1      -3.680   5.941  -6.267  0.00  0.00    +0.385 N 
ATOM      8  C   UNL     1      -3.954   5.516  -7.649  0.00  0.00    -0.073 C 
ATOM      9  C   UNL     1      -4.773   4.226  -7.607  0.00  0.00    +0.017 C 
ATOM     10  C   UNL     1      -5.955   4.397  -6.688  0.00  0.00    -0.048 A 
ATOM     11  C   UNL     1      -7.001   3.491  -6.780  0.00  0.00    +0.004 A 
ATOM     12  C   UNL     1      -8.098   3.606  -5.951  0.00  0.00    +0.000 A 
ATOM     13  C   UNL     1      -8.156   4.631  -5.024  0.00  0.00    +0.000 A 
ATOM     14  C   UNL     1      -7.117   5.535  -4.934  0.00  0.00    +0.002 A 
ATOM     15  C   UNL     1      -6.013   5.421  -5.767  0.00  0.00    -0.061 A 
ATOM     16  C   UNL     1      -4.907   6.434  -5.634  0.00  0.00    -0.042 C 
ATOM     17  H   UNL     1      -3.325   5.069  -5.697  0.00  0.00    -0.081 HD
ENDBRANCH   6   7
BRANCH   6  19
ATOM     18  C   UNL     1      -3.703   8.322  -8.022  0.00  0.00    +0.002 C 
ATOM     19  C   UNL     1      -3.217   8.326  -6.571  0.00  0.00    -0.017 C 
ENDBRANCH   6  19
ENDBRANCH   5   6
ENDBRANCH   1   5
BRANCH   2  20
ATOM     20  C   UNL     1      -0.491   4.090  -2.865  0.00  0.00    +0.112 C 
BRANCH  20  21
ATOM     21  C   UNL     1       0.121   4.137  -1.463  0.00  0.00    +0.115 C 
BRANCH  21  22
ATOM     22  N   UNL     1       0.584   2.799  -1.088  0.00  0.00    -0.189 NA
ATOM     23  H   UNL     1       0.127   1.910  -1.547  0.00  0.00    +0.148 HD
BRANCH  22  24
ATOM     24  S   UNL     1       1.612   2.609   0.197  0.00  0.00    +0.058 S 
ATOM     25  O   UNL     1       1.852   1.214   0.322  0.00  0.00    -0.153 OA
ATOM     26  O   UNL     1       2.662   3.550   0.020  0.00  0.00    -0.153 OA
BRANCH  24  27
ATOM     27  C   UNL     1       0.734   3.100   1.643  0.00  0.00    +0.105 A 
ATOM     28  C   UNL     1       0.783   4.414   2.069  0.00  0.00    +0.029 A 
ATOM     29  C   UNL     1       0.091   4.801   3.201  0.00  0.00    +0.017 A 
ATOM     30  C   UNL     1      -0.643   3.871   3.914  0.00  0.00    +0.018 A 
ATOM     31  C   UNL     1      -0.689   2.555   3.491  0.00  0.00    +0.017 A 
ATOM     32  C   UNL     1      -0.000   2.170   2.356  0.00  0.00    +0.029 A 
ATOM     33 BR   UNL     1      -1.586   4.398   5.466  0.00  0.00    -0.050 Br
ENDBRANCH  24  27
ENDBRANCH  22  24
ENDBRANCH  21  22
ENDBRANCH  20  21
ENDBRANCH   2  20
TORSDOF 9
