REMARK  Name = ZINC66498436
REMARK  6 active torsions:
REMARK  status: ('A' for Active; 'I' for Inactive)
REMARK    1  A    between atoms: C_1  and  C_2
REMARK    2  A    between atoms: C_2  and  C_3
REMARK    3  A    between atoms: C_2  and  C_4
REMARK    4  A    between atoms: N_11  and  C_12
REMARK    5  A    between atoms: C_12  and  C_13
REMARK    6  A    between atoms: C_21  and  C_23
REMARK                            x       y       z     vdW  Elec       q    Type
REMARK                         _______ _______ _______ _____ _____    ______ ____
ROOT
ATOM      1  C   UNL     1      -1.073  -3.836  -1.134  0.00  0.00    +0.230 C 
ATOM      2  O   UNL     1      -0.092  -4.543  -1.228  0.00  0.00    -0.274 OA
ATOM      3  N   UNL     1      -2.298  -4.391  -1.048  0.00  0.00    -0.297 N 
ATOM      4  C   UNL     1      -3.496  -3.547  -0.940  0.00  0.00    +0.127 C 
ATOM      5  C   UNL     1      -4.464  -3.922  -2.069  0.00  0.00    +0.127 C 
ATOM      6  N   UNL     1      -4.626  -5.383  -2.082  0.00  0.00    -0.291 N 
ATOM      7  C   UNL     1      -3.428  -6.227  -2.191  0.00  0.00    +0.127 C 
ATOM      8  C   UNL     1      -2.461  -5.852  -1.067  0.00  0.00    +0.127 C 
ATOM      9  C   UNL     1      -5.851  -5.938  -1.996  0.00  0.00    +0.302 C 
ATOM     10  O   UNL     1      -5.966  -7.140  -1.875  0.00  0.00    -0.265 OA
ENDROOT
BRANCH   9  11
ATOM     11  C   UNL     1      -7.069  -5.073  -2.050  0.00  0.00    +0.302 C 
ATOM     12  O   UNL     1      -6.961  -3.887  -2.284  0.00  0.00    -0.265 OA
ATOM     13  N   UNL     1      -8.287  -5.610  -1.839  0.00  0.00    -0.294 N 
ATOM     14  C   UNL     1      -8.560  -7.024  -1.540  0.00  0.00    +0.108 C 
ATOM     15  C   UNL     1     -10.090  -7.176  -1.403  0.00  0.00    +0.020 C 
ATOM     16  C   UNL     1     -10.632  -5.954  -2.191  0.00  0.00    +0.020 C 
ATOM     17  C   UNL     1      -9.566  -4.877  -1.862  0.00  0.00    +0.108 C 
ENDBRANCH   9  11
BRANCH   1  18
ATOM     18  C   UNL     1      -0.922  -2.337  -1.114  0.00  0.00    +0.181 C 
BRANCH  18  25
ATOM     19  C   UNL     1       0.733  -0.597  -0.806  0.00  0.00    +0.146 C 
ATOM     20  C   UNL     1       2.163  -0.217  -1.068  0.00  0.00    +0.231 C 
ATOM     21  O   UNL     1       2.616   0.760  -0.511  0.00  0.00    -0.274 OA
ATOM     22  N   UNL     1       2.957  -0.912  -1.889  0.00  0.00    -0.313 N 
ATOM     23  C   UNL     1       2.520  -2.122  -2.579  0.00  0.00    +0.119 C 
ATOM     24  C   UNL     1       0.992  -2.197  -2.591  0.00  0.00    +0.104 C 
ATOM     25  N   UNL     1       0.500  -1.987  -1.220  0.00  0.00    -0.281 NA
ATOM     26  H   UNL     1       3.863  -0.597  -2.034  0.00  0.00    +0.149 HD
BRANCH  19  28
ATOM     27  C   UNL     1       1.459  -1.262   1.490  0.00  0.00    +0.009 C 
ATOM     28  C   UNL     1       0.436  -0.456   0.689  0.00  0.00    +0.009 C 
ATOM     29  C   UNL     1       0.522   1.018   1.089  0.00  0.00    +0.009 C 
ENDBRANCH  19  28
ENDBRANCH  18  25
ENDBRANCH   1  18
TORSDOF 4
