REMARK  Name = ZINC09279612
REMARK  14 active torsions:
REMARK  status: ('A' for Active; 'I' for Inactive)
REMARK    1  A    between atoms: C_1  and  O_2
REMARK    2  A    between atoms: O_2  and  C_3
REMARK    3  A    between atoms: C_3  and  C_4
REMARK    4  A    between atoms: C_4  and  N_5
REMARK    5  A    between atoms: N_14  and  C_15
REMARK    6  A    between atoms: C_15  and  C_17
REMARK    7  A    between atoms: C_20  and  S_23
REMARK    8  A    between atoms: S_23  and  N_26
REMARK    9  A    between atoms: N_26  and  C_27
REMARK   10  A    between atoms: N_26  and  C_31
REMARK   11  A    between atoms: C_27  and  C_28
REMARK   12  A    between atoms: C_28  and  C_29
REMARK   13  A    between atoms: C_31  and  C_32
REMARK   14  A    between atoms: C_32  and  C_33
REMARK                            x       y       z     vdW  Elec       q    Type
REMARK                         _______ _______ _______ _____ _____    ______ ____
ROOT
ATOM      1  C   UNL     1      -2.467   2.687   3.642  0.00  0.00    +0.039 A 
ATOM      2  C   UNL     1      -2.695   1.437   3.067  0.00  0.00    +0.015 A 
ATOM      3  C   UNL     1      -2.015   1.071   1.924  0.00  0.00    +0.029 A 
ATOM      4  C   UNL     1      -1.109   1.942   1.347  0.00  0.00    +0.106 A 
ATOM      5  C   UNL     1      -0.874   3.182   1.914  0.00  0.00    +0.029 A 
ATOM      6  C   UNL     1      -1.552   3.561   3.055  0.00  0.00    +0.015 A 
ENDROOT
BRANCH   4   7
ATOM      7  S   UNL     1      -0.244   1.467  -0.113  0.00  0.00    +0.061 S 
ATOM      8  O   UNL     1      -0.232   0.047  -0.135  0.00  0.00    -0.153 OA
ATOM      9  O   UNL     1       0.949   2.240  -0.148  0.00  0.00    -0.153 OA
BRANCH   7  10
ATOM     10  N   UNL     1      -1.160   1.953  -1.405  0.00  0.00    -0.175 NA
BRANCH  10  11
ATOM     11  C   UNL     1      -0.963   3.285  -1.983  0.00  0.00    +0.124 C 
BRANCH  11  12
ATOM     12  C   UNL     1      -0.001   3.189  -3.168  0.00  0.00    +0.135 C 
BRANCH  12  13
ATOM     13  C   UNL     1       0.197   4.527  -3.749  0.00  0.00    +0.064 C 
ATOM     14  N   UNL     1       0.349   5.560  -4.197  0.00  0.00    -0.197 NA
ENDBRANCH  12  13
ENDBRANCH  11  12
ENDBRANCH  10  11
BRANCH  10  15
ATOM     15  C   UNL     1      -2.166   1.050  -1.969  0.00  0.00    +0.124 C 
BRANCH  15  16
ATOM     16  C   UNL     1      -3.532   1.359  -1.351  0.00  0.00    +0.135 C 
BRANCH  16  17
ATOM     17  C   UNL     1      -4.543   0.453  -1.919  0.00  0.00    +0.064 C 
ATOM     18  N   UNL     1      -5.324  -0.247  -2.356  0.00  0.00    -0.197 NA
ENDBRANCH  16  17
ENDBRANCH  15  16
ENDBRANCH  10  15
ENDBRANCH   7  10
ENDBRANCH   4   7
BRANCH   1  19
ATOM     19  C   UNL     1      -3.193   3.086   4.869  0.00  0.00    +0.269 C 
ATOM     20  O   UNL     1      -3.993   2.321   5.380  0.00  0.00    -0.268 OA
BRANCH  19  30
ATOM     21  N   UNL     1      -3.532   5.809   7.212  0.00  0.00    -0.319 N 
ATOM     22  C   UNL     1      -4.298   6.002   8.348  0.00  0.00    +0.058 A 
ATOM     23  C   UNL     1      -4.340   7.126   9.188  0.00  0.00    +0.030 A 
ATOM     24  C   UNL     1      -5.166   7.153  10.286  0.00  0.00    +0.040 A 
ATOM     25  C   UNL     1      -5.981   6.075  10.599  0.00  0.00    +0.125 A 
ATOM     26  C   UNL     1      -5.958   4.953   9.786  0.00  0.00    +0.055 A 
ATOM     27  C   UNL     1      -5.132   4.928   8.687  0.00  0.00    +0.042 A 
ATOM     28  S   UNL     1      -4.803   3.737   7.412  0.00  0.00    -0.052 S 
ATOM     29  C   UNL     1      -3.624   4.643   6.518  0.00  0.00    +0.167 A 
ATOM     30  N   UNL     1      -2.972   4.285   5.417  0.00  0.00    -0.152 NA
ATOM     31  F   UNL     1      -6.786   6.118  11.682  0.00  0.00    -0.205 F 
BRANCH  21  32
ATOM     32  C   UNL     1      -2.621   6.861   6.755  0.00  0.00    +0.152 C 
BRANCH  32  33
ATOM     33  C   UNL     1      -1.347   6.225   6.195  0.00  0.00    +0.181 C 
BRANCH  33  35
ATOM     34  C   UNL     1       0.827   6.760   5.340  0.00  0.00    +0.194 C 
ATOM     35  O   UNL     1      -0.404   7.250   5.874  0.00  0.00    -0.381 OA
ENDBRANCH  33  35
ENDBRANCH  32  33
ENDBRANCH  21  32
ENDBRANCH  19  30
ENDBRANCH   1  19
TORSDOF 13
