REMARK  Name = ZINC41600891
REMARK  4 active torsions:
REMARK  status: ('A' for Active; 'I' for Inactive)
REMARK    1  A    between atoms: C_1  and  C_2
REMARK    2  A    between atoms: C_2  and  C_3
REMARK    3  A    between atoms: C_13  and  C_20
REMARK    4  A    between atoms: C_16  and  C_19
REMARK                            x       y       z     vdW  Elec       q    Type
REMARK                         _______ _______ _______ _____ _____    ______ ____
ROOT
ATOM      1  C   UNL     1      -1.353  -0.733   0.022  0.00  0.00    +0.050 A 
ATOM      2  C   UNL     1      -2.023  -0.863  -1.160  0.00  0.00    +0.093 A 
ATOM      3  C   UNL     1      -3.402  -1.135  -1.134  0.00  0.00    +0.253 A 
ATOM      4  O   UNL     1      -4.032  -1.259  -2.172  0.00  0.00    -0.268 OA
ATOM      5  N   UNL     1      -4.017  -1.257   0.062  0.00  0.00    -0.295 N 
ATOM      6  H   UNL     1      -4.967  -1.445   0.104  0.00  0.00    +0.172 HD
ATOM      7  C   UNL     1      -3.298  -1.117   1.208  0.00  0.00    +0.198 A 
ATOM      8  N   UNL     1      -2.004  -0.867   1.175  0.00  0.00    -0.221 NA
ATOM      9  N   UNL     1      -3.928  -1.242   2.417  0.00  0.00    -0.301 N 
ATOM     10  C   UNL     1      -5.338  -1.646   2.488  0.00  0.00    +0.111 C 
ATOM     11  C   UNL     1      -5.459  -2.854   3.423  0.00  0.00    +0.004 C 
ATOM     12  C   UNL     1      -4.836  -2.509   4.777  0.00  0.00    +0.009 C 
ATOM     13  C   UNL     1      -3.351  -2.189   4.591  0.00  0.00    +0.004 C 
ATOM     14  C   UNL     1      -3.204  -0.980   3.669  0.00  0.00    +0.111 C 
ATOM     15  C   UNL     1      -2.644  -3.393   3.965  0.00  0.00    +0.009 C 
ATOM     16  C   UNL     1      -6.936  -3.206   3.614  0.00  0.00    +0.009 C 
ENDROOT
BRANCH   1  18
ATOM     17  C   UNL     1       0.348   1.066   0.154  0.00  0.00    +0.010 C 
ATOM     18  C   UNL     1       0.125  -0.442   0.021  0.00  0.00    +0.052 C 
ENDBRANCH   1  18
TORSDOF 1
