REMARK  Name = ZINC33770944
REMARK  7 active torsions:
REMARK  status: ('A' for Active; 'I' for Inactive)
REMARK    1  A    between atoms: C_1  and  C_2
REMARK    2  A    between atoms: C_5  and  C_22
REMARK    3  A    between atoms: C_6  and  C_7
REMARK    4  A    between atoms: C_6  and  C_8
REMARK    5  A    between atoms: C_15  and  N_19
REMARK    6  A    between atoms: N_24  and  C_25
REMARK    7  A    between atoms: C_30  and  N_31
REMARK                            x       y       z     vdW  Elec       q    Type
REMARK                         _______ _______ _______ _____ _____    ______ ____
ROOT
ATOM      1  C   UNL     1      -0.090   1.516   0.023  0.00  0.00    +0.018 C 
ATOM      2  C   UNL     1      -0.059  -0.014   0.013  0.00  0.00    +0.018 C 
ATOM      3  C   UNL     1       0.670  -0.681  -1.195  0.00  0.00    +0.015 C 
ATOM      4  C   UNL     1       0.948  -2.126  -0.716  0.00  0.00    +0.024 C 
ATOM      5  C   UNL     1       0.355  -2.169   0.728  0.00  0.00    +0.097 C 
ATOM      6  C   UNL     1       0.685  -0.710   1.212  0.00  0.00    -0.005 C 
ATOM      7  C   UNL     1       2.191  -0.438   1.197  0.00  0.00    +0.013 C 
ATOM      8  C   UNL     1       0.055  -0.369   2.564  0.00  0.00    +0.013 C 
ATOM      9  C   UNL     1      -1.156  -2.045   0.520  0.00  0.00    +0.079 A 
ATOM     10  C   UNL     1      -1.416  -0.718   0.098  0.00  0.00    +0.071 A 
ATOM     11  N   UNL     1      -2.631  -0.310  -0.158  0.00  0.00    -0.248 NA
ATOM     12  C   UNL     1      -3.658  -1.154   0.006  0.00  0.00    +0.090 A 
ATOM     13  C   UNL     1      -4.978  -0.748  -0.259  0.00  0.00    +0.032 A 
ATOM     14  C   UNL     1      -6.002  -1.626  -0.080  0.00  0.00    +0.035 A 
ATOM     15  C   UNL     1      -5.763  -2.926   0.361  0.00  0.00    +0.128 A 
ATOM     16  C   UNL     1      -4.499  -3.355   0.626  0.00  0.00    +0.062 A 
ATOM     17  C   UNL     1      -3.415  -2.477   0.454  0.00  0.00    +0.092 A 
ATOM     18  N   UNL     1      -2.134  -2.899   0.674  0.00  0.00    -0.247 NA
ENDROOT
BRANCH   5  19
ATOM     19  C   UNL     1       0.831  -3.295   1.609  0.00  0.00    +0.230 C 
ATOM     20  O   UNL     1       1.419  -3.050   2.642  0.00  0.00    -0.274 OA
ATOM     21  N   UNL     1       0.603  -4.574   1.251  0.00  0.00    -0.283 N 
ATOM     22  H   UNL     1       0.077  -4.769   0.460  0.00  0.00    +0.155 HD
BRANCH  21  23
ATOM     23  C   UNL     1       1.125  -5.620   2.020  0.00  0.00    +0.065 A 
ATOM     24  C   UNL     1       1.211  -5.492   3.401  0.00  0.00    +0.047 A 
ATOM     25  C   UNL     1       1.726  -6.527   4.158  0.00  0.00    +0.061 A 
ATOM     26  C   UNL     1       2.158  -7.690   3.541  0.00  0.00    +0.062 A 
ATOM     27  C   UNL     1       2.073  -7.818   2.166  0.00  0.00    +0.056 A 
ATOM     28  C   UNL     1       1.553  -6.789   1.405  0.00  0.00    +0.149 A 
ATOM     29 CL   UNL     1       2.805  -8.988   4.494  0.00  0.00    -0.082 Cl
ATOM     30 CL   UNL     1       1.835  -6.369   5.883  0.00  0.00    -0.082 Cl
BRANCH  28  31
ATOM     31  N   UNL     1       1.458  -6.929  -0.065  0.00  0.00    +0.058 N 
ATOM     32  O   UNL     1       1.739  -7.981  -0.591  0.00  0.00    -0.126 OA
ATOM     33  O   UNL     1       1.099  -5.993  -0.740  0.00  0.00    -0.126 OA
ENDBRANCH  28  31
ENDBRANCH  21  23
ENDBRANCH   5  19
BRANCH  15  34
ATOM     34  N   UNL     1      -6.901  -3.854   0.545  0.00  0.00    +0.056 N 
ATOM     35  O   UNL     1      -8.028  -3.482   0.313  0.00  0.00    -0.126 OA
ATOM     36  O   UNL     1      -6.704  -4.984   0.928  0.00  0.00    -0.126 OA
ENDBRANCH  15  34
TORSDOF 4
