REMARK  Name = ZINC63182703
REMARK  10 active torsions:
REMARK  status: ('A' for Active; 'I' for Inactive)
REMARK    1  A    between atoms: C_1  and  C_2
REMARK    2  A    between atoms: C_2  and  C_3
REMARK    3  A    between atoms: C_3  and  C_4
REMARK    4  A    between atoms: C_8  and  S_10
REMARK    5  A    between atoms: S_10  and  C_11
REMARK    6  A    between atoms: C_11  and  C_12
REMARK    7  A    between atoms: N_14  and  C_15
REMARK    8  A    between atoms: C_15  and  C_16
REMARK    9  A    between atoms: C_16  and  C_18
REMARK   10  A    between atoms: C_16  and  C_26
REMARK                            x       y       z     vdW  Elec       q    Type
REMARK                         _______ _______ _______ _____ _____    ______ ____
ROOT
ATOM      1  C   UNL     1      -1.329  -5.973   8.213  0.00  0.00    +0.066 C 
ENDROOT
BRANCH   1   2
ATOM      2  C   UNL     1      -1.187  -7.063   9.245  0.00  0.00    -0.033 C 
ATOM      3  C   UNL     1      -0.201  -7.191  10.162  0.00  0.00    -0.000 A 
ATOM      4  C   UNL     1       0.989  -6.386  10.461  0.00  0.00    +0.010 A 
ATOM      5  C   UNL     1       1.811  -6.776  11.462  0.00  0.00    +0.001 A 
ATOM      6  C   UNL     1       1.554  -7.928  12.219  0.00  0.00    +0.002 A 
ATOM      7  C   UNL     1       0.482  -8.718  12.004  0.00  0.00    +0.026 A 
ATOM      8  C   UNL     1      -0.449  -8.402  10.976  0.00  0.00    +0.043 A 
ATOM      9  N   UNL     1      -1.546  -9.000  10.577  0.00  0.00    -0.380 N 
ATOM     10  C   UNL     1      -2.121  -8.231   9.468  0.00  0.00    +0.145 C 
ATOM     11  H   UNL     1      -1.917  -9.812  10.955  0.00  0.00    +0.160 HD
ENDBRANCH   1   2
BRANCH   1  12
ATOM     12  C   UNL     1      -2.626  -5.238   8.435  0.00  0.00    -0.020 A 
ATOM     13  C   UNL     1      -3.826  -5.921   8.374  0.00  0.00    +0.007 A 
ATOM     14  C   UNL     1      -5.016  -5.247   8.577  0.00  0.00    +0.020 A 
ATOM     15  C   UNL     1      -5.006  -3.889   8.841  0.00  0.00    +0.042 A 
ATOM     16  C   UNL     1      -3.805  -3.205   8.903  0.00  0.00    +0.040 A 
ATOM     17  C   UNL     1      -2.614  -3.881   8.704  0.00  0.00    +0.046 A 
ATOM     18 CL   UNL     1      -1.106  -3.026   8.787  0.00  0.00    -0.083 Cl
ATOM     19 CL   UNL     1      -6.500  -3.043   9.096  0.00  0.00    -0.083 Cl
ENDBRANCH   1  12
BRANCH   1  20
ATOM     20  C   UNL     1      -1.326  -6.592   6.814  0.00  0.00    +0.116 C 
BRANCH  20  23
ATOM     21  C   UNL     1      -1.345  -5.838   4.497  0.00  0.00    +0.223 C 
ATOM     22  O   UNL     1      -1.331  -6.999   4.149  0.00  0.00    -0.275 OA
ATOM     23  N   UNL     1      -1.344  -5.527   5.809  0.00  0.00    -0.314 N 
ATOM     24  H   UNL     1      -1.355  -4.598   6.087  0.00  0.00    +0.149 HD
BRANCH  21  25
ATOM     25  C   UNL     1      -1.363  -4.742   3.463  0.00  0.00    +0.173 C 
BRANCH  25  26
ATOM     26  S   UNL     1      -1.360  -5.475   1.804  0.00  0.00    -0.077 S 
BRANCH  26  31
ATOM     27  C   UNL     1      -1.413  -2.041   0.005  0.00  0.00    +0.152 A 
ATOM     28  N   UNL     1      -1.407  -2.792  -1.064  0.00  0.00    -0.157 NA
ATOM     29  H   UNL     1      -1.378  -4.920  -1.185  0.00  0.00    +0.191 HD
ATOM     30  N   UNL     1      -1.387  -4.126  -0.627  0.00  0.00    -0.254 N 
ATOM     31  C   UNL     1      -1.382  -4.084   0.723  0.00  0.00    +0.185 A 
ATOM     32  N   UNL     1      -1.392  -2.819   1.087  0.00  0.00    -0.206 NA
BRANCH  27  33
ATOM     33  C   UNL     1      -1.433  -0.534   0.013  0.00  0.00    +0.078 C 
BRANCH  33  35
ATOM     34  C   UNL     1      -0.019   1.526   0.010  0.00  0.00    +0.004 C 
ATOM     35  C   UNL     1       0.002  -0.004   0.002  0.00  0.00    +0.004 C 
ENDBRANCH  33  35
ENDBRANCH  27  33
ENDBRANCH  26  31
ENDBRANCH  25  26
ENDBRANCH  21  25
ENDBRANCH  20  23
ENDBRANCH   1  20
TORSDOF 9
