REMARK  Name = ZINC04262792
REMARK  8 active torsions:
REMARK  status: ('A' for Active; 'I' for Inactive)
REMARK    1  A    between atoms: C_1  and  C_2
REMARK    2  A    between atoms: C_2  and  C_4
REMARK    3  A    between atoms: C_5  and  O_31
REMARK    4  A    between atoms: C_6  and  O_30
REMARK    5  A    between atoms: C_16  and  O_23
REMARK    6  A    between atoms: C_18  and  O_22
REMARK    7  A    between atoms: C_24  and  O_28
REMARK    8  A    between atoms: O_28  and  C_29
REMARK                            x       y       z     vdW  Elec       q    Type
REMARK                         _______ _______ _______ _____ _____    ______ ____
ROOT
ATOM      1  C   UNL     1       0.081   1.538   2.508  0.00  0.00    +0.103 C 
ATOM      2  C   UNL     1      -0.468   2.106   3.639  0.00  0.00    +0.147 C 
ATOM      3  C   UNL     1       0.371   2.489   4.819  0.00  0.00    +0.191 C 
ATOM      4  C   UNL     1       1.820   2.752   4.398  0.00  0.00    +0.077 C 
ATOM      5  C   UNL     1       1.862   3.907   3.399  0.00  0.00    +0.046 C 
ATOM      6  C   UNL     1       1.169   5.131   3.932  0.00  0.00    -0.032 A 
ATOM      7  C   UNL     1       1.512   6.346   3.426  0.00  0.00    +0.013 A 
ATOM      8  C   UNL     1       0.873   7.518   3.874  0.00  0.00    -0.011 A 
ATOM      9  C   UNL     1       1.228   8.775   3.359  0.00  0.00    +0.009 A 
ATOM     10  C   UNL     1       0.593   9.897   3.800  0.00  0.00    +0.004 A 
ATOM     11  C   UNL     1      -0.411   9.824   4.759  0.00  0.00    +0.046 A 
ATOM     12  C   UNL     1      -0.786   8.610   5.293  0.00  0.00    +0.128 A 
ATOM     13  C   UNL     1      -0.142   7.434   4.859  0.00  0.00    +0.066 A 
ATOM     14  C   UNL     1      -0.487   6.177   5.388  0.00  0.00    +0.139 A 
ATOM     15  C   UNL     1       0.175   5.036   4.926  0.00  0.00    +0.066 A 
ATOM     16  C   UNL     1      -0.172   3.725   5.490  0.00  0.00    +0.206 C 
ATOM     17  O   UNL     1      -0.879   3.638   6.472  0.00  0.00    -0.288 OA
ATOM     18  C   UNL     1       2.346   1.488   3.693  0.00  0.00    +0.196 C 
ATOM     19  C   UNL     1       1.528   1.303   2.433  0.00  0.00    +0.199 C 
ATOM     20  O   UNL     1       2.055   0.975   1.390  0.00  0.00    -0.289 OA
ENDROOT
BRANCH   1  22
ATOM     21  C   UNL     1      -0.646   1.875   0.063  0.00  0.00    +0.092 C 
ATOM     22  C   UNL     1      -0.780   1.164   1.385  0.00  0.00    +0.167 C 
ATOM     23  O   UNL     1      -1.602   0.281   1.519  0.00  0.00    -0.292 OA
ENDBRANCH   1  22
BRANCH  14  24
ATOM     24  O   UNL     1      -1.450   6.074   6.333  0.00  0.00    -0.505 OA
ATOM     25  H   UNL     1      -1.120   6.142   7.240  0.00  0.00    +0.292 HD
ENDBRANCH  14  24
BRANCH  12  26
ATOM     26  O   UNL     1      -1.767   8.547   6.229  0.00  0.00    -0.506 OA
ATOM     27  H   UNL     1      -2.654   8.434   5.861  0.00  0.00    +0.292 HD
ENDBRANCH  12  26
BRANCH  18  28
ATOM     28  O   UNL     1       3.727   1.653   3.363  0.00  0.00    -0.372 OA
ATOM     29  C   UNL     1       4.472   0.434   3.352  0.00  0.00    +0.195 C 
ENDBRANCH  18  28
BRANCH   3  30
ATOM     30  O   UNL     1       0.366   1.413   5.759  0.00  0.00    -0.373 OA
ATOM     31  H   UNL     1      -0.513   1.184   6.090  0.00  0.00    +0.211 HD
ENDBRANCH   3  30
BRANCH   2  32
ATOM     32  O   UNL     1      -1.790   2.321   3.684  0.00  0.00    -0.507 OA
ATOM     33  H   UNL     1      -2.031   2.735   4.562  0.00  0.00    +0.292 HD
ENDBRANCH   2  32
TORSDOF 6
