REMARK  Name = ZINC01424954
REMARK  8 active torsions:
REMARK  status: ('A' for Active; 'I' for Inactive)
REMARK    1  A    between atoms: C_1  and  C_2
REMARK    2  A    between atoms: C_2  and  O_3
REMARK    3  A    between atoms: O_3  and  C_4
REMARK    4  A    between atoms: C_9  and  N_10
REMARK    5  A    between atoms: N_10  and  C_11
REMARK    6  A    between atoms: C_11  and  N_12
REMARK    7  A    between atoms: C_16  and  C_17
REMARK    8  A    between atoms: C_20  and  C_22
REMARK                            x       y       z     vdW  Elec       q    Type
REMARK                         _______ _______ _______ _____ _____    ______ ____
ROOT
ATOM      1  N   UNL     1      -6.865   2.563   1.760  0.00  0.00    -0.212 N 
ATOM      2  C   UNL     1      -6.204   2.454   2.900  0.00  0.00    +0.262 C 
ATOM      3  O   UNL     1      -6.749   2.635   3.974  0.00  0.00    -0.269 OA
ATOM      4  C   UNL     1      -4.776   2.108   2.807  0.00  0.00    +0.083 C 
ATOM      5  C   UNL     1      -3.858   1.935   3.799  0.00  0.00    +0.066 C 
ATOM      6  S   UNL     1      -4.579   1.970   1.035  0.00  0.00    -0.026 S 
ATOM      7  C   UNL     1      -6.260   2.355   0.572  0.00  0.00    +0.287 C 
ATOM      8  O   UNL     1      -6.742   2.415  -0.543  0.00  0.00    -0.262 OA
ENDROOT
BRANCH   5   9
ATOM      9  C   UNL     1      -2.524   1.595   3.477  0.00  0.00    +0.129 A 
ATOM     10  C   UNL     1      -1.496   1.390   4.375  0.00  0.00    +0.049 A 
ATOM     11  C   UNL     1      -0.359   1.075   3.616  0.00  0.00    +0.045 A 
ATOM     12  C   UNL     1      -0.726   1.098   2.316  0.00  0.00    +0.103 A 
ATOM     13  O   UNL     1      -2.027   1.416   2.235  0.00  0.00    -0.461 OA
ATOM     14  C   UNL     1       0.181   0.819   1.146  0.00  0.00    +0.086 C 
ENDBRANCH   5   9
BRANCH   1  15
ATOM     15  C   UNL     1      -8.288   2.910   1.787  0.00  0.00    +0.222 C 
BRANCH  15  16
ATOM     16  N   UNL     1      -9.073   1.726   2.145  0.00  0.00    -0.325 N 
ATOM     17  H   UNL     1      -9.202   1.493   3.078  0.00  0.00    +0.148 HD
BRANCH  16  23
ATOM     18  C   UNL     1     -10.396  -0.187   1.479  0.00  0.00    +0.141 A 
ATOM     19  C   UNL     1     -10.952  -0.971   0.482  0.00  0.00    +0.047 A 
ATOM     20  C   UNL     1     -10.754  -0.643  -0.847  0.00  0.00    +0.004 A 
ATOM     21  C   UNL     1     -10.001   0.467  -1.184  0.00  0.00    +0.002 A 
ATOM     22  C   UNL     1      -9.447   1.256  -0.194  0.00  0.00    +0.026 A 
ATOM     23  C   UNL     1      -9.637   0.930   1.141  0.00  0.00    +0.071 A 
BRANCH  18  24
ATOM     24  O   UNL     1     -10.592  -0.508   2.787  0.00  0.00    -0.490 OA
BRANCH  24  26
ATOM     25  C   UNL     1     -11.489  -1.868   4.572  0.00  0.00    +0.048 C 
ATOM     26  C   UNL     1     -11.381  -1.668   3.059  0.00  0.00    +0.226 C 
ENDBRANCH  24  26
ENDBRANCH  18  24
ENDBRANCH  16  23
ENDBRANCH  15  16
ENDBRANCH   1  15
TORSDOF 6
