REMARK  Name = ZINC39450291
REMARK  1 active torsions:
REMARK  status: ('A' for Active; 'I' for Inactive)
REMARK    1  A    between atoms: C_13  and  O_18
REMARK                            x       y       z     vdW  Elec       q    Type
REMARK                         _______ _______ _______ _____ _____    ______ ____
ROOT
ATOM      1  C   UNL     1      -0.017   1.391   0.010  0.00  0.00    +0.032 A 
ATOM      2  C   UNL     1       1.198   2.057   0.002  0.00  0.00    +0.037 A 
ATOM      3  C   UNL     1       2.380   1.328  -0.014  0.00  0.00    +0.126 A 
ATOM      4  N   UNL     1       2.377   0.013  -0.022  0.00  0.00    -0.252 NA
ATOM      5  C   UNL     1       1.243  -0.677  -0.015  0.00  0.00    +0.099 A 
ATOM      6  C   UNL     1       0.002  -0.004   0.002  0.00  0.00    +0.071 A 
ATOM      7  C   UNL     1      -1.236  -0.796   0.011  0.00  0.00    +0.297 A 
ATOM      8  O   UNL     1      -2.317  -0.236   0.024  0.00  0.00    -0.264 OA
ATOM      9  N   UNL     1      -1.175  -2.140   0.005  0.00  0.00    -0.088 N 
ATOM     10  C   UNL     1       0.032  -2.826  -0.010  0.00  0.00    +0.154 A 
ATOM     11  C   UNL     1       1.236  -2.146  -0.025  0.00  0.00    +0.086 A 
ATOM     12  N   UNL     1       2.424  -2.850  -0.055  0.00  0.00    -0.315 N 
ATOM     13  C   UNL     1       2.422  -4.197  -0.645  0.00  0.00    +0.207 C 
ATOM     14  C   UNL     1       1.316  -5.015   0.029  0.00  0.00    +0.132 C 
ATOM     15  C   UNL     1       0.025  -4.240  -0.013  0.00  0.00    +0.189 C 
ATOM     16  O   UNL     1      -1.033  -4.836  -0.053  0.00  0.00    -0.290 OA
ATOM     17  O   UNL     1      -2.383  -2.880   0.014  0.00  0.00    -0.160 OA
ATOM     18 BR   UNL     1       1.246   3.948   0.011  0.00  0.00    -0.049 Br
ATOM     19  H   UNL     1       3.239  -2.465   0.304  0.00  0.00    +0.149 HD
ENDROOT
BRANCH  13  20
ATOM     20  O   UNL     1       2.169  -4.108  -2.049  0.00  0.00    -0.374 OA
ATOM     21  H   UNL     1       2.823  -3.587  -2.534  0.00  0.00    +0.212 HD
ENDBRANCH  13  20
TORSDOF 1
