REMARK  Name = ZINC12504824
REMARK  2 active torsions:
REMARK  status: ('A' for Active; 'I' for Inactive)
REMARK    1  A    between atoms: C_5  and  C_6
REMARK    2  A    between atoms: C_9  and  C_11
REMARK                            x       y       z     vdW  Elec       q    Type
REMARK                         _______ _______ _______ _____ _____    ______ ____
ROOT
ATOM      1  C   UNL     1      -1.328   2.755   2.945  0.00  0.00    +0.284 A 
ATOM      2  N   UNL     1      -2.043   1.653   2.896  0.00  0.00    -0.104 NA
ATOM      3  N   UNL     1      -1.678   0.955   1.878  0.00  0.00    -0.111 NA
ATOM      4  C   UNL     1      -0.718   1.572   1.248  0.00  0.00    +0.232 A 
ATOM      5  O   UNL     1      -0.475   2.723   1.900  0.00  0.00    -0.417 OA
ENDROOT
BRANCH   1  10
ATOM      6  C   UNL     1      -2.303   3.846   5.002  0.00  0.00    +0.056 A 
ATOM      7  C   UNL     1      -2.064   5.045   5.698  0.00  0.00    +0.058 A 
ATOM      8  C   UNL     1      -1.074   5.691   5.045  0.00  0.00    +0.171 A 
ATOM      9  O   UNL     1      -0.695   4.947   3.994  0.00  0.00    -0.443 OA
ATOM     10  C   UNL     1      -1.437   3.823   3.949  0.00  0.00    +0.192 A 
ATOM     11 BR   UNL     1      -0.338   7.362   5.535  0.00  0.00    -0.008 Br
ENDBRANCH   1  10
BRANCH   4  12
ATOM     12  C   UNL     1      -0.013   1.086   0.008  0.00  0.00    +0.206 C 
ATOM     13 CL   UNL     1      -0.885   1.683  -1.453  0.00  0.00    -0.115 Cl
ENDBRANCH   4  12
TORSDOF 2
