REMARK  Name = ZINC13282649
REMARK  5 active torsions:
REMARK  status: ('A' for Active; 'I' for Inactive)
REMARK    1  A    between atoms: C_1  and  C_2
REMARK    2  A    between atoms: N_4  and  C_26
REMARK    3  A    between atoms: C_8  and  N_9
REMARK    4  A    between atoms: N_9  and  C_10
REMARK    5  A    between atoms: N_22  and  C_25
REMARK                            x       y       z     vdW  Elec       q    Type
REMARK                         _______ _______ _______ _____ _____    ______ ____
ROOT
ATOM      1  N   UNL     1      -1.312   3.457   0.040  0.00  0.00    -0.319 N 
ATOM      2  H   UNL     1      -0.382   4.039   0.116  0.00  0.00    +0.152 HD
ENDROOT
BRANCH   1   3
ATOM      3  C   UNL     1      -1.263   2.072   0.027  0.00  0.00    +0.039 A 
ATOM      4  C   UNL     1      -2.437   1.334   0.049  0.00  0.00    +0.024 A 
ATOM      5  C   UNL     1      -2.417  -0.050   0.038  0.00  0.00    +0.015 A 
ATOM      6  C   UNL     1      -1.208  -0.735  -0.003  0.00  0.00    +0.046 A 
ATOM      7  C   UNL     1       0.002  -0.003  -0.034  0.00  0.00    +0.008 A 
ATOM      8  C   UNL     1      -0.017   1.406  -0.022  0.00  0.00    +0.005 A 
ATOM      9  C   UNL     1       1.199   2.104  -0.053  0.00  0.00    +0.010 A 
ATOM     10  C   UNL     1       2.388   1.412  -0.094  0.00  0.00    +0.001 A 
ATOM     11  C   UNL     1       2.417   0.024  -0.106  0.00  0.00    +0.014 A 
ATOM     12  C   UNL     1       1.233  -0.698  -0.076  0.00  0.00    +0.046 A 
ATOM     13  C   UNL     1       1.213  -2.168  -0.088  0.00  0.00    +0.253 C 
ATOM     14  O   UNL     1       2.260  -2.787  -0.125  0.00  0.00    -0.270 OA
ATOM     15  N   UNL     1       0.043  -2.833  -0.059  0.00  0.00    -0.237 N 
ATOM     16  C   UNL     1      -1.145  -2.201  -0.017  0.00  0.00    +0.253 C 
ATOM     17  O   UNL     1      -2.174  -2.850   0.008  0.00  0.00    -0.270 OA
ATOM     18  C   UNL     1       0.063  -4.298  -0.072  0.00  0.00    +0.142 C 
ENDBRANCH   1   3
BRANCH   1  26
ATOM     19  C   UNL     1      -5.170   5.859  -0.248  0.00  0.00    +0.068 C 
ATOM     20  C   UNL     1      -3.738   6.327  -0.235  0.00  0.00    +0.070 C 
ATOM     21  N   UNL     1      -3.333   7.558  -0.306  0.00  0.00    -0.176 NA
ATOM     22  N   UNL     1      -1.941   7.637  -0.267  0.00  0.00    -0.156 N 
ATOM     23  C   UNL     1      -1.409   6.403  -0.159  0.00  0.00    +0.273 C 
ATOM     24  O   UNL     1      -0.225   6.118  -0.095  0.00  0.00    -0.268 OA
ATOM     25  C   UNL     1      -2.545   5.472  -0.138  0.00  0.00    +0.075 C 
ATOM     26  C   UNL     1      -2.502   4.092  -0.042  0.00  0.00    +0.087 C 
BRANCH  22  27
ATOM     27  C   UNL     1      -1.204   8.827  -0.325  0.00  0.00    +0.060 A 
ATOM     28  C   UNL     1       0.184   8.789  -0.271  0.00  0.00    +0.025 A 
ATOM     29  C   UNL     1       0.908   9.963  -0.334  0.00  0.00    +0.002 A 
ATOM     30  C   UNL     1       0.253  11.176  -0.438  0.00  0.00    +0.000 A 
ATOM     31  C   UNL     1      -1.128  11.218  -0.486  0.00  0.00    +0.002 A 
ATOM     32  C   UNL     1      -1.858  10.047  -0.430  0.00  0.00    +0.025 A 
ENDBRANCH  22  27
ENDBRANCH   1  26
TORSDOF 3
