REMARK  Name = ZINC20172335
REMARK  10 active torsions:
REMARK  status: ('A' for Active; 'I' for Inactive)
REMARK    1  A    between atoms: C_1  and  C_2
REMARK    2  A    between atoms: C_2  and  O_3
REMARK    3  A    between atoms: O_3  and  C_4
REMARK    4  A    between atoms: C_4  and  C_5
REMARK    5  A    between atoms: C_5  and  C_6
REMARK    6  A    between atoms: C_6  and  N_7
REMARK    7  A    between atoms: C_8  and  N_9
REMARK    8  A    between atoms: C_10  and  S_24
REMARK    9  A    between atoms: C_16  and  C_23
REMARK   10  A    between atoms: S_24  and  C_27
REMARK                            x       y       z     vdW  Elec       q    Type
REMARK                         _______ _______ _______ _____ _____    ______ ____
ROOT
ATOM      1  N   UNL     1      -4.436  -4.238  -0.095  0.00  0.00    -0.312 N 
ATOM      2  C   UNL     1      -5.027  -4.366   1.080  0.00  0.00    +0.124 A 
ATOM      3  C   UNL     1      -6.319  -4.888   1.198  0.00  0.00    +0.132 A 
ATOM      4  C   UNL     1      -6.997  -5.281   0.076  0.00  0.00    +0.047 A 
ATOM      5  C   UNL     1      -6.361  -5.141  -1.163  0.00  0.00    +0.084 A 
ATOM      6  C   UNL     1      -5.052  -4.599  -1.221  0.00  0.00    +0.150 A 
ATOM      7  N   UNL     1      -4.458  -4.466  -2.414  0.00  0.00    -0.211 NA
ATOM      8  C   UNL     1      -5.058  -4.820  -3.543  0.00  0.00    +0.145 A 
ATOM      9  C   UNL     1      -4.361  -4.647  -4.760  0.00  0.00    -0.007 A 
ATOM     10  C   UNL     1      -4.954  -5.003  -5.931  0.00  0.00    +0.008 A 
ATOM     11  C   UNL     1      -6.252  -5.538  -5.918  0.00  0.00    +0.019 A 
ATOM     12  C   UNL     1      -6.906  -5.699  -4.748  0.00  0.00    +0.096 A 
ATOM     13  N   UNL     1      -6.322  -5.346  -3.566  0.00  0.00    -0.267 N 
ATOM     14  C   UNL     1      -7.008  -5.534  -2.413  0.00  0.00    +0.268 A 
ATOM     15  O   UNL     1      -8.133  -6.000  -2.420  0.00  0.00    -0.267 OA
ATOM     16  C   UNL     1      -2.969  -4.071  -4.760  0.00  0.00    +0.047 C 
ENDROOT
BRANCH   2  17
ATOM     17  N   UNL     1      -4.351  -3.972   2.223  0.00  0.00    -0.343 N 
ATOM     18  H   UNL     1      -3.427  -3.684   2.164  0.00  0.00    +0.144 HD
ATOM     19  H   UNL     1      -4.802  -3.985   3.082  0.00  0.00    +0.144 HD
ENDBRANCH   2  17
BRANCH   3  20
ATOM     20  S   UNL     1      -7.070  -5.042   2.784  0.00  0.00    +0.028 S 
ATOM     21  O   UNL     1      -6.874  -3.800   3.448  0.00  0.00    -0.164 OA
ATOM     22  O   UNL     1      -8.361  -5.596   2.571  0.00  0.00    -0.164 OA
BRANCH  20  23
ATOM     23  C   UNL     1      -6.148  -6.245   3.683  0.00  0.00    +0.094 A 
ATOM     24  C   UNL     1      -6.407  -7.590   3.502  0.00  0.00    +0.029 A 
ATOM     25  C   UNL     1      -5.684  -8.534   4.206  0.00  0.00    +0.022 A 
ATOM     26  C   UNL     1      -4.702  -8.132   5.094  0.00  0.00    +0.041 A 
ATOM     27  C   UNL     1      -4.444  -6.785   5.275  0.00  0.00    +0.022 A 
ATOM     28  C   UNL     1      -5.163  -5.842   4.566  0.00  0.00    +0.029 A 
ATOM     29 CL   UNL     1      -3.794  -9.318   5.980  0.00  0.00    -0.084 Cl
ENDBRANCH  20  23
ENDBRANCH   3  20
BRANCH   1  30
ATOM     30  C   UNL     1      -3.082  -3.684  -0.162  0.00  0.00    +0.127 C 
BRANCH  30  31
ATOM     31  C   UNL     1      -3.160  -2.163  -0.311  0.00  0.00    +0.050 C 
BRANCH  31  32
ATOM     32  C   UNL     1      -1.745  -1.584  -0.381  0.00  0.00    +0.161 C 
BRANCH  32  33
ATOM     33  O   UNL     1      -1.818  -0.164  -0.520  0.00  0.00    -0.380 OA
BRANCH  33  35
ATOM     34  C   UNL     1      -0.742   1.989  -0.741  0.00  0.00    +0.034 C 
ATOM     35  C   UNL     1      -0.544   0.479  -0.595  0.00  0.00    +0.156 C 
ENDBRANCH  33  35
ENDBRANCH  32  33
ENDBRANCH  31  32
ENDBRANCH  30  31
ENDBRANCH   1  30
TORSDOF 8
