REMARK  Name = ZINC63374685
REMARK  3 active torsions:
REMARK  status: ('A' for Active; 'I' for Inactive)
REMARK    1  A    between atoms: C_8  and  C_16
REMARK    2  A    between atoms: N_22  and  C_25
REMARK    3  A    between atoms: C_29  and  C_31
REMARK                            x       y       z     vdW  Elec       q    Type
REMARK                         _______ _______ _______ _____ _____    ______ ____
ROOT
ATOM      1  C   UNL     1       5.239  -3.800  -1.212  0.00  0.00    +0.101 A 
ATOM      2  C   UNL     1       5.629  -3.869   0.137  0.00  0.00    +0.263 A 
ATOM      3  N   UNL     1       6.856  -3.444   0.497  0.00  0.00    -0.274 N 
ATOM      4  H   UNL     1       7.128  -3.490   1.427  0.00  0.00    +0.173 HD
ATOM      5  C   UNL     1       7.707  -2.956  -0.423  0.00  0.00    +0.337 A 
ATOM      6  O   UNL     1       8.810  -2.578  -0.079  0.00  0.00    -0.246 OA
ATOM      7  N   UNL     1       7.356  -2.880  -1.720  0.00  0.00    -0.229 N 
ATOM      8  C   UNL     1       6.117  -3.307  -2.131  0.00  0.00    +0.270 A 
ATOM      9  O   UNL     1       5.770  -3.236  -3.434  0.00  0.00    -0.267 OA
ATOM     10  O   UNL     1       4.862  -4.310   0.976  0.00  0.00    -0.267 OA
ENDROOT
BRANCH   1  17
ATOM     11  C   UNL     1      -1.180  -1.866  -2.871  0.00  0.00    +0.001 A 
ATOM     12  C   UNL     1      -0.374  -0.730  -3.033  0.00  0.00    +0.002 A 
ATOM     13  C   UNL     1       0.919  -0.695  -2.648  0.00  0.00    +0.026 A 
ATOM     14  C   UNL     1       1.525  -1.833  -2.051  0.00  0.00    +0.043 A 
ATOM     15  N   UNL     1       2.750  -2.048  -1.625  0.00  0.00    -0.376 N 
ATOM     16  C   UNL     1       2.800  -3.372  -1.012  0.00  0.00    +0.128 C 
ATOM     17  C   UNL     1       3.872  -4.270  -1.637  0.00  0.00    +0.121 C 
ATOM     18  N   UNL     1       3.652  -5.647  -1.169  0.00  0.00    -0.307 NA
ATOM     19  C   UNL     1       2.407  -6.237  -1.670  0.00  0.00    +0.086 C 
ATOM     20  C   UNL     1       1.195  -5.480  -1.096  0.00  0.00    +0.048 C 
ATOM     21  C   UNL     1       1.451  -4.006  -1.315  0.00  0.00    -0.035 C 
ATOM     22  C   UNL     1       0.697  -3.053  -1.875  0.00  0.00    -0.001 A 
ATOM     23  C   UNL     1      -0.703  -3.003  -2.318  0.00  0.00    +0.010 A 
ATOM     24  H   UNL     1       4.444  -6.234  -1.387  0.00  0.00    +0.123 HD
ATOM     25  H   UNL     1       3.494  -1.431  -1.704  0.00  0.00    +0.160 HD
ENDBRANCH   1  17
BRANCH   7  26
ATOM     26  C   UNL     1       8.262  -2.367  -2.658  0.00  0.00    +0.055 A 
ATOM     27  C   UNL     1       9.148  -3.218  -3.307  0.00  0.00    +0.026 A 
ATOM     28  C   UNL     1      10.040  -2.710  -4.230  0.00  0.00    +0.003 A 
ATOM     29  C   UNL     1      10.052  -1.355  -4.510  0.00  0.00    +0.012 A 
ATOM     30  C   UNL     1       9.171  -0.506  -3.865  0.00  0.00    +0.057 A 
ATOM     31  C   UNL     1       8.272  -1.009  -2.945  0.00  0.00    +0.038 A 
BRANCH  30  32
ATOM     32  C   UNL     1       9.188   0.970  -4.172  0.00  0.00    +0.417 C 
ATOM     33  F   UNL     1      10.171   1.235  -5.131  0.00  0.00    -0.166 F 
ATOM     34  F   UNL     1       7.938   1.358  -4.666  0.00  0.00    -0.166 F 
ATOM     35  F   UNL     1       9.471   1.685  -3.003  0.00  0.00    -0.166 F 
ENDBRANCH  30  32
ENDBRANCH   7  26
TORSDOF 3
