REMARK  Name = ZINC10048341
REMARK  9 active torsions:
REMARK  status: ('A' for Active; 'I' for Inactive)
REMARK    1  A    between atoms: C_1  and  C_2
REMARK    2  A    between atoms: N_9  and  C_10
REMARK    3  A    between atoms: N_16  and  C_35
REMARK    4  A    between atoms: N_19  and  C_22
REMARK    5  A    between atoms: C_22  and  C_23
REMARK    6  A    between atoms: C_23  and  C_25
REMARK    7  A    between atoms: C_23  and  C_26
REMARK    8  A    between atoms: C_26  and  N_27
REMARK    9  A    between atoms: N_27  and  C_28
REMARK                            x       y       z     vdW  Elec       q    Type
REMARK                         _______ _______ _______ _____ _____    ______ ____
ROOT
ATOM      1  C   UNL     1       3.607   0.663  -0.027  0.00  0.00    +0.065 C 
ATOM      2  C   UNL     1       2.100   0.660  -0.014  0.00  0.00    +0.040 A 
ATOM      3  C   UNL     1       1.323  -0.418  -0.012  0.00  0.00    +0.116 A 
ATOM      4  N   UNL     1       0.002  -0.004   0.002  0.00  0.00    -0.277 N 
ATOM      5  C   UNL     1      -1.319  -0.427   0.012  0.00  0.00    +0.157 A 
ATOM      6  C   UNL     1      -2.100   0.728   0.026  0.00  0.00    +0.170 A 
ATOM      7  N   UNL     1      -1.273   1.770   0.028  0.00  0.00    -0.193 NA
ATOM      8  C   UNL     1      -0.016   1.350   0.009  0.00  0.00    +0.223 A 
ATOM      9  N   UNL     1       1.287   1.779  -0.001  0.00  0.00    -0.283 N 
ATOM     10  N   UNL     1      -3.480   0.599   0.038  0.00  0.00    -0.279 N 
ATOM     11  C   UNL     1      -4.043  -0.624   0.036  0.00  0.00    +0.333 A 
ATOM     12  O   UNL     1      -5.255  -0.720   0.046  0.00  0.00    -0.246 OA
ATOM     13  N   UNL     1      -3.298  -1.743   0.023  0.00  0.00    -0.259 N 
ATOM     14  C   UNL     1      -1.950  -1.682   0.011  0.00  0.00    +0.283 A 
ATOM     15  O   UNL     1      -1.288  -2.704  -0.001  0.00  0.00    -0.265 OA
ATOM     16  C   UNL     1      -4.327   1.794   0.052  0.00  0.00    +0.155 C 
ENDROOT
BRANCH   9  17
ATOM     17  C   UNL     1       1.717   3.112   0.001  0.00  0.00    +0.050 A 
ATOM     18  C   UNL     1       1.442   3.933  -1.084  0.00  0.00    +0.026 A 
ATOM     19  C   UNL     1       1.862   5.249  -1.077  0.00  0.00    +0.002 A 
ATOM     20  C   UNL     1       2.567   5.745   0.005  0.00  0.00    +0.000 A 
ATOM     21  C   UNL     1       2.847   4.928   1.085  0.00  0.00    +0.002 A 
ATOM     22  C   UNL     1       2.424   3.613   1.087  0.00  0.00    +0.026 A 
ENDBRANCH   9  17
BRANCH  13  23
ATOM     23  C   UNL     1      -3.960  -3.050   0.022  0.00  0.00    +0.134 C 
BRANCH  23  24
ATOM     24  C   UNL     1      -4.203  -3.497  -1.421  0.00  0.00    +0.023 C 
ATOM     25  C   UNL     1      -2.860  -3.723  -2.118  0.00  0.00    +0.011 C 
BRANCH  24  26
ATOM     26  C   UNL     1      -5.004  -4.801  -1.422  0.00  0.00    +0.106 C 
BRANCH  26  27
ATOM     27  N   UNL     1      -5.340  -5.166  -2.800  0.00  0.00    -0.342 N 
ATOM     28  H   UNL     1      -5.053  -4.602  -3.535  0.00  0.00    +0.146 HD
BRANCH  27  29
ATOM     29  C   UNL     1      -6.074  -6.327  -3.057  0.00  0.00    +0.046 A 
ATOM     30  C   UNL     1      -6.482  -7.139  -2.006  0.00  0.00    +0.024 A 
ATOM     31  C   UNL     1      -7.212  -8.283  -2.262  0.00  0.00    +0.002 A 
ATOM     32  C   UNL     1      -7.528  -8.627  -3.564  0.00  0.00    +0.002 A 
ATOM     33  C   UNL     1      -7.120  -7.824  -4.613  0.00  0.00    +0.022 A 
ATOM     34  C   UNL     1      -6.394  -6.675  -4.364  0.00  0.00    +0.062 A 
ATOM     35 CL   UNL     1      -5.881  -5.668  -5.681  0.00  0.00    -0.082 Cl
ENDBRANCH  27  29
ENDBRANCH  26  27
ENDBRANCH  24  26
ENDBRANCH  23  24
ENDBRANCH  13  23
TORSDOF 6
