REMARK  Name = ZINC32948208
REMARK  10 active torsions:
REMARK  status: ('A' for Active; 'I' for Inactive)
REMARK    1  A    between atoms: C_1  and  C_2
REMARK    2  A    between atoms: C_2  and  C_3
REMARK    3  A    between atoms: C_3  and  C_5
REMARK    4  A    between atoms: C_3  and  C_6
REMARK    5  A    between atoms: C_9  and  C_12
REMARK    6  A    between atoms: C_12  and  C_14
REMARK    7  A    between atoms: C_12  and  N_19
REMARK    8  A    between atoms: C_20  and  C_22
REMARK    9  A    between atoms: N_25  and  S_28
REMARK   10  A    between atoms: S_28  and  N_31
REMARK                            x       y       z     vdW  Elec       q    Type
REMARK                         _______ _______ _______ _____ _____    ______ ____
ROOT
ATOM      1  C   UNL     1      -2.949   2.535   7.249  0.00  0.00    +0.140 C 
ENDROOT
BRANCH   1   5
ATOM      2  C   UNL     1      -0.761   1.454   3.743  0.00  0.00    -0.045 A 
ATOM      3  C   UNL     1      -1.001   2.786   4.025  0.00  0.00    +0.004 A 
ATOM      4  C   UNL     1      -1.713   3.135   5.157  0.00  0.00    +0.006 A 
ATOM      5  C   UNL     1      -2.176   2.154   6.012  0.00  0.00    -0.022 A 
ATOM      6  C   UNL     1      -1.932   0.822   5.734  0.00  0.00    +0.006 A 
ATOM      7  C   UNL     1      -1.224   0.472   4.599  0.00  0.00    +0.004 A 
BRANCH   2   8
ATOM      8  C   UNL     1       0.011   1.072   2.506  0.00  0.00    +0.016 C 
ATOM      9  C   UNL     1       1.405   1.701   2.561  0.00  0.00    +0.012 C 
BRANCH   8  11
ATOM     10  C   UNL     1      -0.013   1.086   0.008  0.00  0.00    +0.004 C 
ATOM     11  C   UNL     1      -0.729   1.579   1.267  0.00  0.00    +0.004 C 
ENDBRANCH   8  11
ENDBRANCH   2   8
ENDBRANCH   1   5
BRANCH   1  12
ATOM     12  C   UNL     1      -4.379   2.833   6.876  0.00  0.00    +0.014 A 
ATOM     13  C   UNL     1      -5.474   2.043   6.992  0.00  0.00    +0.013 A 
ATOM     14  C   UNL     1      -6.700   2.531   6.581  0.00  0.00    +0.008 A 
ATOM     15  C   UNL     1      -6.771   3.786   6.074  0.00  0.00    +0.045 A 
ATOM     16  S   UNL     1      -5.070   4.322   6.173  0.00  0.00    -0.099 S 
ENDBRANCH   1  12
BRANCH   1  17
ATOM     17  N   UNL     1      -2.345   3.724   7.855  0.00  0.00    -0.304 N 
ATOM     18  C   UNL     1      -2.503   3.963   9.172  0.00  0.00    +0.217 C 
ATOM     19  O   UNL     1      -3.146   3.194   9.855  0.00  0.00    -0.275 OA
ATOM     20  H   UNL     1      -1.762   4.421   7.236  0.00  0.00    +0.150 HD
BRANCH  18  21
ATOM     21  C   UNL     1      -1.881   5.186   9.796  0.00  0.00    +0.077 C 
ATOM     22  C   UNL     1      -0.363   5.139   9.607  0.00  0.00    +0.030 C 
ATOM     23  C   UNL     1       0.262   6.400  10.211  0.00  0.00    +0.111 C 
ATOM     24  N   UNL     1      -0.168   6.516  11.611  0.00  0.00    -0.167 NA
ATOM     25  C   UNL     1      -1.606   6.481  11.914  0.00  0.00    +0.111 C 
ATOM     26  C   UNL     1      -2.210   5.219  11.290  0.00  0.00    +0.030 C 
BRANCH  24  27
ATOM     27  S   UNL     1       0.945   6.684  12.825  0.00  0.00    +0.095 S 
ATOM     28  O   UNL     1       2.114   7.233  12.232  0.00  0.00    -0.141 OA
ATOM     29  O   UNL     1       0.274   7.313  13.909  0.00  0.00    -0.141 OA
BRANCH  27  30
ATOM     30  N   UNL     1       1.345   5.160  13.336  0.00  0.00    -0.193 NA
ATOM     31  H   UNL     1       2.087   5.228  14.146  0.00  0.00    +0.145 HD
ATOM     32  H   UNL     1       1.771   4.592  12.496  0.00  0.00    +0.145 HD
ENDBRANCH  27  30
ENDBRANCH  24  27
ENDBRANCH  18  21
ENDBRANCH   1  17
TORSDOF 8
