REMARK  Name = ZINC34686386
REMARK  10 active torsions:
REMARK  status: ('A' for Active; 'I' for Inactive)
REMARK    1  A    between atoms: C_1  and  C_2
REMARK    2  A    between atoms: C_5  and  C_8
REMARK    3  A    between atoms: C_12  and  O_24
REMARK    4  A    between atoms: C_19  and  C_21
REMARK    5  A    between atoms: O_24  and  C_25
REMARK    6  A    between atoms: C_25  and  C_27
REMARK    7  A    between atoms: C_25  and  C_28
REMARK    8  A    between atoms: N_30  and  C_31
REMARK    9  A    between atoms: C_31  and  C_32
REMARK   10  A    between atoms: C_32  and  N_33
REMARK                            x       y       z     vdW  Elec       q    Type
REMARK                         _______ _______ _______ _____ _____    ______ ____
ROOT
ATOM      1  C   UNL     1      -0.189  -4.029  -0.494  0.00  0.00    +0.137 C 
ATOM      2  C   UNL     1      -1.486  -4.598   0.024  0.00  0.00    -0.016 A 
ATOM      3  C   UNL     1      -2.665  -4.147  -0.552  0.00  0.00    +0.051 A 
ATOM      4  C   UNL     1      -3.888  -4.640  -0.127  0.00  0.00    +0.122 A 
ATOM      5  C   UNL     1      -3.930  -5.592   0.881  0.00  0.00    +0.046 A 
ATOM      6  C   UNL     1      -2.757  -6.034   1.454  0.00  0.00    +0.007 A 
ATOM      7  C   UNL     1      -1.530  -5.536   1.032  0.00  0.00    -0.040 A 
ATOM      8  C   UNL     1      -0.294  -6.048   1.724  0.00  0.00    +0.054 C 
ATOM      9  C   UNL     1       0.949  -5.803   0.871  0.00  0.00    +0.113 C 
ATOM     10  N   UNL     1       0.908  -4.408   0.404  0.00  0.00    -0.290 N 
ATOM     11  C   UNL     1       1.842  -3.514   0.784  0.00  0.00    +0.219 C 
ATOM     12  O   UNL     1       1.748  -2.354   0.440  0.00  0.00    -0.275 OA
ENDROOT
BRANCH   1  17
ATOM     13  C   UNL     1      -0.574   1.731  -0.735  0.00  0.00    +0.044 C 
ATOM     14  C   UNL     1      -0.473   0.229  -0.672  0.00  0.00    -0.050 A 
ATOM     15  C   UNL     1      -0.732  -0.432   0.514  0.00  0.00    +0.004 A 
ATOM     16  C   UNL     1      -0.640  -1.810   0.572  0.00  0.00    +0.006 A 
ATOM     17  C   UNL     1      -0.290  -2.527  -0.557  0.00  0.00    -0.023 A 
ATOM     18  C   UNL     1      -0.033  -1.866  -1.743  0.00  0.00    +0.006 A 
ATOM     19  C   UNL     1      -0.129  -0.489  -1.802  0.00  0.00    +0.004 A 
ENDBRANCH   1  17
BRANCH  11  20
ATOM     20  C   UNL     1       3.004  -3.954   1.636  0.00  0.00    +0.075 C 
ATOM     21  C   UNL     1       3.057  -3.444   3.077  0.00  0.00    +0.013 C 
ATOM     22  C   UNL     1       4.031  -2.893   2.034  0.00  0.00    +0.013 C 
ENDBRANCH  11  20
BRANCH   4  23
ATOM     23  O   UNL     1      -5.039  -4.193  -0.694  0.00  0.00    -0.480 OA
BRANCH  23  24
ATOM     24  C   UNL     1      -6.265  -4.649  -0.119  0.00  0.00    +0.255 C 
ATOM     25  C   UNL     1      -6.755  -5.886  -0.875  0.00  0.00    +0.062 C 
BRANCH  24  26
ATOM     26  C   UNL     1      -7.301  -3.559  -0.215  0.00  0.00    +0.253 C 
ATOM     27  O   UNL     1      -7.046  -2.530  -0.805  0.00  0.00    -0.272 OA
ATOM     28  N   UNL     1      -8.511  -3.726   0.356  0.00  0.00    -0.314 N 
ATOM     29  H   UNL     1      -8.714  -4.549   0.828  0.00  0.00    +0.149 HD
BRANCH  28  30
ATOM     30  C   UNL     1      -9.518  -2.667   0.263  0.00  0.00    +0.086 C 
BRANCH  30  31
ATOM     31  C   UNL     1     -10.790  -3.107   0.988  0.00  0.00    -0.060 C 
BRANCH  31  32
ATOM     32  N   UNL     1     -11.800  -2.044   0.895  0.00  0.00    +0.381 N 
ATOM     33  C   UNL     1     -12.275  -1.910  -0.506  0.00  0.00    -0.079 C 
ATOM     34  C   UNL     1     -13.652  -1.218  -0.349  0.00  0.00    -0.020 C 
ATOM     35  C   UNL     1     -14.222  -1.869   0.932  0.00  0.00    -0.020 C 
ATOM     36  C   UNL     1     -12.993  -2.403   1.692  0.00  0.00    -0.079 C 
ATOM     37  H   UNL     1     -11.416  -1.169   1.218  0.00  0.00    -0.082 HD
ENDBRANCH  31  32
ENDBRANCH  30  31
ENDBRANCH  28  30
ENDBRANCH  24  26
ENDBRANCH  23  24
ENDBRANCH   4  23
TORSDOF 8
