REMARK  Name = ZINC39945006
REMARK  6 active torsions:
REMARK  status: ('A' for Active; 'I' for Inactive)
REMARK    1  A    between atoms: C_6  and  C_7
REMARK    2  A    between atoms: C_7  and  O_9
REMARK    3  A    between atoms: O_9  and  C_10
REMARK    4  A    between atoms: C_10  and  C_11
REMARK    5  A    between atoms: N_13  and  C_14
REMARK    6  A    between atoms: C_16  and  C_24
REMARK                            x       y       z     vdW  Elec       q    Type
REMARK                         _______ _______ _______ _____ _____    ______ ____
ROOT
ATOM      1  C   UNL     1      -3.629  -0.894   0.033  0.00  0.00    +0.328 C 
ENDROOT
BRANCH   1   2
ATOM      2  C   UNL     1      -4.836   0.008   0.049  0.00  0.00    +0.252 C 
ATOM      3  O   UNL     1      -4.693   1.212   0.054  0.00  0.00    -0.272 OA
ATOM      4  N   UNL     1      -6.075  -0.524   0.059  0.00  0.00    -0.299 N 
ATOM      5  H   UNL     1      -6.189  -1.487   0.055  0.00  0.00    +0.150 HD
BRANCH   4   6
ATOM      6  C   UNL     1      -7.248   0.353   0.075  0.00  0.00    +0.151 C 
ATOM      7  C   UNL     1      -8.271  -0.047  -1.012  0.00  0.00    +0.132 C 
ATOM      8  C   UNL     1      -8.926   1.171  -1.637  0.00  0.00    -0.046 C 
ATOM      9  C   UNL     1      -8.312   2.332  -1.498  0.00  0.00    -0.013 C 
ATOM     10  S   UNL     1      -6.839   2.042  -0.534  0.00  0.00    -0.106 S 
ATOM     11  C   UNL     1      -9.052   3.457  -2.183  0.00  0.00    +0.042 C 
ATOM     12  C   UNL     1     -10.030   2.749  -3.143  0.00  0.00    +0.009 C 
ATOM     13  C   UNL     1     -10.213   1.389  -2.441  0.00  0.00    +0.033 C 
BRANCH   7  14
ATOM     14  C   UNL     1      -9.337  -0.912  -0.391  0.00  0.00    +0.220 C 
ATOM     15  O   UNL     1     -10.493  -0.546  -0.394  0.00  0.00    -0.275 OA
ATOM     16  N   UNL     1      -9.006  -2.093   0.168  0.00  0.00    -0.329 N 
ATOM     17  H   UNL     1      -8.081  -2.385   0.171  0.00  0.00    +0.145 HD
ATOM     18  H   UNL     1      -9.692  -2.649   0.568  0.00  0.00    +0.145 HD
ENDBRANCH   7  14
ENDBRANCH   4   6
ENDBRANCH   1   2
BRANCH   1  19
ATOM     19  O   UNL     1      -2.441  -0.100   0.025  0.00  0.00    -0.452 OA
BRANCH  19  20
ATOM     20  C   UNL     1      -1.266  -0.758   0.010  0.00  0.00    +0.340 C 
ATOM     21  O   UNL     1      -1.250  -1.973   0.004  0.00  0.00    -0.245 OA
BRANCH  20  27
ATOM     22  C   UNL     1      -0.017   1.398   0.010  0.00  0.00    +0.017 A 
ATOM     23  C   UNL     1       1.147   2.108   0.002  0.00  0.00    +0.027 A 
ATOM     24  C   UNL     1       2.373   1.448  -0.013  0.00  0.00    +0.047 A 
ATOM     25  C   UNL     1       2.407   0.038  -0.021  0.00  0.00    +0.004 A 
ATOM     26  C   UNL     1       1.216  -0.685  -0.013  0.00  0.00    +0.025 A 
ATOM     27  C   UNL     1       0.002  -0.004   0.002  0.00  0.00    +0.060 A 
ATOM     28  C   UNL     1       3.821  -0.327  -0.038  0.00  0.00    -0.019 A 
ATOM     29  C   UNL     1       4.529   0.818  -0.038  0.00  0.00    +0.020 A 
ATOM     30  N   UNL     1       3.676   1.886  -0.024  0.00  0.00    -0.358 N 
ATOM     31  H   UNL     1       3.951   2.816  -0.021  0.00  0.00    +0.166 HD
ATOM     32  C   UNL     1       6.040   0.867  -0.052  0.00  0.00    +0.053 C 
ATOM     33  C   UNL     1       6.576  -0.509   0.357  0.00  0.00    +0.006 C 
ATOM     34  C   UNL     1       5.890  -1.594  -0.478  0.00  0.00    +0.005 C 
ATOM     35  C   UNL     1       4.421  -1.708  -0.053  0.00  0.00    +0.037 C 
ENDBRANCH  20  27
ENDBRANCH  19  20
ENDBRANCH   1  19
TORSDOF 6
