REMARK  Name = ZINC09112771
REMARK  8 active torsions:
REMARK  status: ('A' for Active; 'I' for Inactive)
REMARK    1  A    between atoms: C_1  and  C_2
REMARK    2  A    between atoms: C_10  and  C_26
REMARK    3  A    between atoms: C_11  and  C_12
REMARK    4  A    between atoms: C_12  and  O_14
REMARK    5  A    between atoms: O_14  and  C_15
REMARK    6  A    between atoms: C_15  and  C_16
REMARK    7  A    between atoms: N_22  and  C_23
REMARK    8  A    between atoms: N_22  and  C_24
REMARK                            x       y       z     vdW  Elec       q    Type
REMARK                         _______ _______ _______ _____ _____    ______ ____
ROOT
ATOM      1  C   UNL     1      -0.033   0.002  -2.485  0.00  0.00    +0.342 C 
ATOM      2  O   UNL     1       1.007   0.310  -3.030  0.00  0.00    -0.245 OA
ENDROOT
BRANCH   1  13
ATOM      3  C   UNL     1      -0.018   1.503   0.010  0.00  0.00    +0.045 C 
ATOM      4  C   UNL     1       0.002  -0.004   0.002  0.00  0.00    -0.026 A 
ATOM      5  C   UNL     1       0.023  -0.735   1.202  0.00  0.00    +0.004 A 
ATOM      6  C   UNL     1       0.026  -0.087   2.449  0.00  0.00    +0.010 A 
ATOM      7  C   UNL     1       0.048  -0.827   3.592  0.00  0.00    +0.001 A 
ATOM      8  C   UNL     1       0.066  -2.219   3.541  0.00  0.00    +0.002 A 
ATOM      9  C   UNL     1       0.063  -2.879   2.350  0.00  0.00    +0.028 A 
ATOM     10  C   UNL     1       0.042  -2.151   1.148  0.00  0.00    +0.072 A 
ATOM     11  N   UNL     1       0.038  -2.780  -0.034  0.00  0.00    -0.251 NA
ATOM     12  C   UNL     1       0.018  -2.120  -1.163  0.00  0.00    +0.053 A 
ATOM     13  C   UNL     1      -0.005  -0.714  -1.194  0.00  0.00    +0.083 A 
ATOM     14  C   UNL     1       0.015  -2.885  -2.462  0.00  0.00    +0.066 C 
ENDBRANCH   1  13
BRANCH   1  15
ATOM     15  O   UNL     1      -1.213   0.313  -3.057  0.00  0.00    -0.453 OA
BRANCH  15  16
ATOM     16  C   UNL     1      -1.164   1.017  -4.326  0.00  0.00    +0.308 C 
BRANCH  16  17
ATOM     17  C   UNL     1      -2.567   1.278  -4.810  0.00  0.00    +0.173 A 
ATOM     18  N   UNL     1      -3.186   2.393  -4.465  0.00  0.00    -0.196 NA
ATOM     19  C   UNL     1      -4.425   2.627  -4.891  0.00  0.00    +0.217 A 
ATOM     20  N   UNL     1      -5.040   1.738  -5.663  0.00  0.00    -0.181 NA
ATOM     21  C   UNL     1      -4.414   0.617  -6.007  0.00  0.00    +0.222 A 
ATOM     22  N   UNL     1      -3.173   0.393  -5.581  0.00  0.00    -0.196 NA
ATOM     23  N   UNL     1      -5.048  -0.310  -6.808  0.00  0.00    -0.306 N 
ATOM     24  C   UNL     1      -6.412  -0.059  -7.281  0.00  0.00    +0.132 C 
ATOM     25  C   UNL     1      -4.358  -1.545  -7.187  0.00  0.00    +0.132 C 
ATOM     26  N   UNL     1      -5.071   3.793  -4.531  0.00  0.00    -0.327 N 
ATOM     27  H   UNL     1      -4.622   4.442  -3.967  0.00  0.00    +0.145 HD
ATOM     28  H   UNL     1      -5.974   3.963  -4.842  0.00  0.00    +0.145 HD
ENDBRANCH  16  17
ENDBRANCH  15  16
ENDBRANCH   1  15
TORSDOF 4
