REMARK  Name = ZINC08671973
REMARK  12 active torsions:
REMARK  status: ('A' for Active; 'I' for Inactive)
REMARK    1  A    between atoms: C_1  and  C_2
REMARK    2  A    between atoms: C_2  and  O_3
REMARK    3  A    between atoms: O_3  and  C_4
REMARK    4  A    between atoms: C_4  and  C_6
REMARK    5  A    between atoms: C_7  and  C_23
REMARK    6  A    between atoms: C_9  and  N_22
REMARK    7  A    between atoms: C_10  and  C_20
REMARK    8  A    between atoms: C_11  and  C_13
REMARK    9  A    between atoms: C_23  and  S_24
REMARK   10  A    between atoms: S_24  and  C_25
REMARK   11  A    between atoms: C_26  and  C_35
REMARK   12  A    between atoms: C_34  and  N_60
REMARK                            x       y       z     vdW  Elec       q    Type
REMARK                         _______ _______ _______ _____ _____    ______ ____
ROOT
ATOM      1  C   UNL     1      -0.607   3.163   1.198  0.00  0.00    +0.088 C 
ATOM      2  C   UNL     1      -0.561   1.859   0.898  0.00  0.00    +0.128 C 
ATOM      3  O   UNL     1      -0.036   1.406  -0.248  0.00  0.00    -0.444 OA
ATOM      4  C   UNL     1       0.123   2.250  -1.282  0.00  0.00    +0.198 C 
ATOM      5  C   UNL     1       0.120   3.595  -1.113  0.00  0.00    +0.098 C 
ATOM      6  C   UNL     1      -0.059   4.198   0.254  0.00  0.00    +0.105 C 
ENDROOT
BRANCH   6   7
ATOM      7  C   UNL     1       1.271   4.687   0.764  0.00  0.00    -0.034 A 
ATOM      8  C   UNL     1       2.317   3.798   0.930  0.00  0.00    +0.007 A 
ATOM      9  C   UNL     1       3.539   4.246   1.393  0.00  0.00    +0.038 A 
ATOM     10  C   UNL     1       3.713   5.585   1.702  0.00  0.00    +0.123 A 
ATOM     11  C   UNL     1       2.664   6.473   1.540  0.00  0.00    +0.038 A 
ATOM     12  C   UNL     1       1.444   6.024   1.072  0.00  0.00    +0.007 A 
ATOM     13  F   UNL     1       4.906   6.023   2.160  0.00  0.00    -0.205 F 
ENDBRANCH   6   7
BRANCH   4  14
ATOM     14  N   UNL     1       0.287   1.736  -2.545  0.00  0.00    -0.328 N 
ATOM     15  H   UNL     1       0.399   2.334  -3.301  0.00  0.00    +0.145 HD
ATOM     16  H   UNL     1       0.292   0.776  -2.680  0.00  0.00    +0.145 HD
ENDBRANCH   4  14
BRANCH   1  17
ATOM     17  C   UNL     1      -1.179   3.575   2.427  0.00  0.00    +0.339 C 
ATOM     18  O   UNL     1      -1.244   2.796   3.359  0.00  0.00    -0.245 OA
BRANCH  17  19
ATOM     19  O   UNL     1      -1.653   4.830   2.563  0.00  0.00    -0.462 OA
BRANCH  19  21
ATOM     20  C   UNL     1      -2.697   6.630   3.793  0.00  0.00    +0.048 C 
ATOM     21  C   UNL     1      -2.217   5.178   3.829  0.00  0.00    +0.229 C 
ENDBRANCH  19  21
ENDBRANCH  17  19
ENDBRANCH   1  17
BRANCH   5  22
ATOM     22  C   UNL     1       0.290   4.451  -2.248  0.00  0.00    +0.101 C 
ATOM     23  N   UNL     1       0.425   5.131  -3.149  0.00  0.00    -0.191 NA
ENDBRANCH   5  22
BRANCH   2  24
ATOM     24  C   UNL     1      -1.125   0.866   1.881  0.00  0.00    +0.150 C 
BRANCH  24  25
ATOM     25  S   UNL     1       0.230   0.038   2.749  0.00  0.00    -0.097 S 
BRANCH  25  26
ATOM     26  C   UNL     1      -0.690  -1.034   3.801  0.00  0.00    +0.115 A 
ATOM     27  C   UNL     1      -0.016  -1.900   4.682  0.00  0.00    +0.084 A 
ATOM     28  C   UNL     1      -0.774  -2.736   5.505  0.00  0.00    +0.025 A 
ATOM     29  C   UNL     1      -2.158  -2.687   5.415  0.00  0.00    -0.041 A 
ATOM     30  C   UNL     1      -2.750  -1.813   4.526  0.00  0.00    +0.042 A 
ATOM     31  N   UNL     1      -2.010  -1.026   3.758  0.00  0.00    -0.244 NA
ATOM     32  C   UNL     1      -4.251  -1.720   4.399  0.00  0.00    +0.037 C 
ATOM     33  C   UNL     1      -4.905  -2.953   5.021  0.00  0.00    -0.073 C 
ATOM     34  C   UNL     1      -2.966  -3.600   6.297  0.00  0.00    -0.042 C 
ATOM     35  C   UNL     1      -5.179  -4.080   7.149  0.00  0.00    -0.096 C 
ATOM     36  N   UNL     1      -4.356  -3.119   6.383  0.00  0.00    +0.381 N 
ATOM     37  H   UNL     1      -4.368  -2.212   6.863  0.00  0.00    -0.082 HD
BRANCH  27  38
ATOM     38  C   UNL     1       1.415  -1.920   4.736  0.00  0.00    +0.102 C 
ATOM     39  N   UNL     1       2.550  -1.936   4.780  0.00  0.00    -0.191 NA
ENDBRANCH  27  38
ENDBRANCH  25  26
ENDBRANCH  24  25
ENDBRANCH   2  24
TORSDOF 10
