REMARK  Name = ZINC09287557
REMARK  7 active torsions:
REMARK  status: ('A' for Active; 'I' for Inactive)
REMARK    1  A    between atoms: C_1  and  C_2
REMARK    2  A    between atoms: C_11  and  C_13
REMARK    3  A    between atoms: C_16  and  S_19
REMARK    4  A    between atoms: S_19  and  C_20
REMARK    5  A    between atoms: N_21  and  C_22
REMARK    6  A    between atoms: C_22  and  C_23
REMARK    7  A    between atoms: C_23  and  C_24
REMARK                            x       y       z     vdW  Elec       q    Type
REMARK                         _______ _______ _______ _____ _____    ______ ____
ROOT
ATOM      1  C   UNL     1      -6.371   3.962  -2.891  0.00  0.00    +0.066 C 
ATOM      2  C   UNL     1      -5.372   3.170  -2.088  0.00  0.00    +0.047 A 
ATOM      3  C   UNL     1      -5.359   3.272  -0.727  0.00  0.00    +0.093 A 
ATOM      4  C   UNL     1      -4.413   2.529   0.005  0.00  0.00    +0.257 A 
ATOM      5  O   UNL     1      -4.379   2.588   1.223  0.00  0.00    -0.267 OA
ATOM      6  N   UNL     1      -3.549   1.751  -0.671  0.00  0.00    -0.255 N 
ATOM      7  C   UNL     1      -3.622   1.674  -2.033  0.00  0.00    +0.207 A 
ATOM      8  N   UNL     1      -4.503   2.372  -2.709  0.00  0.00    -0.221 NA
ATOM      9  N   UNL     1      -2.728   0.828  -2.663  0.00  0.00    -0.259 N 
ATOM     10  C   UNL     1      -2.415  -0.345  -1.985  0.00  0.00    +0.162 C 
ATOM     11  C   UNL     1      -2.513   0.976   0.019  0.00  0.00    +0.220 C 
ATOM     12  N   UNL     1      -2.209  -1.520  -2.667  0.00  0.00    -0.318 N 
ATOM     13  H   UNL     1      -2.342   1.041  -3.527  0.00  0.00    +0.158 HD
ATOM     14  H   UNL     1      -2.281  -1.539  -3.634  0.00  0.00    +0.149 HD
ATOM     15  N   UNL     1      -2.308  -0.359  -0.647  0.00  0.00    -0.337 N 
ATOM     16  H   UNL     1      -2.103  -1.215  -0.118  0.00  0.00    +0.164 HD
ENDROOT
BRANCH  11  17
ATOM     17  C   UNL     1      -1.220   1.750   0.017  0.00  0.00    -0.004 A 
ATOM     18  C   UNL     1      -0.013   1.076   0.008  0.00  0.00    +0.008 A 
ATOM     19  C   UNL     1       1.174   1.782   0.000  0.00  0.00    +0.015 A 
ATOM     20  C   UNL     1       1.154   3.171   0.008  0.00  0.00    +0.008 A 
ATOM     21  C   UNL     1      -0.061   3.845   0.022  0.00  0.00    +0.015 A 
ATOM     22  C   UNL     1      -1.244   3.133   0.030  0.00  0.00    +0.008 A 
BRANCH  20  23
ATOM     23  S   UNL     1       2.666   4.076  -0.003  0.00  0.00    -0.129 S 
ATOM     24  C   UNL     1       2.139   5.812   0.011  0.00  0.00    +0.090 C 
ENDBRANCH  20  23
ENDBRANCH  11  17
BRANCH  12  25
ATOM     25  C   UNL     1      -1.880  -2.745  -1.934  0.00  0.00    +0.109 C 
BRANCH  25  26
ATOM     26  C   UNL     1      -1.702  -3.899  -2.922  0.00  0.00    +0.056 C 
BRANCH  26  27
ATOM     27  C   UNL     1      -1.363  -5.159  -2.168  0.00  0.00    -0.021 A 
ATOM     28  C   UNL     1      -0.134  -5.646  -1.937  0.00  0.00    +0.087 A 
ATOM     29  N   UNL     1      -0.218  -6.806  -1.216  0.00  0.00    -0.360 N 
ATOM     30  H   UNL     1       0.539  -7.339  -0.927  0.00  0.00    +0.165 HD
ATOM     31  C   UNL     1      -1.539  -7.107  -0.968  0.00  0.00    +0.047 A 
ATOM     32  C   UNL     1      -2.314  -6.089  -1.553  0.00  0.00    +0.003 A 
ATOM     33  C   UNL     1      -3.706  -6.132  -1.458  0.00  0.00    +0.010 A 
ATOM     34  C   UNL     1      -4.310  -7.165  -0.798  0.00  0.00    +0.001 A 
ATOM     35  C   UNL     1      -3.550  -8.172  -0.220  0.00  0.00    +0.002 A 
ATOM     36  C   UNL     1      -2.174  -8.149  -0.300  0.00  0.00    +0.026 A 
ENDBRANCH  26  27
ENDBRANCH  25  26
ENDBRANCH  12  25
TORSDOF 5
