REMARK  Name = ZINC05451048
REMARK  9 active torsions:
REMARK  status: ('A' for Active; 'I' for Inactive)
REMARK    1  A    between atoms: C_1  and  C_2
REMARK    2  A    between atoms: C_2  and  C_3
REMARK    3  A    between atoms: C_3  and  C_5
REMARK    4  A    between atoms: C_3  and  C_6
REMARK    5  A    between atoms: C_6  and  C_8
REMARK    6  A    between atoms: C_6  and  N_18
REMARK    7  A    between atoms: N_10  and  C_11
REMARK    8  A    between atoms: C_11  and  C_12
REMARK    9  A    between atoms: C_19  and  C_21
REMARK                            x       y       z     vdW  Elec       q    Type
REMARK                         _______ _______ _______ _____ _____    ______ ____
ROOT
ATOM      1  N   UNL     1       3.938   2.062   0.236  0.00  0.00    -0.305 N 
ATOM      2  C   UNL     1       5.235   1.712   0.136  0.00  0.00    +0.200 C 
ATOM      3  O   UNL     1       5.536   0.587  -0.202  0.00  0.00    -0.278 OA
ATOM      4  H   UNL     1       3.697   2.962   0.507  0.00  0.00    +0.149 HD
ENDROOT
BRANCH   2   5
ATOM      5  C   UNL     1       6.313   2.719   0.445  0.00  0.00    +0.021 C 
ATOM      6  C   UNL     1       6.511   3.644  -0.756  0.00  0.00    +0.028 C 
ATOM      7  C   UNL     1       7.741   4.492  -0.555  0.00  0.00    -0.047 A 
ATOM      8  C   UNL     1       7.900   5.624  -1.340  0.00  0.00    +0.004 A 
ATOM      9  C   UNL     1       9.013   6.426  -1.191  0.00  0.00    +0.000 A 
ATOM     10  C   UNL     1       9.975   6.099  -0.253  0.00  0.00    +0.000 A 
ATOM     11  C   UNL     1       9.818   4.974   0.529  0.00  0.00    +0.002 A 
ATOM     12  C   UNL     1       8.699   4.167   0.381  0.00  0.00    -0.061 A 
ATOM     13  C   UNL     1       8.567   2.954   1.265  0.00  0.00    -0.045 C 
ATOM     14  N   UNL     1       7.581   2.016   0.711  0.00  0.00    +0.389 N 
ATOM     15  H   UNL     1       7.942   1.621  -0.166  0.00  0.00    -0.084 HD
ATOM     16  H   UNL     1       7.416   1.259   1.385  0.00  0.00    -0.084 HD
ENDBRANCH   2   5
BRANCH   1  17
ATOM     17  C   UNL     1       2.890   1.083  -0.065  0.00  0.00    +0.162 C 
BRANCH  17  18
ATOM     18  C   UNL     1       1.633   1.803  -0.480  0.00  0.00    +0.234 C 
ATOM     19  O   UNL     1       1.485   2.974  -0.200  0.00  0.00    -0.274 OA
ATOM     20  N   UNL     1       0.674   1.146  -1.162  0.00  0.00    -0.311 N 
ATOM     21  H   UNL     1       0.822   0.231  -1.447  0.00  0.00    +0.149 HD
BRANCH  20  22
ATOM     22  C   UNL     1      -0.589   1.817  -1.478  0.00  0.00    +0.135 C 
BRANCH  22  23
ATOM     23  C   UNL     1      -1.494   0.860  -2.257  0.00  0.00    +0.135 C 
ATOM     24  C   UNL     1      -2.779   1.593  -2.695  0.00  0.00    +0.035 C 
ATOM     25  C   UNL     1      -3.867   0.504  -2.489  0.00  0.00    +0.031 C 
ATOM     26  C   UNL     1      -3.310  -0.236  -1.247  0.00  0.00    +0.160 C 
ATOM     27  O   UNL     1      -1.883  -0.233  -1.417  0.00  0.00    -0.375 OA
ENDBRANCH  22  23
ENDBRANCH  20  22
ENDBRANCH  17  18
BRANCH  17  28
ATOM     28  C   UNL     1       2.607   0.240   1.181  0.00  0.00    +0.015 C 
ATOM     29  C   UNL     1       2.293   1.163   2.360  0.00  0.00    +0.010 C 
BRANCH  28  31
ATOM     30  C   UNL     1       4.048  -1.650   0.410  0.00  0.00    +0.004 C 
ATOM     31  C   UNL     1       3.836  -0.610   1.512  0.00  0.00    +0.002 C 
ENDBRANCH  28  31
ENDBRANCH  17  28
ENDBRANCH   1  17
TORSDOF 7
