REMARK  Name = ZINC05350930
REMARK  5 active torsions:
REMARK  status: ('A' for Active; 'I' for Inactive)
REMARK    1  A    between atoms: C_7  and  C_20
REMARK    2  A    between atoms: C_10  and  C_12
REMARK    3  A    between atoms: N_21  and  N_22
REMARK    4  A    between atoms: N_22  and  C_23
REMARK    5  A    between atoms: C_23  and  N_25
REMARK                            x       y       z     vdW  Elec       q    Type
REMARK                         _______ _______ _______ _____ _____    ______ ____
ROOT
ATOM      1  C   UNL     1       5.469   1.065   0.277  0.00  0.00    +0.001 A 
ATOM      2  C   UNL     1       4.604  -0.018   0.325  0.00  0.00    +0.002 A 
ATOM      3  C   UNL     1       3.239   0.170   0.275  0.00  0.00    +0.027 A 
ATOM      4  C   UNL     1       2.720   1.456   0.178  0.00  0.00    +0.059 A 
ATOM      5  C   UNL     1       3.595   2.551   0.127  0.00  0.00    +0.010 A 
ATOM      6  C   UNL     1       4.972   2.347   0.172  0.00  0.00    +0.011 A 
ATOM      7  C   UNL     1       2.744   3.752   0.033  0.00  0.00    +0.039 A 
ATOM      8  C   UNL     1       1.455   3.319   0.028  0.00  0.00    +0.126 A 
ATOM      9  N   UNL     1       1.429   1.952   0.111  0.00  0.00    -0.266 N 
ATOM     10  C   UNL     1       0.310   1.201   0.130  0.00  0.00    +0.265 C 
ATOM     11  O   UNL     1      -0.169   0.851   1.191  0.00  0.00    -0.267 OA
ATOM     12 CL   UNL     1       0.056   4.342  -0.069  0.00  0.00    -0.063 Cl
ENDROOT
BRANCH  10  13
ATOM     13  C   UNL     1      -0.330   0.797  -1.138  0.00  0.00    +0.058 A 
ATOM     14  C   UNL     1       0.281   1.095  -2.358  0.00  0.00    +0.015 A 
ATOM     15  C   UNL     1      -0.322   0.715  -3.538  0.00  0.00    +0.001 A 
ATOM     16  C   UNL     1      -1.530   0.039  -3.517  0.00  0.00    +0.001 A 
ATOM     17  C   UNL     1      -2.141  -0.260  -2.313  0.00  0.00    +0.021 A 
ATOM     18  C   UNL     1      -1.547   0.110  -1.123  0.00  0.00    +0.053 A 
ATOM     19 CL   UNL     1      -2.312  -0.272   0.388  0.00  0.00    -0.083 Cl
ENDBRANCH  10  13
BRANCH   7  20
ATOM     20  C   UNL     1       3.201   5.149  -0.041  0.00  0.00    +0.141 C 
ATOM     21  N   UNL     1       4.026   5.514  -0.975  0.00  0.00    -0.188 NA
BRANCH  21  22
ATOM     22  N   UNL     1       4.526   4.567  -1.878  0.00  0.00    -0.219 N 
ATOM     23  H   UNL     1       4.193   3.656  -1.859  0.00  0.00    +0.176 HD
BRANCH  22  24
ATOM     24  C   UNL     1       5.470   4.920  -2.772  0.00  0.00    +0.147 C 
ATOM     25  S   UNL     1       5.988   3.800  -3.959  0.00  0.00    -0.017 S 
BRANCH  24  26
ATOM     26  N   UNL     1       6.006   6.157  -2.733  0.00  0.00    -0.339 N 
ATOM     27  H   UNL     1       5.712   6.791  -2.061  0.00  0.00    +0.144 HD
ATOM     28  H   UNL     1       6.685   6.411  -3.377  0.00  0.00    +0.144 HD
ENDBRANCH  24  26
ENDBRANCH  22  24
ENDBRANCH  21  22
ENDBRANCH   7  20
TORSDOF 5
