REMARK  Name = ZINC22938271
REMARK  9 active torsions:
REMARK  status: ('A' for Active; 'I' for Inactive)
REMARK    1  A    between atoms: C_1  and  C_2
REMARK    2  A    between atoms: C_2  and  N_3
REMARK    3  A    between atoms: N_6  and  C_9
REMARK    4  A    between atoms: C_9  and  C_11
REMARK    5  A    between atoms: C_9  and  C_19
REMARK    6  A    between atoms: C_16  and  O_17
REMARK    7  A    between atoms: O_17  and  C_18
REMARK    8  A    between atoms: C_20  and  N_28
REMARK    9  A    between atoms: C_29  and  C_31
REMARK                            x       y       z     vdW  Elec       q    Type
REMARK                         _______ _______ _______ _____ _____    ______ ____
ROOT
ATOM      1  C   UNL     1       1.551  -4.455   5.409  0.00  0.00    +0.149 A 
ATOM      2  C   UNL     1       2.781  -4.774   4.969  0.00  0.00    +0.085 A 
ATOM      3  C   UNL     1       2.589  -5.777   3.910  0.00  0.00    +0.042 A 
ATOM      4  C   UNL     1       3.448  -6.490   3.077  0.00  0.00    +0.013 A 
ATOM      5  C   UNL     1       2.934  -7.375   2.170  0.00  0.00    +0.001 A 
ATOM      6  C   UNL     1       1.563  -7.565   2.074  0.00  0.00    +0.004 A 
ATOM      7  C   UNL     1       0.698  -6.868   2.890  0.00  0.00    +0.047 A 
ATOM      8  C   UNL     1       1.200  -5.965   3.819  0.00  0.00    +0.137 A 
ATOM      9  O   UNL     1       0.623  -5.160   4.734  0.00  0.00    -0.456 OA
ENDROOT
BRANCH   2  10
ATOM     10  N   UNL     1       4.003  -4.255   5.429  0.00  0.00    -0.278 N 
ATOM     11  C   UNL     1       4.880  -5.058   6.063  0.00  0.00    +0.248 C 
ATOM     12  O   UNL     1       4.657  -6.250   6.156  0.00  0.00    -0.270 OA
ATOM     13  H   UNL     1       4.216  -3.319   5.289  0.00  0.00    +0.155 HD
BRANCH  11  14
ATOM     14  C   UNL     1       6.114  -4.490   6.647  0.00  0.00    +0.037 A 
ATOM     15  C   UNL     1       6.370  -3.122   6.547  0.00  0.00    +0.013 A 
ATOM     16  C   UNL     1       7.524  -2.598   7.094  0.00  0.00    +0.001 A 
ATOM     17  C   UNL     1       8.425  -3.426   7.739  0.00  0.00    +0.000 A 
ATOM     18  C   UNL     1       8.177  -4.783   7.841  0.00  0.00    +0.001 A 
ATOM     19  C   UNL     1       7.024  -5.319   7.305  0.00  0.00    +0.013 A 
ENDBRANCH  11  14
ENDBRANCH   2  10
BRANCH   1  20
ATOM     20  C   UNL     1       1.254  -3.460   6.501  0.00  0.00    +0.159 C 
BRANCH  20  24
ATOM     21  N   UNL     1      -1.053  -0.086   5.422  0.00  0.00    +0.381 N 
ATOM     22  C   UNL     1      -1.374  -0.768   6.683  0.00  0.00    -0.063 C 
ATOM     23  C   UNL     1      -0.175  -1.608   7.128  0.00  0.00    +0.067 C 
ATOM     24  N   UNL     1       0.142  -2.594   6.085  0.00  0.00    -0.293 NA
ATOM     25  C   UNL     1       0.442  -1.927   4.810  0.00  0.00    +0.067 C 
ATOM     26  C   UNL     1      -0.762  -1.084   4.384  0.00  0.00    -0.063 C 
ATOM     27  H   UNL     1      -0.247   0.505   5.555  0.00  0.00    -0.082 HD
BRANCH  21  29
ATOM     28  C   UNL     1      -2.423   1.852   6.024  0.00  0.00    -0.017 C 
ATOM     29  C   UNL     1      -2.198   0.735   5.004  0.00  0.00    -0.082 C 
ENDBRANCH  21  29
ENDBRANCH  20  24
BRANCH  20  30
ATOM     30  C   UNL     1       0.876  -4.194   7.761  0.00  0.00    +0.019 A 
ATOM     31  C   UNL     1      -0.454  -4.423   8.055  0.00  0.00    +0.009 A 
ATOM     32  C   UNL     1      -0.802  -5.096   9.211  0.00  0.00    +0.001 A 
ATOM     33  C   UNL     1       0.180  -5.542  10.076  0.00  0.00    +0.004 A 
ATOM     34  C   UNL     1       1.512  -5.317   9.787  0.00  0.00    +0.046 A 
ATOM     35  C   UNL     1       1.863  -4.646   8.624  0.00  0.00    +0.125 A 
BRANCH  35  36
ATOM     36  O   UNL     1       3.173  -4.427   8.334  0.00  0.00    -0.495 OA
ATOM     37  C   UNL     1       4.135  -4.920   9.268  0.00  0.00    +0.277 C 
ENDBRANCH  35  36
ENDBRANCH  20  30
ENDBRANCH   1  20
TORSDOF 7
