REMARK  Name = ZINC18102418
REMARK  17 active torsions:
REMARK  status: ('A' for Active; 'I' for Inactive)
REMARK    1  A    between atoms: C_1  and  C_2
REMARK    2  A    between atoms: C_2  and  O_4
REMARK    3  A    between atoms: O_4  and  C_5
REMARK    4  A    between atoms: C_5  and  C_6
REMARK    5  A    between atoms: C_8  and  O_35
REMARK    6  A    between atoms: C_10  and  O_31
REMARK    7  A    between atoms: C_12  and  N_21
REMARK    8  A    between atoms: C_14  and  O_17
REMARK    9  A    between atoms: O_17  and  C_18
REMARK   10  A    between atoms: C_18  and  C_20
REMARK   11  A    between atoms: C_22  and  C_23
REMARK   12  A    between atoms: C_26  and  O_29
REMARK   13  A    between atoms: O_29  and  C_30
REMARK   14  A    between atoms: O_31  and  C_32
REMARK   15  A    between atoms: C_32  and  C_34
REMARK   16  A    between atoms: O_35  and  C_36
REMARK   17  A    between atoms: C_36  and  C_38
REMARK                            x       y       z     vdW  Elec       q    Type
REMARK                         _______ _______ _______ _____ _____    ______ ____
ROOT
ATOM      1  C   UNL     1       0.507  -3.982  -1.390  0.00  0.00    +0.204 C 
ATOM      2  C   UNL     1       1.885  -4.624  -1.211  0.00  0.00    +0.251 C 
ATOM      3  C   UNL     1       2.463  -4.206   0.144  0.00  0.00    +0.250 C 
ATOM      4  C   UNL     1       2.520  -2.677   0.214  0.00  0.00    +0.218 C 
ATOM      5  C   UNL     1       1.117  -2.110  -0.020  0.00  0.00    +0.339 C 
ATOM      6  O   UNL     1       0.627  -2.562  -1.284  0.00  0.00    -0.329 OA
ENDROOT
BRANCH   4   7
ATOM      7  N   UNL     1       3.001  -2.264   1.534  0.00  0.00    -0.278 NA
ATOM      8  C   UNL     1       4.081  -1.558   1.638  0.00  0.00    +0.113 C 
BRANCH   8   9
ATOM      9  C   UNL     1       4.565  -1.143   2.968  0.00  0.00    -0.007 A 
ATOM     10  C   UNL     1       3.856  -1.505   4.116  0.00  0.00    +0.013 A 
ATOM     11  C   UNL     1       4.315  -1.120   5.356  0.00  0.00    +0.046 A 
ATOM     12  C   UNL     1       5.475  -0.362   5.466  0.00  0.00    +0.120 A 
ATOM     13  C   UNL     1       6.179   0.005   4.326  0.00  0.00    +0.046 A 
ATOM     14  C   UNL     1       5.731  -0.381   3.082  0.00  0.00    +0.013 A 
BRANCH  12  15
ATOM     15  O   UNL     1       5.920   0.021   6.690  0.00  0.00    -0.495 OA
ATOM     16  C   UNL     1       5.148  -0.391   7.819  0.00  0.00    +0.277 C 
ENDBRANCH  12  15
ENDBRANCH   8   9
ENDBRANCH   4   7
BRANCH   1  17
ATOM     17  C   UNL     1      -0.051  -4.346  -2.767  0.00  0.00    +0.267 C 
BRANCH  17  18
ATOM     18  O   UNL     1      -1.405  -3.836  -2.891  0.00  0.00    -0.462 OA
BRANCH  18  20
ATOM     19  C   UNL     1      -3.450  -3.573  -4.250  0.00  0.00    +0.136 C 
ATOM     20  C   UNL     1      -2.042  -4.072  -4.049  0.00  0.00    +0.304 C 
ATOM     21  O   UNL     1      -1.486  -4.684  -4.930  0.00  0.00    -0.251 OA
ENDBRANCH  18  20
ENDBRANCH  17  18
ENDBRANCH   1  17
BRANCH   5  22
ATOM     22  O   UNL     1       1.173  -0.659  -0.013  0.00  0.00    -0.433 OA
BRANCH  22  23
ATOM     23  C   UNL     1       0.002  -0.004   0.002  0.00  0.00    +0.306 C 
ATOM     24  O   UNL     1      -1.036  -0.622   0.009  0.00  0.00    -0.251 OA
ATOM     25  C   UNL     1      -0.018   1.503   0.010  0.00  0.00    +0.136 C 
ENDBRANCH  22  23
ENDBRANCH   5  22
BRANCH   3  26
ATOM     26  O   UNL     1       1.614  -4.709   1.210  0.00  0.00    -0.455 OA
BRANCH  26  27
ATOM     27  C   UNL     1       2.208  -4.997   2.378  0.00  0.00    +0.304 C 
ATOM     28  O   UNL     1       3.398  -4.834   2.507  0.00  0.00    -0.251 OA
ATOM     29  C   UNL     1       1.391  -5.523   3.530  0.00  0.00    +0.136 C 
ENDBRANCH  26  27
ENDBRANCH   3  26
BRANCH   2  30
ATOM     30  O   UNL     1       2.769  -4.179  -2.274  0.00  0.00    -0.455 OA
BRANCH  30  31
ATOM     31  C   UNL     1       2.795  -4.918  -3.394  0.00  0.00    +0.304 C 
ATOM     32  O   UNL     1       2.103  -5.905  -3.483  0.00  0.00    -0.251 OA
ATOM     33  C   UNL     1       3.688  -4.518  -4.540  0.00  0.00    +0.136 C 
ENDBRANCH  30  31
ENDBRANCH   2  30
TORSDOF 12
