REMARK  Name = ZINC02099470
REMARK  10 active torsions:
REMARK  status: ('A' for Active; 'I' for Inactive)
REMARK    1  A    between atoms: C_1  and  N_61
REMARK    2  A    between atoms: C_8  and  O_33
REMARK    3  A    between atoms: C_10  and  C_12
REMARK    4  A    between atoms: C_12  and  C_13
REMARK    5  A    between atoms: C_13  and  C_15
REMARK    6  A    between atoms: N_22  and  C_25
REMARK    7  A    between atoms: C_23  and  O_24
REMARK    8  A    between atoms: C_30  and  O_31
REMARK    9  A    between atoms: O_31  and  C_32
REMARK   10  A    between atoms: O_33  and  C_34
REMARK                            x       y       z     vdW  Elec       q    Type
REMARK                         _______ _______ _______ _____ _____    ______ ____
ROOT
ATOM      1  C   UNL     1       3.557   6.066  -0.732  0.00  0.00    +0.172 C 
ATOM      2  O   UNL     1       4.391   5.739   0.088  0.00  0.00    -0.292 OA
ENDROOT
BRANCH   1   3
ATOM      3  C   UNL     1       3.712   7.270  -1.455  0.00  0.00    +0.141 A 
ATOM      4  C   UNL     1       2.657   7.754  -2.356  0.00  0.00    +0.268 A 
ATOM      5  O   UNL     1       1.624   7.126  -2.498  0.00  0.00    -0.267 OA
ATOM      6  N   UNL     1       2.855   8.913  -3.018  0.00  0.00    -0.274 N 
ATOM      7  H   UNL     1       2.144   9.261  -3.629  0.00  0.00    +0.173 HD
ATOM      8  C   UNL     1       3.996   9.605  -2.867  0.00  0.00    +0.337 A 
ATOM      9  O   UNL     1       4.139  10.642  -3.485  0.00  0.00    -0.246 OA
ATOM     10  N   UNL     1       4.985   9.193  -2.058  0.00  0.00    -0.229 N 
ATOM     11  C   UNL     1       4.880   8.037  -1.341  0.00  0.00    +0.217 A 
BRANCH  10  12
ATOM     12  C   UNL     1       6.150   9.966  -1.949  0.00  0.00    +0.096 A 
ATOM     13  C   UNL     1       7.220   9.735  -2.801  0.00  0.00    +0.030 A 
ATOM     14  C   UNL     1       8.366  10.501  -2.694  0.00  0.00    +0.002 A 
ATOM     15  C   UNL     1       8.452  11.491  -1.732  0.00  0.00    +0.004 A 
ATOM     16  C   UNL     1       7.392  11.723  -0.876  0.00  0.00    +0.048 A 
ATOM     17  C   UNL     1       6.238  10.963  -0.980  0.00  0.00    +0.144 A 
BRANCH  17  18
ATOM     18  O   UNL     1       5.195  11.190  -0.139  0.00  0.00    -0.493 OA
ATOM     19  C   UNL     1       5.356  12.228   0.829  0.00  0.00    +0.277 C 
ENDBRANCH  17  18
ENDBRANCH  10  12
BRANCH  11  20
ATOM     20  O   UNL     1       5.881   7.640  -0.535  0.00  0.00    -0.493 OA
ATOM     21  H   UNL     1       5.720   6.860   0.014  0.00  0.00    +0.294 HD
ENDBRANCH  11  20
ENDBRANCH   1   3
BRANCH   1  22
ATOM     22  C   UNL     1       2.357   5.188  -0.979  0.00  0.00    +0.069 C 
BRANCH  22  32
ATOM     23  C   UNL     1       0.857   5.084   1.510  0.00  0.00    -0.095 C 
ATOM     24  C   UNL     1       2.385   3.384   2.315  0.00  0.00    -0.074 C 
ATOM     25  C   UNL     1       3.876   3.046   2.365  0.00  0.00    +0.017 C 
ATOM     26  C   UNL     1       4.405   2.846   0.967  0.00  0.00    -0.040 A 
ATOM     27  C   UNL     1       5.619   2.195   0.809  0.00  0.00    +0.053 A 
ATOM     28  C   UNL     1       6.152   1.998  -0.453  0.00  0.00    +0.170 A 
ATOM     29  C   UNL     1       5.458   2.448  -1.572  0.00  0.00    +0.208 A 
ATOM     30  C   UNL     1       4.243   3.097  -1.411  0.00  0.00    +0.167 A 
ATOM     31  C   UNL     1       3.715   3.295  -0.139  0.00  0.00    -0.012 A 
ATOM     32  C   UNL     1       2.389   3.999  -0.016  0.00  0.00    -0.027 C 
ATOM     33  O   UNL     1       6.179   2.134  -2.689  0.00  0.00    -0.449 OA
ATOM     34  C   UNL     1       7.117   1.125  -2.270  0.00  0.00    +0.467 C 
ATOM     35  O   UNL     1       7.304   1.395  -0.868  0.00  0.00    -0.452 OA
ATOM     36  N   UNL     1       2.206   4.496   1.358  0.00  0.00    +0.383 N 
ATOM     37  H   UNL     1       2.909   5.220   1.550  0.00  0.00    -0.081 HD
BRANCH  30  38
ATOM     38  O   UNL     1       3.564   3.544  -2.502  0.00  0.00    -0.491 OA
ATOM     39  C   UNL     1       2.581   2.668  -3.057  0.00  0.00    +0.277 C 
ENDBRANCH  30  38
ENDBRANCH  22  32
ENDBRANCH   1  22
TORSDOF 7
