REMARK  Name = ZINC38386208
REMARK  10 active torsions:
REMARK  status: ('A' for Active; 'I' for Inactive)
REMARK    1  A    between atoms: C_1  and  C_2
REMARK    2  A    between atoms: C_2  and  C_4
REMARK    3  A    between atoms: C_2  and  N_14
REMARK    4  A    between atoms: C_7  and  C_10
REMARK    5  A    between atoms: C_10  and  C_11
REMARK    6  A    between atoms: C_11  and  C_12
REMARK    7  A    between atoms: C_11  and  C_13
REMARK    8  A    between atoms: N_14  and  C_15
REMARK    9  A    between atoms: C_15  and  C_17
REMARK   10  A    between atoms: C_15  and  C_18
REMARK                            x       y       z     vdW  Elec       q    Type
REMARK                         _______ _______ _______ _____ _____    ______ ____
ROOT
ATOM      1  N   UNL     1       0.829  -0.488   1.138  0.00  0.00    +0.391 N 
ATOM      2  H   UNL     1       1.724  -0.028   1.211  0.00  0.00    -0.084 HD
ATOM      3  H   UNL     1       0.290  -0.311   1.973  0.00  0.00    -0.084 HD
ENDROOT
BRANCH   1   5
ATOM      4  C   UNL     1       0.011   1.555   0.064  0.00  0.00    -0.009 C 
ATOM      5  C   UNL     1       0.105   0.031  -0.030  0.00  0.00    -0.043 C 
BRANCH   5   6
ATOM      6  C   UNL     1      -1.282  -0.556  -0.064  0.00  0.00    -0.062 A 
ATOM      7  C   UNL     1      -2.000  -0.702   1.108  0.00  0.00    +0.002 A 
ATOM      8  C   UNL     1      -3.272  -1.241   1.077  0.00  0.00    +0.004 A 
ATOM      9  C   UNL     1      -3.827  -1.634  -0.126  0.00  0.00    -0.047 A 
ATOM     10  C   UNL     1      -3.110  -1.488  -1.299  0.00  0.00    +0.004 A 
ATOM     11  C   UNL     1      -1.839  -0.945  -1.268  0.00  0.00    +0.002 A 
BRANCH   9  12
ATOM     12  C   UNL     1      -5.214  -2.223  -0.160  0.00  0.00    +0.038 C 
BRANCH  12  13
ATOM     13  C   UNL     1      -6.239  -1.102  -0.345  0.00  0.00    -0.013 C 
ATOM     14  C   UNL     1      -7.635  -1.709  -0.504  0.00  0.00    +0.007 C 
ATOM     15  C   UNL     1      -6.219  -0.184   0.879  0.00  0.00    +0.007 C 
ENDBRANCH  12  13
ENDBRANCH   9  12
ENDBRANCH   5   6
ENDBRANCH   1   5
BRANCH   1  16
ATOM     16  C   UNL     1       1.033  -1.935   0.984  0.00  0.00    +0.014 C 
ATOM     17  C   UNL     1       1.975  -2.194  -0.193  0.00  0.00    -0.004 C 
BRANCH  16  18
ATOM     18  C   UNL     1       1.640  -2.493   2.245  0.00  0.00    +0.206 C 
ATOM     19  O   UNL     1       1.879  -1.758   3.180  0.00  0.00    -0.277 OA
ATOM     20  N   UNL     1       1.918  -3.809   2.334  0.00  0.00    -0.242 N 
ATOM     21  C   UNL     1       2.461  -4.308   3.462  0.00  0.00    +0.303 C 
ATOM     22  O   UNL     1       2.700  -3.572   4.399  0.00  0.00    -0.253 OA
ATOM     23  N   UNL     1       2.739  -5.624   3.552  0.00  0.00    -0.313 N 
ATOM     24  H   UNL     1       1.727  -4.396   1.587  0.00  0.00    +0.159 HD
ATOM     25  H   UNL     1       2.548  -6.212   2.804  0.00  0.00    +0.146 HD
ATOM     26  H   UNL     1       3.129  -5.983   4.363  0.00  0.00    +0.146 HD
ENDBRANCH  16  18
ENDBRANCH   1  16
TORSDOF 6
