REMARK  Name = ZINC04205500
REMARK  7 active torsions:
REMARK  status: ('A' for Active; 'I' for Inactive)
REMARK    1  A    between atoms: C_1  and  C_2
REMARK    2  A    between atoms: C_6  and  O_9
REMARK    3  A    between atoms: C_7  and  C_8
REMARK    4  A    between atoms: O_9  and  C_10
REMARK    5  A    between atoms: C_11  and  C_21
REMARK    6  A    between atoms: C_22  and  C_23
REMARK    7  A    between atoms: C_22  and  C_25
REMARK                            x       y       z     vdW  Elec       q    Type
REMARK                         _______ _______ _______ _____ _____    ______ ____
ROOT
ATOM      1  C   UNL     1       3.490   3.421  -0.409  0.00  0.00    +0.235 A 
ATOM      2  C   UNL     1       4.665   4.195  -0.244  0.00  0.00    +0.103 A 
ATOM      3  C   UNL     1       4.528   5.599  -0.089  0.00  0.00    +0.269 A 
ATOM      4  O   UNL     1       5.510   6.306   0.051  0.00  0.00    -0.266 OA
ATOM      5  N   UNL     1       3.288   6.137  -0.094  0.00  0.00    -0.268 N 
ATOM      6  C   UNL     1       3.146   7.483   0.060  0.00  0.00    +0.096 A 
ATOM      7  C   UNL     1       1.920   8.054   0.059  0.00  0.00    +0.018 A 
ATOM      8  C   UNL     1       0.776   7.261  -0.101  0.00  0.00    +0.005 A 
ATOM      9  C   UNL     1       0.909   5.912  -0.255  0.00  0.00    +0.047 A 
ATOM     10  C   UNL     1       2.192   5.338  -0.252  0.00  0.00    +0.144 A 
ATOM     11  N   UNL     1       2.311   4.017  -0.404  0.00  0.00    -0.194 NA
ENDROOT
BRANCH   2  12
ATOM     12  C   UNL     1       5.934   3.589  -0.239  0.00  0.00    +0.042 C 
ATOM     13  C   UNL     1       6.220   2.584   0.675  0.00  0.00    +0.114 C 
BRANCH  13  14
ATOM     14  C   UNL     1       7.491   1.858   0.593  0.00  0.00    +0.252 C 
ATOM     15  O   UNL     1       8.296   2.136  -0.277  0.00  0.00    -0.270 OA
ATOM     16  N   UNL     1       7.769   0.883   1.480  0.00  0.00    -0.325 N 
ATOM     17  H   UNL     1       7.128   0.661   2.174  0.00  0.00    +0.145 HD
ATOM     18  H   UNL     1       8.610   0.402   1.426  0.00  0.00    +0.145 HD
ENDBRANCH  13  14
BRANCH  13  19
ATOM     19  C   UNL     1       5.273   2.257   1.698  0.00  0.00    +0.104 C 
ATOM     20  N   UNL     1       4.522   1.998   2.510  0.00  0.00    -0.191 NA
ENDBRANCH  13  19
ENDBRANCH   2  12
BRANCH   1  21
ATOM     21  O   UNL     1       3.575   2.081  -0.566  0.00  0.00    -0.437 OA
BRANCH  21  27
ATOM     22  C   UNL     1       0.118   0.413  -3.581  0.00  0.00    +0.044 C 
ATOM     23  C   UNL     1       0.708   0.551  -2.201  0.00  0.00    -0.044 A 
ATOM     24  C   UNL     1       0.075  -0.031  -1.118  0.00  0.00    +0.004 A 
ATOM     25  C   UNL     1       0.613   0.093   0.149  0.00  0.00    +0.004 A 
ATOM     26  C   UNL     1       1.784   0.800   0.337  0.00  0.00    +0.046 A 
ATOM     27  C   UNL     1       2.422   1.385  -0.748  0.00  0.00    +0.134 A 
ATOM     28  C   UNL     1       1.880   1.259  -2.019  0.00  0.00    -0.005 A 
ATOM     29  C   UNL     1       2.570   1.892  -3.200  0.00  0.00    +0.048 C 
ENDBRANCH  21  27
ENDBRANCH   1  21
TORSDOF 5
