REMARK  Name = ZINC63182425
REMARK  9 active torsions:
REMARK  status: ('A' for Active; 'I' for Inactive)
REMARK    1  A    between atoms: C_1  and  C_2
REMARK    2  A    between atoms: C_6  and  N_8
REMARK    3  A    between atoms: C_9  and  C_28
REMARK    4  A    between atoms: C_12  and  S_13
REMARK    5  A    between atoms: S_13  and  C_14
REMARK    6  A    between atoms: C_14  and  C_15
REMARK    7  A    between atoms: N_17  and  C_18
REMARK    8  A    between atoms: C_21  and  S_24
REMARK    9  A    between atoms: S_24  and  C_27
REMARK                            x       y       z     vdW  Elec       q    Type
REMARK                         _______ _______ _______ _____ _____    ______ ____
ROOT
ATOM      1  N   UNL     1       0.045  -2.788   2.401  0.00  0.00    -0.270 N 
ATOM      2  C   UNL     1      -0.944  -3.625   2.893  0.00  0.00    +0.168 A 
ATOM      3  N   UNL     1      -0.519  -4.075   4.065  0.00  0.00    -0.128 NA
ATOM      4  N   UNL     1       0.640  -3.586   4.326  0.00  0.00    -0.122 NA
ATOM      5  C   UNL     1       1.035  -2.796   3.338  0.00  0.00    +0.197 A 
ENDROOT
BRANCH   2   6
ATOM      6  C   UNL     1      -2.162  -3.935   2.270  0.00  0.00    +0.025 C 
ATOM      7  C   UNL     1      -3.169  -4.769   2.755  0.00  0.00    +0.006 A 
ATOM      8  C   UNL     1      -3.292  -5.524   3.941  0.00  0.00    +0.010 A 
ATOM      9  C   UNL     1      -4.411  -6.263   4.156  0.00  0.00    +0.001 A 
ATOM     10  C   UNL     1      -5.453  -6.299   3.227  0.00  0.00    +0.002 A 
ATOM     11  C   UNL     1      -5.402  -5.600   2.067  0.00  0.00    +0.026 A 
ATOM     12  C   UNL     1      -4.265  -4.803   1.773  0.00  0.00    +0.043 A 
ATOM     13  N   UNL     1      -3.977  -4.044   0.734  0.00  0.00    -0.380 N 
ATOM     14  C   UNL     1      -2.661  -3.428   0.935  0.00  0.00    +0.152 C 
ATOM     15  H   UNL     1      -4.547  -3.910  -0.039  0.00  0.00    +0.160 HD
ENDBRANCH   2   6
BRANCH   1  21
ATOM     16  C   UNL     1      -0.003   1.500  -0.006  0.00  0.00    +0.044 C 
ATOM     17  C   UNL     1       0.010  -0.007  -0.006  0.00  0.00    -0.048 A 
ATOM     18  C   UNL     1       0.010  -0.697  -1.204  0.00  0.00    +0.003 A 
ATOM     19  C   UNL     1       0.021  -2.080  -1.209  0.00  0.00    +0.002 A 
ATOM     20  C   UNL     1       0.033  -2.776  -0.016  0.00  0.00    +0.026 A 
ATOM     21  C   UNL     1       0.033  -2.085   1.189  0.00  0.00    +0.051 A 
ATOM     22  C   UNL     1       0.028  -0.697   1.190  0.00  0.00    +0.029 A 
ENDBRANCH   1  21
BRANCH   5  23
ATOM     23  S   UNL     1       2.558  -1.915   3.254  0.00  0.00    -0.076 S 
BRANCH  23  24
ATOM     24  C   UNL     1       3.406  -2.354   4.796  0.00  0.00    +0.173 C 
BRANCH  24  25
ATOM     25  C   UNL     1       4.741  -1.658   4.852  0.00  0.00    +0.227 C 
ATOM     26  O   UNL     1       5.087  -0.936   3.941  0.00  0.00    -0.275 OA
ATOM     27  N   UNL     1       5.551  -1.837   5.915  0.00  0.00    -0.285 N 
ATOM     28  H   UNL     1       5.247  -2.360   6.673  0.00  0.00    +0.155 HD
BRANCH  27  29
ATOM     29  C   UNL     1       6.830  -1.269   5.923  0.00  0.00    +0.034 A 
ATOM     30  C   UNL     1       7.886  -1.942   6.523  0.00  0.00    +0.025 A 
ATOM     31  C   UNL     1       9.147  -1.379   6.530  0.00  0.00    +0.029 A 
ATOM     32  C   UNL     1       9.358  -0.145   5.941  0.00  0.00    +0.088 A 
ATOM     33  C   UNL     1       8.308   0.528   5.344  0.00  0.00    +0.029 A 
ATOM     34  C   UNL     1       7.046  -0.033   5.328  0.00  0.00    +0.025 A 
BRANCH  32  35
ATOM     35  S   UNL     1      10.968   0.570   5.952  0.00  0.00    -0.006 S 
ATOM     36  O   UNL     1      10.743   1.971   5.867  0.00  0.00    -0.170 OA
ATOM     37  O   UNL     1      11.607   0.007   7.089  0.00  0.00    -0.170 OA
ATOM     38  C   UNL     1      11.755  -0.029   4.432  0.00  0.00    +0.200 C 
ENDBRANCH  32  35
ENDBRANCH  27  29
ENDBRANCH  24  25
ENDBRANCH  23  24
ENDBRANCH   5  23
TORSDOF 7
