REMARK  Name = ZINC01786271
REMARK  10 active torsions:
REMARK  status: ('A' for Active; 'I' for Inactive)
REMARK    1  A    between atoms: C_1  and  C_2
REMARK    2  A    between atoms: C_2  and  C_3
REMARK    3  A    between atoms: C_3  and  O_4
REMARK    4  A    between atoms: O_4  and  C_5
REMARK    5  A    between atoms: C_8  and  C_13
REMARK    6  A    between atoms: C_10  and  O_11
REMARK    7  A    between atoms: O_11  and  C_12
REMARK    8  A    between atoms: C_26  and  C_28
REMARK    9  A    between atoms: C_28  and  O_30
REMARK   10  A    between atoms: O_30  and  C_31
REMARK                            x       y       z     vdW  Elec       q    Type
REMARK                         _______ _______ _______ _____ _____    ______ ____
ROOT
ATOM      1  C   UNL     1       2.542   1.329  -0.018  0.00  0.00    +0.008 C 
ATOM      2  C   UNL     1       1.107   1.799   0.009  0.00  0.00    +0.010 A 
ATOM      3  C   UNL     1       0.759   3.106   0.015  0.00  0.00    -0.021 A 
ATOM      4  C   UNL     1      -0.686   3.163   0.038  0.00  0.00    +0.003 A 
ATOM      5  C   UNL     1      -1.596   4.224   0.053  0.00  0.00    +0.010 A 
ATOM      6  C   UNL     1      -2.930   3.899   0.058  0.00  0.00    +0.001 A 
ATOM      7  C   UNL     1      -3.367   2.585   0.064  0.00  0.00    +0.002 A 
ATOM      8  C   UNL     1      -2.490   1.515   0.055  0.00  0.00    +0.026 A 
ATOM      9  C   UNL     1      -1.129   1.814   0.040  0.00  0.00    +0.047 A 
ATOM     10  N   UNL     1      -0.018   1.020   0.028  0.00  0.00    -0.359 N 
ATOM     11  H   UNL     1      -0.025   0.050   0.028  0.00  0.00    +0.166 HD
ATOM     12  C   UNL     1       1.760   4.233  -0.001  0.00  0.00    +0.033 C 
ATOM     13  C   UNL     1       3.132   3.654   0.373  0.00  0.00    +0.045 C 
ATOM     14  N   UNL     1       3.402   2.455  -0.446  0.00  0.00    +0.396 N 
ATOM     15  H   UNL     1       3.213   2.669  -1.432  0.00  0.00    -0.083 HD
ATOM     16  H   UNL     1       4.388   2.187  -0.338  0.00  0.00    -0.083 HD
ENDROOT
BRANCH   1  20
ATOM     17  C   UNL     1       3.691   0.009   3.884  0.00  0.00    +0.162 A 
ATOM     18  C   UNL     1       2.351   0.067   3.535  0.00  0.00    +0.049 A 
ATOM     19  C   UNL     1       1.983   0.494   2.273  0.00  0.00    +0.006 A 
ATOM     20  C   UNL     1       2.949   0.865   1.356  0.00  0.00    -0.052 A 
ATOM     21  C   UNL     1       4.288   0.804   1.696  0.00  0.00    +0.051 A 
ATOM     22  C   UNL     1       4.663   0.382   2.961  0.00  0.00    +0.162 A 
BRANCH  22  23
ATOM     23  O   UNL     1       5.980   0.327   3.298  0.00  0.00    -0.491 OA
ATOM     24  C   UNL     1       6.922   0.725   2.301  0.00  0.00    +0.277 C 
ENDBRANCH  22  23
BRANCH  17  25
ATOM     25  O   UNL     1       4.054  -0.412   5.125  0.00  0.00    -0.488 OA
BRANCH  25  26
ATOM     26  C   UNL     1       3.003  -0.779   6.019  0.00  0.00    +0.229 C 
BRANCH  26  28
ATOM     27  C   UNL     1       2.475  -1.615   8.314  0.00  0.00    +0.007 C 
ATOM     28  C   UNL     1       3.601  -1.222   7.356  0.00  0.00    +0.038 C 
ENDBRANCH  26  28
ENDBRANCH  25  26
ENDBRANCH  17  25
ENDBRANCH   1  20
BRANCH  13  29
ATOM     29  C   UNL     1       4.200   4.683   0.107  0.00  0.00    +0.293 C 
ATOM     30  O   UNL     1       4.864   4.618  -0.901  0.00  0.00    -0.253 OA
BRANCH  29  31
ATOM     31  O   UNL     1       4.415   5.671   0.989  0.00  0.00    -0.469 OA
ATOM     32  C   UNL     1       5.460   6.627   0.668  0.00  0.00    +0.280 C 
ENDBRANCH  29  31
ENDBRANCH  13  29
TORSDOF 7
