REMARK  Name = ZINC22155424
REMARK  9 active torsions:
REMARK  status: ('A' for Active; 'I' for Inactive)
REMARK    1  A    between atoms: C_1  and  C_2
REMARK    2  A    between atoms: C_3  and  N_14
REMARK    3  A    between atoms: C_4  and  C_13
REMARK    4  A    between atoms: N_5  and  C_7
REMARK    5  A    between atoms: C_15  and  C_17
REMARK    6  A    between atoms: C_17  and  S_18
REMARK    7  A    between atoms: S_18  and  C_19
REMARK    8  A    between atoms: N_23  and  C_24
REMARK    9  A    between atoms: C_27  and  O_30
REMARK                            x       y       z     vdW  Elec       q    Type
REMARK                         _______ _______ _______ _____ _____    ______ ____
ROOT
ATOM      1  N   UNL     1      -1.032   6.522   0.327  0.00  0.00    -0.282 N 
ATOM      2  C   UNL     1       0.006   5.681   0.149  0.00  0.00    +0.228 C 
ATOM      3  O   UNL     1       1.096   6.119  -0.154  0.00  0.00    -0.275 OA
ATOM      4  H   UNL     1      -2.041   6.121   0.505  0.00  0.00    +0.155 HD
ENDROOT
BRANCH   1   7
ATOM      5  C   UNL     1       1.600   7.945   1.192  0.00  0.00    +0.069 C 
ATOM      6  C   UNL     1       0.344   8.588   0.664  0.00  0.00    +0.082 A 
ATOM      7  C   UNL     1      -0.826   7.914   0.283  0.00  0.00    +0.078 A 
ATOM      8  C   UNL     1      -1.726   8.842  -0.130  0.00  0.00    +0.063 A 
ATOM      9  N   UNL     1      -1.136  10.063  -0.017  0.00  0.00    -0.235 N 
ATOM     10  N   UNL     1       0.160   9.870   0.479  0.00  0.00    -0.170 NA
ATOM     11  C   UNL     1      -3.124   8.571  -0.624  0.00  0.00    +0.068 C 
BRANCH   9  12
ATOM     12  C   UNL     1      -1.721  11.296  -0.340  0.00  0.00    +0.066 A 
ATOM     13  C   UNL     1      -0.982  12.262  -1.009  0.00  0.00    +0.028 A 
ATOM     14  C   UNL     1      -1.563  13.473  -1.331  0.00  0.00    +0.002 A 
ATOM     15  C   UNL     1      -2.876  13.728  -0.977  0.00  0.00    +0.000 A 
ATOM     16  C   UNL     1      -3.612  12.769  -0.306  0.00  0.00    +0.002 A 
ATOM     17  C   UNL     1      -3.039  11.554   0.014  0.00  0.00    +0.028 A 
ENDBRANCH   9  12
ENDBRANCH   1   7
BRANCH   2  18
ATOM     18  C   UNL     1      -0.187   4.197   0.329  0.00  0.00    +0.173 C 
BRANCH  18  19
ATOM     19  S   UNL     1       1.380   3.344   0.024  0.00  0.00    -0.075 S 
BRANCH  19  20
ATOM     20  C   UNL     1       0.878   1.677   0.295  0.00  0.00    +0.214 A 
ATOM     21  N   UNL     1      -0.328   1.267   0.624  0.00  0.00    -0.101 NA
ATOM     22  N   UNL     1      -0.352  -0.012   0.743  0.00  0.00    -0.022 NA
ATOM     23  N   UNL     1       0.814  -0.507   0.504  0.00  0.00    -0.038 NA
ATOM     24  N   UNL     1       1.662   0.574   0.203  0.00  0.00    -0.187 N 
BRANCH  24  25
ATOM     25  C   UNL     1       3.025   0.522  -0.124  0.00  0.00    +0.070 A 
ATOM     26  C   UNL     1       3.553   1.413  -1.048  0.00  0.00    +0.031 A 
ATOM     27  C   UNL     1       4.896   1.365  -1.365  0.00  0.00    +0.047 A 
ATOM     28  C   UNL     1       5.716   0.420  -0.767  0.00  0.00    +0.117 A 
ATOM     29  C   UNL     1       5.189  -0.476   0.152  0.00  0.00    +0.047 A 
ATOM     30  C   UNL     1       3.847  -0.425   0.473  0.00  0.00    +0.031 A 
BRANCH  28  31
ATOM     31  O   UNL     1       7.037   0.370  -1.083  0.00  0.00    -0.507 OA
ATOM     32  H   UNL     1       7.688  -0.380  -0.610  0.00  0.00    +0.292 HD
ENDBRANCH  28  31
ENDBRANCH  24  25
ENDBRANCH  19  20
ENDBRANCH  18  19
ENDBRANCH   2  18
TORSDOF 7
