REMARK  Name = ZINC04475156
REMARK  14 active torsions:
REMARK  status: ('A' for Active; 'I' for Inactive)
REMARK    1  A    between atoms: C_1  and  C_2
REMARK    2  A    between atoms: C_7  and  C_8
REMARK    3  A    between atoms: C_8  and  C_10
REMARK    4  A    between atoms: C_8  and  C_34
REMARK    5  A    between atoms: C_10  and  N_11
REMARK    6  A    between atoms: N_18  and  C1*_21
REMARK    7  A    between atoms: C2*_23  and  O2*_33
REMARK    8  A    between atoms: C3*_25  and  O3*_32
REMARK    9  A    between atoms: C4*_27  and  C5*_30
REMARK   10  A    between atoms: C5*_30  and  O5*_31
REMARK   11  A    between atoms: C_36  and  O_42
REMARK   12  A    between atoms: C_38  and  O_40
REMARK   13  A    between atoms: O_40  and  C_41
REMARK   14  A    between atoms: O_42  and  C_43
REMARK                            x       y       z     vdW  Elec       q    Type
REMARK                         _______ _______ _______ _____ _____    ______ ____
ROOT
ATOM      1  N   UNL     1       0.252  -2.365  -0.298  0.00  0.00    -0.326 N 
ATOM      2  C   UNL     1      -0.214  -1.092  -0.578  0.00  0.00    +0.150 A 
ATOM      3  C   UNL     1       0.656   0.011  -0.567  0.00  0.00    +0.147 A 
ATOM      4  C   UNL     1       0.125   1.278  -0.859  0.00  0.00    +0.167 A 
ATOM      5  N   UNL     1      -1.171   1.388  -1.133  0.00  0.00    -0.216 NA
ATOM      6  C   UNL     1      -1.949   0.326  -1.131  0.00  0.00    +0.225 A 
ATOM      7  N   UNL     1      -1.496  -0.885  -0.863  0.00  0.00    -0.219 NA
ATOM      8  N   UNL     1       1.176   2.156  -0.780  0.00  0.00    -0.286 N 
ATOM      9  C   UNL     1       2.287   1.436  -0.453  0.00  0.00    +0.203 A 
ATOM     10  N   UNL     1       1.980   0.178  -0.329  0.00  0.00    -0.231 NA
ATOM     11  H   UNL     1       0.659  -2.279   0.611  0.00  0.00    +0.148 HD
ENDROOT
BRANCH   8  12
ATOM     12  C1* UNL     1       1.116   3.603  -1.004  0.00  0.00    +0.253 C 
ATOM     13  C2* UNL     1       0.700   4.318   0.296  0.00  0.00    +0.195 C 
ATOM     14  C3* UNL     1       1.871   5.289   0.586  0.00  0.00    +0.178 C 
ATOM     15  C4* UNL     1       2.535   5.422  -0.808  0.00  0.00    +0.177 C 
ATOM     16  O4* UNL     1       2.416   4.095  -1.370  0.00  0.00    -0.346 OA
BRANCH  14  17
ATOM     17  O3* UNL     1       2.780   4.723   1.532  0.00  0.00    -0.386 OA
ATOM     18  H3* UNL     1       3.530   5.293   1.747  0.00  0.00    +0.210 HD
ENDBRANCH  14  17
BRANCH  13  19
ATOM     19  O2* UNL     1      -0.515   5.045   0.100  0.00  0.00    -0.385 OA
ATOM     20  H2* UNL     1      -0.823   5.514   0.887  0.00  0.00    +0.210 HD
ENDBRANCH  13  19
BRANCH  15  21
ATOM     21  C5* UNL     1       4.005   5.822  -0.668  0.00  0.00    +0.190 C 
BRANCH  21  22
ATOM     22  O5* UNL     1       4.562   6.052  -1.964  0.00  0.00    -0.392 OA
ATOM     23  H5* UNL     1       5.494   6.310  -1.952  0.00  0.00    +0.210 HD
ENDBRANCH  21  22
ENDBRANCH  15  21
ENDBRANCH   8  12
BRANCH   1  24
ATOM     24  C   UNL     1      -0.671  -3.503  -0.315  0.00  0.00    +0.115 C 
BRANCH  24  25
ATOM     25  C   UNL     1       0.093  -4.784   0.025  0.00  0.00    +0.066 C 
BRANCH  25  32
ATOM     26  C   UNL     1       2.899  -5.000   0.680  0.00  0.00    +0.044 C 
ATOM     27  C   UNL     1       2.442  -5.175  -0.745  0.00  0.00    -0.047 A 
ATOM     28  C   UNL     1       3.365  -5.443  -1.739  0.00  0.00    +0.003 A 
ATOM     29  C   UNL     1       2.947  -5.597  -3.047  0.00  0.00    +0.000 A 
ATOM     30  C   UNL     1       1.605  -5.489  -3.361  0.00  0.00    +0.000 A 
ATOM     31  C   UNL     1       0.681  -5.226  -2.367  0.00  0.00    +0.004 A 
ATOM     32  C   UNL     1       1.100  -5.071  -1.058  0.00  0.00    -0.036 A 
ENDBRANCH  25  32
BRANCH  25  33
ATOM     33  C   UNL     1      -0.875  -5.934   0.129  0.00  0.00    -0.032 A 
ATOM     34  C   UNL     1      -1.817  -6.134  -0.862  0.00  0.00    +0.050 A 
ATOM     35  C   UNL     1      -2.707  -7.195  -0.771  0.00  0.00    +0.124 A 
ATOM     36  C   UNL     1      -2.656  -8.049   0.320  0.00  0.00    +0.091 A 
ATOM     37  C   UNL     1      -1.713  -7.843   1.315  0.00  0.00    +0.124 A 
ATOM     38  C   UNL     1      -0.823  -6.784   1.218  0.00  0.00    +0.050 A 
BRANCH  37  39
ATOM     39  O   UNL     1      -1.661  -8.679   2.386  0.00  0.00    -0.495 OA
ATOM     40  C   UNL     1      -2.608  -9.749   2.420  0.00  0.00    +0.277 C 
ENDBRANCH  37  39
BRANCH  35  41
ATOM     41  O   UNL     1      -3.629  -7.395  -1.749  0.00  0.00    -0.495 OA
ATOM     42  C   UNL     1      -4.516  -8.504  -1.588  0.00  0.00    +0.277 C 
ENDBRANCH  35  41
ENDBRANCH  25  33
ENDBRANCH  24  25
ENDBRANCH   1  24
TORSDOF 11
