REMARK  Name = ZINC01461914
REMARK  10 active torsions:
REMARK  status: ('A' for Active; 'I' for Inactive)
REMARK    1  A    between atoms: C_1  and  O_2
REMARK    2  A    between atoms: O_2  and  C_3
REMARK    3  A    between atoms: C_5  and  C_13
REMARK    4  A    between atoms: C_7  and  O_11
REMARK    5  A    between atoms: C_8  and  O_9
REMARK    6  A    between atoms: O_9  and  C_10
REMARK    7  A    between atoms: O_11  and  C_12
REMARK    8  A    between atoms: C_24  and  S_29
REMARK    9  A    between atoms: S_29  and  N_32
REMARK   10  A    between atoms: N_32  and  C_33
REMARK                            x       y       z     vdW  Elec       q    Type
REMARK                         _______ _______ _______ _____ _____    ______ ____
ROOT
ATOM      1  C   UNL     1       1.139   4.410   0.219  0.00  0.00    +0.105 C 
ATOM      2  C   UNL     1       0.502   3.119  -0.263  0.00  0.00    +0.029 C 
ATOM      3  C   UNL     1       0.995   1.813   0.372  0.00  0.00    +0.033 C 
ATOM      4  C   UNL     1      -0.251   0.931   0.270  0.00  0.00    -0.030 C 
ATOM      5  C   UNL     1      -1.340   1.688   0.229  0.00  0.00    -0.023 C 
ATOM      6  C   UNL     1      -0.933   3.112   0.344  0.00  0.00    +0.049 C 
ATOM      7  C   UNL     1      -1.704   4.197  -0.302  0.00  0.00    -0.018 A 
ATOM      8  C   UNL     1      -3.054   4.093  -0.559  0.00  0.00    +0.034 A 
ATOM      9  C   UNL     1      -3.738   5.149  -1.133  0.00  0.00    +0.109 A 
ATOM     10  C   UNL     1      -3.067   6.315  -1.453  0.00  0.00    +0.030 A 
ATOM     11  C   UNL     1      -1.714   6.425  -1.207  0.00  0.00    +0.025 A 
ATOM     12  C   UNL     1      -1.016   5.369  -0.636  0.00  0.00    +0.031 A 
ATOM     13  N   UNL     1       0.360   5.499  -0.410  0.00  0.00    -0.336 N 
ATOM     14  H   UNL     1       0.810   6.317  -0.671  0.00  0.00    +0.147 HD
ENDROOT
BRANCH   1  17
ATOM     15  C   UNL     1       4.913   4.217   0.264  0.00  0.00    +0.165 A 
ATOM     16  C   UNL     1       3.587   4.156   0.666  0.00  0.00    +0.055 A 
ATOM     17  C   UNL     1       2.578   4.477  -0.222  0.00  0.00    -0.020 A 
ATOM     18  C   UNL     1       2.885   4.854  -1.516  0.00  0.00    +0.055 A 
ATOM     19  C   UNL     1       4.209   4.922  -1.925  0.00  0.00    +0.165 A 
ATOM     20  C   UNL     1       5.226   4.601  -1.035  0.00  0.00    +0.204 A 
BRANCH  15  22
ATOM     21  C   UNL     1       5.510   3.515   2.456  0.00  0.00    +0.277 C 
ATOM     22  O   UNL     1       5.905   3.901   1.138  0.00  0.00    -0.491 OA
ENDBRANCH  15  22
BRANCH  20  23
ATOM     23  O   UNL     1       6.526   4.662  -1.433  0.00  0.00    -0.488 OA
ATOM     24  C   UNL     1       7.089   3.475  -1.997  0.00  0.00    +0.277 C 
ENDBRANCH  20  23
BRANCH  19  25
ATOM     25  O   UNL     1       4.510   5.298  -3.197  0.00  0.00    -0.491 OA
ATOM     26  C   UNL     1       3.413   5.614  -4.057  0.00  0.00    +0.277 C 
ENDBRANCH  19  25
ENDBRANCH   1  17
BRANCH   9  27
ATOM     27  S   UNL     1      -5.464   5.009  -1.457  0.00  0.00    +0.072 S 
ATOM     28  O   UNL     1      -5.966   4.022  -0.566  0.00  0.00    -0.150 OA
ATOM     29  O   UNL     1      -5.979   6.332  -1.496  0.00  0.00    -0.150 OA
BRANCH  27  30
ATOM     30  N   UNL     1      -5.627   4.392  -2.986  0.00  0.00    -0.213 N 
ATOM     31  H   UNL     1      -6.090   4.903  -3.668  0.00  0.00    +0.174 HD
BRANCH  30  32
ATOM     32  C   UNL     1      -5.097   3.135  -3.293  0.00  0.00    +0.083 A 
ATOM     33  C   UNL     1      -5.112   2.123  -2.343  0.00  0.00    +0.027 A 
ATOM     34  C   UNL     1      -4.587   0.882  -2.649  0.00  0.00    +0.002 A 
ATOM     35  C   UNL     1      -4.048   0.647  -3.900  0.00  0.00    +0.003 A 
ATOM     36  C   UNL     1      -4.031   1.651  -4.850  0.00  0.00    +0.040 A 
ATOM     37  C   UNL     1      -4.559   2.894  -4.553  0.00  0.00    +0.146 A 
ATOM     38  F   UNL     1      -4.548   3.874  -5.482  0.00  0.00    -0.204 F 
ENDBRANCH  30  32
ENDBRANCH  27  30
ENDBRANCH   9  27
TORSDOF 7
