REMARK  Name = ZINC65306478
REMARK  3 active torsions:
REMARK  status: ('A' for Active; 'I' for Inactive)
REMARK    1  A    between atoms: C_4  and  C_7
REMARK    2  A    between atoms: C_7  and  C_8
REMARK    3  A    between atoms: C_19  and  C_21
REMARK                            x       y       z     vdW  Elec       q    Type
REMARK                         _______ _______ _______ _____ _____    ______ ____
ROOT
ATOM      1  C   UNL     1       3.900  -0.836   1.590  0.00  0.00    -0.004 C 
ATOM      2  C   UNL     1       3.085  -1.966   2.224  0.00  0.00    +0.023 C 
ATOM      3  C   UNL     1       3.642  -2.271   3.618  0.00  0.00    +0.108 C 
ATOM      4  N   UNL     1       5.079  -2.555   3.502  0.00  0.00    -0.304 N 
ATOM      5  C   UNL     1       5.940  -1.575   2.828  0.00  0.00    +0.108 C 
ATOM      6  C   UNL     1       5.358  -1.277   1.442  0.00  0.00    +0.023 C 
ATOM      7  C   UNL     1       5.607  -3.716   4.015  0.00  0.00    +0.166 C 
ATOM      8  N   UNL     1       5.470  -4.864   3.439  0.00  0.00    -0.359 N 
ATOM      9  C   UNL     1       6.143  -5.908   4.224  0.00  0.00    +0.134 C 
ATOM     10  C   UNL     1       6.736  -5.149   5.428  0.00  0.00    +0.137 C 
ATOM     11  N   UNL     1       6.332  -3.755   5.181  0.00  0.00    -0.240 N 
ATOM     12  C   UNL     1       6.621  -2.698   5.966  0.00  0.00    +0.253 C 
ATOM     13  O   UNL     1       6.148  -1.607   5.715  0.00  0.00    -0.270 OA
ATOM     14  H   UNL     1       4.991  -5.015   2.610  0.00  0.00    +0.162 HD
ENDROOT
BRANCH  12  15
ATOM     15  C   UNL     1       7.514  -2.866   7.132  0.00  0.00    +0.039 A 
ATOM     16  C   UNL     1       7.932  -4.142   7.516  0.00  0.00    +0.013 A 
ATOM     17  C   UNL     1       8.765  -4.292   8.605  0.00  0.00    +0.002 A 
ATOM     18  C   UNL     1       9.187  -3.183   9.317  0.00  0.00    +0.020 A 
ATOM     19  C   UNL     1       8.776  -1.915   8.942  0.00  0.00    +0.042 A 
ATOM     20  C   UNL     1       7.946  -1.750   7.850  0.00  0.00    +0.033 A 
ATOM     21 CL   UNL     1       9.309  -0.530   9.842  0.00  0.00    -0.084 Cl
ENDBRANCH  12  15
BRANCH   1  22
ATOM     22  C   UNL     1       3.325  -0.505   0.211  0.00  0.00    +0.038 C 
BRANCH  22  26
ATOM     23  C   UNL     1      -0.627   1.056   0.651  0.00  0.00    +0.000 A 
ATOM     24  C   UNL     1       0.459   1.911   0.661  0.00  0.00    +0.000 A 
ATOM     25  C   UNL     1       1.738   1.406   0.519  0.00  0.00    +0.003 A 
ATOM     26  C   UNL     1       1.931   0.046   0.367  0.00  0.00    -0.047 A 
ATOM     27  C   UNL     1       0.845  -0.810   0.358  0.00  0.00    +0.003 A 
ATOM     28  C   UNL     1      -0.434  -0.304   0.499  0.00  0.00    +0.000 A 
ENDBRANCH  22  26
ENDBRANCH   1  22
TORSDOF 3
