REMARK  Name = ZINC51692817
REMARK  6 active torsions:
REMARK  status: ('A' for Active; 'I' for Inactive)
REMARK    1  A    between atoms: C_1  and  C_2
REMARK    2  A    between atoms: C_2  and  C_4
REMARK    3  A    between atoms: C_2  and  N_13
REMARK    4  A    between atoms: C_7  and  N_10
REMARK    5  A    between atoms: N_13  and  C_14
REMARK    6  A    between atoms: C_17  and  N_20
REMARK                            x       y       z     vdW  Elec       q    Type
REMARK                         _______ _______ _______ _____ _____    ______ ____
ROOT
ATOM      1  N   UNL     1       0.690  -0.478  -1.207  0.00  0.00    +0.385 N 
ATOM      2  H   UNL     1       1.608  -0.063  -1.256  0.00  0.00    -0.085 HD
ATOM      3  H   UNL     1       0.776  -1.482  -1.172  0.00  0.00    -0.085 HD
ENDROOT
BRANCH   1   4
ATOM      4  C   UNL     1      -0.086  -0.093  -2.394  0.00  0.00    -0.071 C 
ATOM      5  C   UNL     1      -1.431  -0.821  -2.382  0.00  0.00    -0.017 C 
ATOM      6  C   UNL     1      -1.194  -2.333  -2.396  0.00  0.00    -0.018 C 
ATOM      7  C   UNL     1      -0.418  -2.715  -3.658  0.00  0.00    -0.075 C 
ATOM      8  C   UNL     1       0.928  -1.987  -3.669  0.00  0.00    -0.018 C 
ATOM      9  C   UNL     1       0.690  -0.476  -3.655  0.00  0.00    -0.017 C 
BRANCH   7  10
ATOM     10  N   UNL     1      -0.190  -4.166  -3.671  0.00  0.00    +0.380 N 
ATOM     11  H   UNL     1      -1.077  -4.646  -3.663  0.00  0.00    -0.090 HD
ATOM     12  H   UNL     1       0.322  -4.419  -4.503  0.00  0.00    -0.090 HD
ATOM     13  H   UNL     1       0.343  -4.431  -2.856  0.00  0.00    -0.090 HD
ENDBRANCH   7  10
ENDBRANCH   1   4
BRANCH   1  15
ATOM     14  C   UNL     1      -0.019   1.526   0.010  0.00  0.00    -0.009 C 
ATOM     15  C   UNL     1       0.002  -0.004   0.002  0.00  0.00    -0.044 C 
BRANCH  15  16
ATOM     16  C   UNL     1       0.731  -0.503   1.223  0.00  0.00    -0.062 A 
ATOM     17  C   UNL     1       2.113  -0.514   1.247  0.00  0.00    +0.004 A 
ATOM     18  C   UNL     1       2.782  -0.972   2.367  0.00  0.00    +0.033 A 
ATOM     19  C   UNL     1       2.068  -1.419   3.463  0.00  0.00    +0.126 A 
ATOM     20  C   UNL     1       0.686  -1.407   3.439  0.00  0.00    +0.033 A 
ATOM     21  C   UNL     1       0.017  -0.945   2.321  0.00  0.00    +0.004 A 
BRANCH  19  22
ATOM     22  N   UNL     1       2.784  -1.910   4.662  0.00  0.00    +0.056 N 
ATOM     23  O   UNL     1       3.993  -1.920   4.682  0.00  0.00    -0.126 OA
ATOM     24  O   UNL     1       2.160  -2.301   5.620  0.00  0.00    -0.126 OA
ENDBRANCH  19  22
ENDBRANCH  15  16
ENDBRANCH   1  15
TORSDOF 5
