REMARK  Name = ZINC38685613
REMARK  11 active torsions:
REMARK  status: ('A' for Active; 'I' for Inactive)
REMARK    1  A    between atoms: C_1  and  C_2
REMARK    2  A    between atoms: C_2  and  O_3
REMARK    3  A    between atoms: O_3  and  C_4
REMARK    4  A    between atoms: C_7  and  C_10
REMARK    5  A    between atoms: C_15  and  O_24
REMARK    6  A    between atoms: C_19  and  N_23
REMARK    7  A    between atoms: C_20  and  C_21
REMARK    8  A    between atoms: O_24  and  C_25
REMARK    9  A    between atoms: C_25  and  C_27
REMARK   10  A    between atoms: C_30  and  O_33
REMARK   11  A    between atoms: O_33  and  C_34
REMARK                            x       y       z     vdW  Elec       q    Type
REMARK                         _______ _______ _______ _____ _____    ______ ____
ROOT
ATOM      1  C   UNL     1       1.091  -6.025   1.747  0.00  0.00    +0.098 C 
ATOM      2  C   UNL     1       0.430  -6.454   3.030  0.00  0.00    +0.008 A 
ATOM      3  C   UNL     1      -0.951  -6.436   3.123  0.00  0.00    +0.012 A 
ATOM      4  C   UNL     1      -1.574  -6.827   4.292  0.00  0.00    +0.047 A 
ATOM      5  C   UNL     1      -0.816  -7.240   5.378  0.00  0.00    +0.135 A 
ATOM      6  C   UNL     1       0.567  -7.259   5.288  0.00  0.00    +0.093 A 
ATOM      7  C   UNL     1       1.192  -6.865   4.112  0.00  0.00    +0.138 A 
ATOM      8  O   UNL     1       2.546  -6.890   4.040  0.00  0.00    -0.441 OA
ATOM      9  C   UNL     1       3.153  -6.896   2.841  0.00  0.00    +0.199 C 
ATOM     10  C   UNL     1       2.517  -6.497   1.718  0.00  0.00    +0.098 C 
ENDROOT
BRANCH   1  14
ATOM     11  C   UNL     1       1.006  -1.761   1.469  0.00  0.00    +0.121 A 
ATOM     12  C   UNL     1       0.381  -2.534   0.500  0.00  0.00    +0.046 A 
ATOM     13  C   UNL     1       0.410  -3.912   0.592  0.00  0.00    +0.008 A 
ATOM     14  C   UNL     1       1.061  -4.521   1.649  0.00  0.00    -0.034 A 
ATOM     15  C   UNL     1       1.684  -3.754   2.616  0.00  0.00    +0.008 A 
ATOM     16  C   UNL     1       1.663  -2.376   2.525  0.00  0.00    +0.046 A 
BRANCH  11  17
ATOM     17  O   UNL     1       0.979  -0.406   1.381  0.00  0.00    -0.492 OA
BRANCH  17  19
ATOM     18  C   UNL     1       0.361   1.685   0.337  0.00  0.00    +0.048 C 
ATOM     19  C   UNL     1       0.284   0.158   0.267  0.00  0.00    +0.225 C 
ENDBRANCH  17  19
ENDBRANCH  11  17
ENDBRANCH   1  14
BRANCH   9  20
ATOM     20  N   UNL     1       4.456  -7.319   2.757  0.00  0.00    -0.328 N 
ATOM     21  H   UNL     1       4.925  -7.607   3.555  0.00  0.00    +0.145 HD
ATOM     22  H   UNL     1       4.908  -7.329   1.899  0.00  0.00    +0.145 HD
ENDBRANCH   9  20
BRANCH  10  23
ATOM     23  C   UNL     1       3.221  -6.527   0.471  0.00  0.00    +0.101 C 
ATOM     24  N   UNL     1       3.780  -6.550  -0.518  0.00  0.00    -0.191 NA
ENDBRANCH  10  23
BRANCH   5  25
ATOM     25  O   UNL     1      -1.428  -7.624   6.529  0.00  0.00    -0.422 OA
BRANCH  25  26
ATOM     26  C   UNL     1      -2.127  -8.776   6.519  0.00  0.00    +0.344 C 
ATOM     27  O   UNL     1      -2.111  -9.488   5.535  0.00  0.00    -0.245 OA
BRANCH  26  28
ATOM     28  C   UNL     1      -2.913  -9.172   7.703  0.00  0.00    +0.060 A 
ATOM     29  C   UNL     1      -2.938  -8.351   8.834  0.00  0.00    +0.018 A 
ATOM     30  C   UNL     1      -3.673  -8.724   9.937  0.00  0.00    +0.046 A 
ATOM     31  C   UNL     1      -4.390  -9.915   9.927  0.00  0.00    +0.120 A 
ATOM     32  C   UNL     1      -4.367 -10.734   8.804  0.00  0.00    +0.046 A 
ATOM     33  C   UNL     1      -3.639 -10.366   7.695  0.00  0.00    +0.018 A 
BRANCH  31  34
ATOM     34  O   UNL     1      -5.113 -10.279  11.015  0.00  0.00    -0.495 OA
ATOM     35  C   UNL     1      -5.826 -11.515  10.938  0.00  0.00    +0.277 C 
ENDBRANCH  31  34
ENDBRANCH  26  28
ENDBRANCH  25  26
ENDBRANCH   5  25
TORSDOF 9
