REMARK  Name = ZINC27517112
REMARK  9 active torsions:
REMARK  status: ('A' for Active; 'I' for Inactive)
REMARK    1  A    between atoms: C_1  and  C_2
REMARK    2  A    between atoms: C_2  and  C_3
REMARK    3  A    between atoms: C_3  and  C_4
REMARK    4  A    between atoms: C_8  and  C_25
REMARK    5  A    between atoms: C_14  and  C_15
REMARK    6  A    between atoms: C_20  and  O_21
REMARK    7  A    between atoms: O_21  and  C_22
REMARK    8  A    between atoms: C_22  and  C_23
REMARK    9  A    between atoms: C_25  and  C_26
REMARK                            x       y       z     vdW  Elec       q    Type
REMARK                         _______ _______ _______ _____ _____    ______ ____
ROOT
ATOM      1  C   UNL     1      -1.455  -2.105  -0.036  0.00  0.00    +0.028 C 
ATOM      2  C   UNL     1      -0.675  -2.550  -1.284  0.00  0.00    -0.060 C 
ATOM      3  N   UNL     1       0.692  -2.016  -1.218  0.00  0.00    +0.394 N 
ATOM      4  C   UNL     1       0.713  -0.548  -1.247  0.00  0.00    -0.060 C 
ATOM      5  C   UNL     1       0.002  -0.004   0.002  0.00  0.00    +0.027 C 
ATOM      6  C   UNL     1      -1.410  -0.581  -0.014  0.00  0.00    +0.144 C 
ATOM      7  O   UNL     1      -2.402   0.108  -0.029  0.00  0.00    -0.296 OA
ATOM      8  C   UNL     1       0.716  -0.562   1.244  0.00  0.00    +0.095 C 
ATOM      9  N   UNL     1       0.678  -2.050   1.173  0.00  0.00    -0.310 NA
ATOM     10  C   UNL     1      -0.690  -2.585   1.207  0.00  0.00    +0.095 C 
ATOM     11  C   UNL     1       1.388  -2.523  -0.025  0.00  0.00    +0.037 C 
ATOM     12  H   UNL     1       1.223  -2.366  -2.115  0.00  0.00    -0.079 HD
ENDROOT
BRANCH  11  13
ATOM     13  C   UNL     1       2.804  -2.009  -0.010  0.00  0.00    -0.005 A 
ATOM     14  C   UNL     1       3.423  -1.650  -1.192  0.00  0.00    +0.022 A 
ATOM     15  C   UNL     1       4.723  -1.177  -1.178  0.00  0.00    +0.018 A 
ATOM     16  C   UNL     1       5.406  -1.063   0.019  0.00  0.00    +0.019 A 
ATOM     17  C   UNL     1       4.792  -1.421   1.203  0.00  0.00    +0.047 A 
ATOM     18  C   UNL     1       3.486  -1.889   1.192  0.00  0.00    +0.123 A 
ATOM     19 BR   UNL     1       5.566  -0.686  -2.798  0.00  0.00    -0.050 Br
BRANCH  18  20
ATOM     20  O   UNL     1       2.878  -2.236   2.357  0.00  0.00    -0.492 OA
BRANCH  20  21
ATOM     21  C   UNL     1       3.640  -2.087   3.557  0.00  0.00    +0.225 C 
ATOM     22  C   UNL     1       2.795  -2.523   4.755  0.00  0.00    +0.048 C 
ENDBRANCH  20  21
ENDBRANCH  18  20
ENDBRANCH  11  13
BRANCH   5  23
ATOM     23  C   UNL     1      -0.019   1.526   0.010  0.00  0.00    +0.010 C 
ATOM     24  C   UNL     1      -0.735   2.019   1.269  0.00  0.00    +0.005 C 
ENDBRANCH   5  23
BRANCH   1  25
ATOM     25  C   UNL     1      -2.888  -2.643  -0.052  0.00  0.00    +0.013 C 
BRANCH  25  27
ATOM     26  C   UNL     1      -5.054  -2.713   1.189  0.00  0.00    +0.004 C 
ATOM     27  C   UNL     1      -3.622  -2.175   1.206  0.00  0.00    -0.002 C 
ENDBRANCH  25  27
ENDBRANCH   1  25
TORSDOF 6
