REMARK  Name = ZINC39494565
REMARK  10 active torsions:
REMARK  status: ('A' for Active; 'I' for Inactive)
REMARK    1  A    between atoms: C_4  and  C_7
REMARK    2  A    between atoms: C_7  and  C_9
REMARK    3  A    between atoms: C_7  and  N_27
REMARK    4  A    between atoms: C_9  and  C_11
REMARK    5  A    between atoms: C_9  and  C_18
REMARK    6  A    between atoms: C_16  and  O_17
REMARK    7  A    between atoms: C_18  and  C_20
REMARK    8  A    between atoms: C_25  and  O_26
REMARK    9  A    between atoms: C_28  and  S_30
REMARK   10  A    between atoms: S_30  and  C_33
REMARK                            x       y       z     vdW  Elec       q    Type
REMARK                         _______ _______ _______ _____ _____    ______ ____
ROOT
ATOM      1  C   UNL     1       3.711  -0.707  -0.038  0.00  0.00    +0.120 C 
ENDROOT
BRANCH   1   5
ATOM      2  C   UNL     1      -0.017   1.378   0.010  0.00  0.00    +0.000 A 
ATOM      3  C   UNL     1       1.171   2.086   0.002  0.00  0.00    +0.000 A 
ATOM      4  C   UNL     1       2.377   1.411  -0.013  0.00  0.00    +0.005 A 
ATOM      5  C   UNL     1       2.396   0.029  -0.020  0.00  0.00    -0.026 A 
ATOM      6  C   UNL     1       1.208  -0.679  -0.012  0.00  0.00    +0.005 A 
ATOM      7  C   UNL     1       0.002  -0.004   0.002  0.00  0.00    +0.000 A 
ENDBRANCH   1   5
BRANCH   1   8
ATOM      8  N   UNL     1       3.630  -1.873   0.845  0.00  0.00    -0.289 N 
ATOM      9  C   UNL     1       3.871  -1.738   2.164  0.00  0.00    +0.357 C 
ATOM     10  O   UNL     1       4.155  -0.651   2.621  0.00  0.00    -0.249 OA
ATOM     11  H   UNL     1       3.403  -2.743   0.480  0.00  0.00    +0.151 HD
BRANCH   9  12
ATOM     12  S   UNL     1       3.773  -3.141   3.226  0.00  0.00    +0.076 S 
ATOM     13  O   UNL     1       4.104  -4.273   2.435  0.00  0.00    -0.160 OA
ATOM     14  O   UNL     1       4.485  -2.804   4.410  0.00  0.00    -0.160 OA
BRANCH  12  15
ATOM     15  C   UNL     1       2.084  -3.326   3.690  0.00  0.00    +0.099 A 
ATOM     16  C   UNL     1       1.603  -2.689   4.818  0.00  0.00    +0.027 A 
ATOM     17  C   UNL     1       0.277  -2.835   5.182  0.00  0.00    +0.002 A 
ATOM     18  C   UNL     1      -0.568  -3.618   4.418  0.00  0.00    +0.000 A 
ATOM     19  C   UNL     1      -0.087  -4.255   3.289  0.00  0.00    +0.002 A 
ATOM     20  C   UNL     1       1.238  -4.105   2.923  0.00  0.00    +0.027 A 
ENDBRANCH  12  15
ENDBRANCH   9  12
ENDBRANCH   1   8
BRANCH   1  21
ATOM     21  C   UNL     1       4.019  -1.168  -1.464  0.00  0.00    +0.118 C 
BRANCH  21  22
ATOM     22  C   UNL     1       5.334  -1.903  -1.481  0.00  0.00    +0.007 A 
ATOM     23  C   UNL     1       6.490  -1.264  -1.076  0.00  0.00    +0.008 A 
ATOM     24  C   UNL     1       7.697  -1.938  -1.092  0.00  0.00    +0.001 A 
ATOM     25  C   UNL     1       7.750  -3.254  -1.514  0.00  0.00    +0.004 A 
ATOM     26  C   UNL     1       6.598  -3.898  -1.919  0.00  0.00    +0.046 A 
ATOM     27  C   UNL     1       5.385  -3.225  -1.899  0.00  0.00    +0.121 A 
BRANCH  27  28
ATOM     28  O   UNL     1       4.249  -3.858  -2.293  0.00  0.00    -0.506 OA
ATOM     29  H   UNL     1       4.058  -3.774  -3.237  0.00  0.00    +0.292 HD
ENDBRANCH  27  28
ENDBRANCH  21  22
BRANCH  21  30
ATOM     30  C   UNL     1       4.103   0.032  -2.372  0.00  0.00    +0.176 C 
ATOM     31  O   UNL     1       4.474   1.100  -1.933  0.00  0.00    -0.291 OA
BRANCH  30  32
ATOM     32  C   UNL     1       3.734  -0.092  -3.787  0.00  0.00    +0.059 A 
ATOM     33  C   UNL     1       3.299  -1.321  -4.297  0.00  0.00    +0.015 A 
ATOM     34  C   UNL     1       2.954  -1.429  -5.626  0.00  0.00    +0.001 A 
ATOM     35  C   UNL     1       3.037  -0.327  -6.463  0.00  0.00    +0.004 A 
ATOM     36  C   UNL     1       3.464   0.891  -5.975  0.00  0.00    +0.046 A 
ATOM     37  C   UNL     1       3.810   1.023  -4.638  0.00  0.00    +0.127 A 
BRANCH  37  38
ATOM     38  O   UNL     1       4.224   2.221  -4.156  0.00  0.00    -0.506 OA
ATOM     39  H   UNL     1       5.179   2.360  -4.215  0.00  0.00    +0.292 HD
ENDBRANCH  37  38
ENDBRANCH  30  32
ENDBRANCH  21  30
ENDBRANCH   1  21
TORSDOF 10
