REMARK  Name = ZINC58889070
REMARK  11 active torsions:
REMARK  status: ('A' for Active; 'I' for Inactive)
REMARK    1  A    between atoms: C_4  and  C_7
REMARK    2  A    between atoms: C_7  and  C_9
REMARK    3  A    between atoms: C_7  and  O_34
REMARK    4  A    between atoms: C_9  and  C_10
REMARK    5  A    between atoms: C_10  and  C_11
REMARK    6  A    between atoms: N_13  and  N_14
REMARK    7  A    between atoms: C_15  and  C_16
REMARK    8  A    between atoms: C_19  and  O_23
REMARK    9  A    between atoms: O_23  and  C_24
REMARK   10  A    between atoms: C_24  and  C_25
REMARK   11  A    between atoms: C_28  and  N_31
REMARK                            x       y       z     vdW  Elec       q    Type
REMARK                         _______ _______ _______ _____ _____    ______ ____
ROOT
ATOM      1  C   UNL     1       9.491  -3.689  -3.707  0.00  0.00    -0.004 A 
ATOM      2  C   UNL     1       9.085  -3.573  -2.375  0.00  0.00    +0.013 A 
ATOM      3  C   UNL     1       9.974  -3.845  -1.359  0.00  0.00    +0.047 A 
ATOM      4  C   UNL     1      11.274  -4.235  -1.656  0.00  0.00    +0.135 A 
ATOM      5  C   UNL     1      11.683  -4.352  -2.979  0.00  0.00    +0.060 A 
ATOM      6  C   UNL     1      10.797  -4.087  -4.002  0.00  0.00    +0.028 A 
ATOM      7 BR   UNL     1      13.454  -4.882  -3.376  0.00  0.00    -0.046 Br
ENDROOT
BRANCH   1   9
ATOM      8  N   UNL     1       7.426  -2.788  -4.541  0.00  0.00    -0.188 NA
ATOM      9  C   UNL     1       8.542  -3.398  -4.798  0.00  0.00    +0.138 C 
BRANCH   8  12
ATOM     10  C   UNL     1       6.108  -1.482  -3.049  0.00  0.00    +0.232 C 
ATOM     11  O   UNL     1       5.143  -1.670  -3.760  0.00  0.00    -0.274 OA
ATOM     12  N   UNL     1       7.301  -2.016  -3.379  0.00  0.00    -0.207 N 
ATOM     13  H   UNL     1       8.073  -1.865  -2.811  0.00  0.00    +0.177 HD
BRANCH  10  14
ATOM     14  C   UNL     1       5.973  -0.652  -1.799  0.00  0.00    +0.100 C 
BRANCH  14  15
ATOM     15  C   UNL     1       4.528  -0.170  -1.660  0.00  0.00    +0.045 C 
BRANCH  15  16
ATOM     16  C   UNL     1       4.391   0.673  -0.390  0.00  0.00    +0.145 C 
BRANCH  16  20
ATOM     17  C   UNL     1       0.448   2.303  -0.184  0.00  0.00    +0.000 A 
ATOM     18  C   UNL     1       1.477   3.050  -0.727  0.00  0.00    +0.000 A 
ATOM     19  C   UNL     1       2.753   2.522  -0.793  0.00  0.00    +0.006 A 
ATOM     20  C   UNL     1       3.000   1.248  -0.317  0.00  0.00    -0.019 A 
ATOM     21  C   UNL     1       1.971   0.502   0.227  0.00  0.00    +0.006 A 
ATOM     22  C   UNL     1       0.695   1.029   0.292  0.00  0.00    +0.000 A 
ENDBRANCH  16  20
BRANCH  16  23
ATOM     23  O   UNL     1       4.628  -0.149   0.755  0.00  0.00    -0.387 OA
ATOM     24  H   UNL     1       4.015  -0.892   0.839  0.00  0.00    +0.210 HD
ENDBRANCH  16  23
ENDBRANCH  15  16
ENDBRANCH  14  15
ENDBRANCH  10  14
ENDBRANCH   8  12
ENDBRANCH   1   9
BRANCH   4  25
ATOM     25  O   UNL     1      12.148  -4.502  -0.651  0.00  0.00    -0.486 OA
BRANCH  25  26
ATOM     26  C   UNL     1      11.662  -4.361   0.686  0.00  0.00    +0.264 C 
BRANCH  26  27
ATOM     27  C   UNL     1      12.763  -4.696   1.658  0.00  0.00    -0.010 A 
ATOM     28  C   UNL     1      12.927  -5.997   2.095  0.00  0.00    +0.009 A 
ATOM     29  C   UNL     1      13.937  -6.304   2.988  0.00  0.00    +0.033 A 
ATOM     30  C   UNL     1      14.783  -5.311   3.443  0.00  0.00    +0.126 A 
ATOM     31  C   UNL     1      14.620  -4.010   3.005  0.00  0.00    +0.033 A 
ATOM     32  C   UNL     1      13.613  -3.703   2.109  0.00  0.00    +0.009 A 
BRANCH  30  33
ATOM     33  N   UNL     1      15.864  -5.640   4.399  0.00  0.00    +0.056 N 
ATOM     34  O   UNL     1      16.007  -6.777   4.782  0.00  0.00    -0.126 OA
ATOM     35  O   UNL     1      16.605  -4.771   4.796  0.00  0.00    -0.126 OA
ENDBRANCH  30  33
ENDBRANCH  26  27
ENDBRANCH  25  26
ENDBRANCH   4  25
TORSDOF 11
