REMARK  Name = ZINC50669849
REMARK  5 active torsions:
REMARK  status: ('A' for Active; 'I' for Inactive)
REMARK    1  A    between atoms: C_1  and  C_2
REMARK    2  A    between atoms: C_8  and  C_10
REMARK    3  A    between atoms: C_10  and  N_11
REMARK    4  A    between atoms: N_11  and  S_12
REMARK    5  A    between atoms: S_12  and  C_15
REMARK                            x       y       z     vdW  Elec       q    Type
REMARK                         _______ _______ _______ _____ _____    ______ ____
ROOT
ATOM      1  S   UNL     1       0.477   0.304   5.147  0.00  0.00    +0.061 S 
ATOM      2  O   UNL     1       1.363  -0.289   6.088  0.00  0.00    -0.153 OA
ATOM      3  O   UNL     1       0.433   1.706   4.922  0.00  0.00    -0.153 OA
ENDROOT
BRANCH   1   4
ATOM      4  C   UNL     1      -1.151  -0.182   5.613  0.00  0.00    +0.141 A 
ATOM      5  C   UNL     1      -2.250   0.574   5.238  0.00  0.00    +0.144 A 
ATOM      6  N   UNL     1      -3.459   0.181   5.604  0.00  0.00    -0.221 NA
ATOM      7  C   UNL     1      -3.625  -0.921   6.321  0.00  0.00    +0.213 A 
ATOM      8  N   UNL     1      -2.595  -1.666   6.696  0.00  0.00    -0.221 NA
ATOM      9  C   UNL     1      -1.361  -1.332   6.358  0.00  0.00    +0.144 A 
ATOM     10  N   UNL     1      -4.904  -1.303   6.687  0.00  0.00    -0.327 N 
ATOM     11  H   UNL     1      -5.666  -0.766   6.419  0.00  0.00    +0.145 HD
ATOM     12  H   UNL     1      -5.038  -2.108   7.212  0.00  0.00    +0.145 HD
ENDBRANCH   1   4
BRANCH   1  13
ATOM     13  N   UNL     1       0.799  -0.401   3.684  0.00  0.00    -0.190 NA
ATOM     14  H   UNL     1       1.500  -1.068   3.611  0.00  0.00    +0.148 HD
BRANCH  13  15
ATOM     15  C   UNL     1       0.026  -0.018   2.500  0.00  0.00    +0.109 C 
BRANCH  15  22
ATOM     16  C   UNL     1      -0.019   1.526   0.010  0.00  0.00    +0.008 C 
ATOM     17  C   UNL     1       0.002  -0.004   0.002  0.00  0.00    -0.010 C 
ATOM     18  C   UNL     1       0.718  -0.497  -1.257  0.00  0.00    +0.003 C 
ATOM     19  C   UNL     1       0.739  -2.027  -1.265  0.00  0.00    +0.000 C 
ATOM     20  C   UNL     1       1.479  -2.534  -0.026  0.00  0.00    +0.000 C 
ATOM     21  C   UNL     1       0.763  -2.041   1.233  0.00  0.00    +0.005 C 
ATOM     22  C   UNL     1       0.742  -0.511   1.242  0.00  0.00    +0.007 C 
ENDBRANCH  15  22
ENDBRANCH  13  15
ENDBRANCH   1  13
TORSDOF 4
