REMARK  Name = ZINC46864815
REMARK  7 active torsions:
REMARK  status: ('A' for Active; 'I' for Inactive)
REMARK    1  A    between atoms: C_1  and  C_2
REMARK    2  A    between atoms: C_12  and  C_14
REMARK    3  A    between atoms: C_14  and  O_15
REMARK    4  A    between atoms: O_15  and  C_16
REMARK    5  A    between atoms: C_16  and  C_18
REMARK    6  A    between atoms: N_21  and  S_24
REMARK    7  A    between atoms: S_24  and  C_27
REMARK                            x       y       z     vdW  Elec       q    Type
REMARK                         _______ _______ _______ _____ _____    ______ ____
ROOT
ATOM      1  C   UNL     1       4.583  -0.874   3.987  0.00  0.00    +0.311 C 
ATOM      2  O   UNL     1       4.028  -1.573   4.801  0.00  0.00    -0.251 OA
ENDROOT
BRANCH   1   3
ATOM      3  C   UNL     1       6.027  -0.490   4.182  0.00  0.00    +0.100 C 
ATOM      4  C   UNL     1       6.855  -1.001   3.001  0.00  0.00    +0.032 C 
ATOM      5  C   UNL     1       8.316  -0.579   3.186  0.00  0.00    +0.110 C 
ATOM      6  N   UNL     1       8.781  -1.050   4.497  0.00  0.00    -0.176 NA
ATOM      7  C   UNL     1       8.006  -0.692   5.693  0.00  0.00    +0.110 C 
ATOM      8  C   UNL     1       6.549  -1.112   5.480  0.00  0.00    +0.032 C 
BRANCH   6   9
ATOM      9  S   UNL     1      10.154  -1.968   4.626  0.00  0.00    +0.062 S 
ATOM     10  O   UNL     1      10.037  -2.707   5.834  0.00  0.00    -0.153 OA
ATOM     11  O   UNL     1      10.342  -2.596   3.365  0.00  0.00    -0.153 OA
BRANCH   9  12
ATOM     12  C   UNL     1      11.505  -0.858   4.842  0.00  0.00    +0.123 A 
ATOM     13  C   UNL     1      12.186  -0.358   3.743  0.00  0.00    +0.031 A 
ATOM     14  C   UNL     1      13.243   0.512   3.961  0.00  0.00    +0.022 A 
ATOM     15  C   UNL     1      13.580   0.850   5.258  0.00  0.00    +0.111 A 
ATOM     16  N   UNL     1      12.910   0.355   6.280  0.00  0.00    -0.261 NA
ATOM     17  C   UNL     1      11.896  -0.470   6.110  0.00  0.00    +0.139 A 
ENDBRANCH   9  12
ENDBRANCH   6   9
ENDBRANCH   1   3
BRANCH   1  18
ATOM     18  O   UNL     1       3.913  -0.439   2.908  0.00  0.00    -0.455 OA
BRANCH  18  19
ATOM     19  C   UNL     1       2.547  -0.841   2.786  0.00  0.00    +0.328 C 
BRANCH  19  30
ATOM     20  C   UNL     1      -0.019   1.526   0.010  0.00  0.00    +0.029 C 
ATOM     21  C   UNL     1       0.002  -0.004   0.002  0.00  0.00    +0.083 C 
ATOM     22  C   UNL     1      -1.430  -0.557   0.082  0.00  0.00    +0.059 C 
ATOM     23  C   UNL     1      -1.457  -1.361   1.363  0.00  0.00    -0.024 A 
ATOM     24  C   UNL     1      -2.472  -2.086   1.957  0.00  0.00    +0.005 A 
ATOM     25  C   UNL     1      -2.247  -2.747   3.150  0.00  0.00    +0.000 A 
ATOM     26  C   UNL     1      -1.003  -2.681   3.749  0.00  0.00    +0.002 A 
ATOM     27  C   UNL     1       0.013  -1.959   3.160  0.00  0.00    +0.024 A 
ATOM     28  C   UNL     1      -0.206  -1.288   1.955  0.00  0.00    +0.040 A 
ATOM     29  N   UNL     1       0.679  -0.510   1.199  0.00  0.00    -0.265 N 
ATOM     30  C   UNL     1       1.964  -0.262   1.523  0.00  0.00    +0.258 C 
ATOM     31  O   UNL     1       2.650   0.428   0.799  0.00  0.00    -0.272 OA
ENDBRANCH  19  30
ENDBRANCH  18  19
ENDBRANCH   1  18
TORSDOF 6
