REMARK  Name = ZINC12083080
REMARK  8 active torsions:
REMARK  status: ('A' for Active; 'I' for Inactive)
REMARK    1  A    between atoms: C_1  and  C_2
REMARK    2  A    between atoms: C_2  and  C_3
REMARK    3  A    between atoms: C_3  and  N_4
REMARK    4  A    between atoms: C_8  and  N_17
REMARK    5  A    between atoms: C_12  and  C_16
REMARK    6  A    between atoms: C_18  and  C_20
REMARK    7  A    between atoms: C_21  and  C_22
REMARK    8  A    between atoms: C_25  and  N_28
REMARK                            x       y       z     vdW  Elec       q    Type
REMARK                         _______ _______ _______ _____ _____    ______ ____
ROOT
ATOM      1  N   UNL     1     -10.797  -1.394  -0.324  0.00  0.00    -0.265 N 
ATOM      2  C   UNL     1      -9.609  -0.652  -0.233  0.00  0.00    +0.078 A 
ATOM      3  C   UNL     1      -8.383  -1.290  -0.143  0.00  0.00    +0.029 A 
ATOM      4  C   UNL     1      -7.222  -0.544  -0.059  0.00  0.00    +0.025 A 
ATOM      5  C   UNL     1      -7.285   0.844  -0.053  0.00  0.00    +0.037 A 
ATOM      6  C   UNL     1      -8.513   1.487  -0.143  0.00  0.00    +0.071 A 
ATOM      7  C   UNL     1      -9.675   0.741  -0.234  0.00  0.00    +0.145 A 
ATOM      8  O   UNL     1     -10.885   1.353  -0.326  0.00  0.00    -0.478 OA
ATOM      9  C   UNL     1     -11.886   0.687  -1.099  0.00  0.00    +0.256 C 
ATOM     10  C   UNL     1     -11.928  -0.773  -0.724  0.00  0.00    +0.260 C 
ATOM     11  O   UNL     1     -12.972  -1.387  -0.782  0.00  0.00    -0.271 OA
ATOM     12  C   UNL     1     -13.250   1.322  -0.824  0.00  0.00    +0.062 C 
ENDROOT
BRANCH   5  13
ATOM     13  N   UNL     1      -6.108   1.596   0.039  0.00  0.00    -0.282 N 
ATOM     14  C   UNL     1      -5.067   1.133   0.758  0.00  0.00    +0.241 C 
ATOM     15  O   UNL     1      -5.182   0.109   1.407  0.00  0.00    -0.270 OA
ATOM     16  H   UNL     1      -6.042   2.450  -0.416  0.00  0.00    +0.155 HD
BRANCH  14  17
ATOM     17  C   UNL     1      -3.797   1.862   0.761  0.00  0.00    +0.068 C 
ATOM     18  C   UNL     1      -2.756   1.399   1.481  0.00  0.00    +0.013 C 
BRANCH  18  19
ATOM     19  C   UNL     1      -1.479   2.131   1.483  0.00  0.00    -0.025 A 
ATOM     20  C   UNL     1      -0.396   1.654   2.229  0.00  0.00    +0.010 A 
ATOM     21  C   UNL     1       0.798   2.343   2.221  0.00  0.00    +0.033 A 
ATOM     22  C   UNL     1       0.926   3.506   1.482  0.00  0.00    +0.126 A 
ATOM     23  C   UNL     1      -0.143   3.988   0.746  0.00  0.00    +0.033 A 
ATOM     24  C   UNL     1      -1.344   3.311   0.745  0.00  0.00    +0.010 A 
BRANCH  22  25
ATOM     25  N   UNL     1       2.212   4.239   1.479  0.00  0.00    +0.056 N 
ATOM     26  O   UNL     1       3.155   3.817   2.125  0.00  0.00    -0.126 OA
ATOM     27  O   UNL     1       2.328   5.263   0.830  0.00  0.00    -0.126 OA
ENDBRANCH  22  25
ENDBRANCH  18  19
ENDBRANCH  14  17
ENDBRANCH   5  13
BRANCH   1  28
ATOM     28  C   UNL     1     -10.810  -2.821   0.010  0.00  0.00    +0.113 C 
BRANCH  28  30
ATOM     29  C   UNL     1     -11.136  -4.482   1.847  0.00  0.00    +0.005 C 
ATOM     30  C   UNL     1     -11.123  -2.993   1.498  0.00  0.00    +0.016 C 
ENDBRANCH  28  30
ENDBRANCH   1  28
TORSDOF 6
