REMARK  Name = ZINC66114964
REMARK  8 active torsions:
REMARK  status: ('A' for Active; 'I' for Inactive)
REMARK    1  A    between atoms: C_1  and  C_2
REMARK    2  A    between atoms: C_2  and  C_3
REMARK    3  A    between atoms: C_2  and  O_4
REMARK    4  A    between atoms: O_4  and  C_5
REMARK    5  A    between atoms: C_14  and  C_15
REMARK    6  A    between atoms: C_15  and  N_16
REMARK    7  A    between atoms: C_20  and  C_23
REMARK    8  A    between atoms: N_25  and  N_26
REMARK                            x       y       z     vdW  Elec       q    Type
REMARK                         _______ _______ _______ _____ _____    ______ ____
ROOT
ATOM      1  C   UNL     1      -3.996  -1.354  -0.150  0.00  0.00    -0.039 C 
ENDROOT
BRANCH   1  11
ATOM      2  C   UNL     1      -1.580  -1.639  -0.686  0.00  0.00    +0.123 A 
ATOM      3  C   UNL     1      -0.514  -2.326  -1.276  0.00  0.00    +0.046 A 
ATOM      4  C   UNL     1      -0.725  -3.469  -1.982  0.00  0.00    +0.012 A 
ATOM      5  C   UNL     1      -2.030  -3.973  -2.121  0.00  0.00    -0.017 A 
ATOM      6  C   UNL     1      -2.283  -5.152  -2.842  0.00  0.00    +0.008 A 
ATOM      7  C   UNL     1      -3.559  -5.611  -2.957  0.00  0.00    +0.001 A 
ATOM      8  C   UNL     1      -4.623  -4.928  -2.370  0.00  0.00    +0.001 A 
ATOM      9  C   UNL     1      -4.416  -3.783  -1.664  0.00  0.00    +0.009 A 
ATOM     10  C   UNL     1      -3.112  -3.278  -1.524  0.00  0.00    -0.013 A 
ATOM     11  C   UNL     1      -2.860  -2.103  -0.798  0.00  0.00    -0.015 A 
BRANCH   2  12
ATOM     12  O   UNL     1      -1.339  -0.499   0.012  0.00  0.00    -0.489 OA
BRANCH  12  14
ATOM     13  C   UNL     1      -0.011   1.504   0.269  0.00  0.00    +0.051 C 
ATOM     14  C   UNL     1       0.001  -0.002   0.000  0.00  0.00    +0.167 C 
ATOM     15  C   UNL     1       0.817  -0.708   1.086  0.00  0.00    +0.051 C 
ENDBRANCH  12  14
ENDBRANCH   2  12
ENDBRANCH   1  11
BRANCH   1  16
ATOM     16  N   UNL     1      -4.534  -0.367  -1.096  0.00  0.00    +0.383 N 
ATOM     17  C   UNL     1      -5.122  -1.063  -2.246  0.00  0.00    -0.078 C 
ATOM     18  C   UNL     1      -5.612  -0.039  -3.272  0.00  0.00    -0.018 C 
ATOM     19  C   UNL     1      -6.668   0.861  -2.624  0.00  0.00    +0.009 C 
ATOM     20  C   UNL     1      -6.065   1.525  -1.382  0.00  0.00    +0.060 C 
ATOM     21  C   UNL     1      -5.559   0.443  -0.426  0.00  0.00    -0.066 C 
ATOM     22  H   UNL     1      -3.788   0.234  -1.415  0.00  0.00    -0.081 HD
BRANCH  20  23
ATOM     23  C   UNL     1      -7.119   2.354  -0.693  0.00  0.00    +0.228 C 
ATOM     24  O   UNL     1      -7.433   2.106   0.452  0.00  0.00    -0.274 OA
ATOM     25  N   UNL     1      -7.713   3.370  -1.350  0.00  0.00    -0.253 N 
ATOM     26  H   UNL     1      -7.462   3.568  -2.266  0.00  0.00    +0.169 HD
BRANCH  25  27
ATOM     27  N   UNL     1      -8.668   4.121  -0.726  0.00  0.00    -0.254 NA
ATOM     28  H   UNL     1      -9.020   4.841  -1.339  0.00  0.00    +0.140 HD
ATOM     29  H   UNL     1      -9.418   3.539  -0.383  0.00  0.00    +0.140 HD
ENDBRANCH  25  27
ENDBRANCH  20  23
ENDBRANCH   1  16
TORSDOF 6
