REMARK  Name = ZINC34782228
REMARK  7 active torsions:
REMARK  status: ('A' for Active; 'I' for Inactive)
REMARK    1  A    between atoms: C_1  and  C_2
REMARK    2  A    between atoms: C_6  and  N_19
REMARK    3  A    between atoms: C_7  and  C_11
REMARK    4  A    between atoms: C_11  and  C_13
REMARK    5  A    between atoms: C_23  and  C_41
REMARK    6  A    between atoms: C_33  and  C_40
REMARK    7  A    between atoms: C_36  and  O_39
REMARK                            x       y       z     vdW  Elec       q    Type
REMARK                         _______ _______ _______ _____ _____    ______ ____
ROOT
ATOM      1  C   UNL     1      -2.383   1.930  -0.333  0.00  0.00    +0.063 C 
ATOM      2  C   UNL     1      -2.238   0.433  -0.249  0.00  0.00    +0.018 A 
ATOM      3  C   UNL     1      -2.152  -0.331  -1.407  0.00  0.00    -0.018 A 
ATOM      4  C   UNL     1      -2.011  -1.715  -1.380  0.00  0.00    -0.030 A 
ATOM      5  C   UNL     1      -1.965  -2.354  -0.124  0.00  0.00    +0.030 A 
ATOM      6  C   UNL     1      -1.834  -3.753   0.182  0.00  0.00    +0.052 A 
ATOM      7  C   UNL     1      -1.817  -4.128   1.517  0.00  0.00    +0.083 A 
ATOM      8  S   UNL     1      -1.980  -2.578   2.387  0.00  0.00    -0.065 S 
ATOM      9  C   UNL     1      -2.066  -1.482   1.005  0.00  0.00    +0.088 A 
ATOM     10  N   UNL     1      -2.185  -0.173   0.938  0.00  0.00    -0.352 N 
ATOM     11  C   UNL     1      -1.923  -2.261  -2.769  0.00  0.00    +0.041 C 
ATOM     12  C   UNL     1      -1.605  -1.025  -3.640  0.00  0.00    +0.007 C 
ATOM     13  C   UNL     1      -2.198   0.130  -2.846  0.00  0.00    -0.002 C 
ATOM     14  C   UNL     1      -3.635   0.464  -3.202  0.00  0.00    +0.012 C 
ATOM     15  C   UNL     1      -3.866   0.464  -4.706  0.00  0.00    +0.005 C 
ATOM     16  C   UNL     1      -3.550  -0.932  -5.255  0.00  0.00    +0.003 C 
ATOM     17  C   UNL     1      -2.081  -1.201  -5.053  0.00  0.00    +0.001 C 
ATOM     18  C   UNL     1      -1.809  -2.638  -5.519  0.00  0.00    +0.031 C 
ATOM     19  C   UNL     1      -2.344  -2.829  -6.907  0.00  0.00    -0.027 C 
ATOM     20  C   UNL     1      -3.269  -2.088  -7.430  0.00  0.00    -0.065 C 
ATOM     21  C   UNL     1      -3.907  -0.976  -6.735  0.00  0.00    -0.008 C 
ATOM     22  C   UNL     1      -3.548   0.336  -7.428  0.00  0.00    +0.014 C 
ATOM     23  C   UNL     1      -3.254   0.083  -8.906  0.00  0.00    +0.032 C 
ATOM     24  C   UNL     1      -4.131  -1.039  -9.458  0.00  0.00    +0.119 C 
ATOM     25  C   UNL     1      -3.724  -2.344  -8.857  0.00  0.00    +0.062 C 
ATOM     26  C   UNL     1      -5.420  -1.168  -6.858  0.00  0.00    +0.016 C 
ATOM     27  C   UNL     1      -1.326   1.375  -3.018  0.00  0.00    +0.016 C 
ATOM     28  H   UNL     1      -2.239   0.351   1.752  0.00  0.00    +0.166 HD
ENDROOT
BRANCH   6  29
ATOM     29  N   UNL     1      -1.728  -4.697  -0.826  0.00  0.00    -0.356 N 
ATOM     30  H   UNL     1      -1.742  -4.419  -1.755  0.00  0.00    +0.142 HD
ATOM     31  H   UNL     1      -1.639  -5.637  -0.603  0.00  0.00    +0.142 HD
ENDBRANCH   6  29
BRANCH   7  32
ATOM     32  C   UNL     1      -1.698  -5.428   2.061  0.00  0.00    +0.202 C 
ATOM     33  O   UNL     1      -1.474  -6.376   1.329  0.00  0.00    -0.286 OA
BRANCH  32  34
ATOM     34  C   UNL     1      -1.846  -5.638   3.518  0.00  0.00    +0.023 A 
ATOM     35  C   UNL     1      -2.554  -4.716   4.290  0.00  0.00    +0.012 A 
ATOM     36  C   UNL     1      -2.689  -4.917   5.648  0.00  0.00    +0.001 A 
ATOM     37  C   UNL     1      -2.124  -6.030   6.245  0.00  0.00    +0.000 A 
ATOM     38  C   UNL     1      -1.421  -6.948   5.485  0.00  0.00    +0.001 A 
ATOM     39  C   UNL     1      -1.283  -6.762   4.125  0.00  0.00    +0.012 A 
ENDBRANCH  32  34
ENDBRANCH   7  32
BRANCH  24  40
ATOM     40  O   UNL     1      -5.492  -0.801  -9.094  0.00  0.00    -0.391 OA
ATOM     41  H   UNL     1      -6.104  -1.489  -9.391  0.00  0.00    +0.210 HD
ENDBRANCH  24  40
TORSDOF 4
