REMARK  Name = ZINC13619723
REMARK  12 active torsions:
REMARK  status: ('A' for Active; 'I' for Inactive)
REMARK    1  A    between atoms: C_1  and  C_2
REMARK    2  A    between atoms: C_2  and  C_3
REMARK    3  A    between atoms: C_2  and  C_4
REMARK    4  A    between atoms: C_2  and  C_5
REMARK    5  A    between atoms: C_8  and  O_12
REMARK    6  A    between atoms: O_12  and  C_13
REMARK    7  A    between atoms: C_13  and  C_14
REMARK    8  A    between atoms: N_16  and  N_17
REMARK    9  A    between atoms: C_18  and  C_20
REMARK   10  A    between atoms: C_23  and  O_26
REMARK   11  A    between atoms: O_26  and  C_27
REMARK   12  A    between atoms: C_27  and  C_28
REMARK                            x       y       z     vdW  Elec       q    Type
REMARK                         _______ _______ _______ _____ _____    ______ ____
ROOT
ATOM      1  C   UNL     1     -10.293   4.860   6.311  0.00  0.00    +0.267 C 
ATOM      2  O   UNL     1      -9.649   3.929   6.747  0.00  0.00    -0.271 OA
ATOM      3  N   UNL     1      -9.872   5.514   5.210  0.00  0.00    -0.231 N 
ATOM      4  H   UNL     1     -10.387   6.258   4.861  0.00  0.00    +0.173 HD
ENDROOT
BRANCH   3   5
ATOM      5  N   UNL     1      -8.691   5.118   4.568  0.00  0.00    -0.230 N 
ATOM      6  C   UNL     1      -8.270   5.771   3.467  0.00  0.00    +0.260 C 
ATOM      7  O   UNL     1      -8.916   6.704   3.030  0.00  0.00    -0.269 OA
ATOM      8  H   UNL     1      -8.176   4.373   4.917  0.00  0.00    +0.173 HD
BRANCH   6   9
ATOM      9  C   UNL     1      -7.026   5.354   2.792  0.00  0.00    +0.038 A 
ATOM     10  C   UNL     1      -6.588   6.030   1.650  0.00  0.00    +0.016 A 
ATOM     11  C   UNL     1      -5.427   5.637   1.022  0.00  0.00    +0.046 A 
ATOM     12  C   UNL     1      -4.691   4.570   1.523  0.00  0.00    +0.121 A 
ATOM     13  C   UNL     1      -5.126   3.892   2.655  0.00  0.00    +0.046 A 
ATOM     14  C   UNL     1      -6.283   4.281   3.292  0.00  0.00    +0.016 A 
BRANCH  12  15
ATOM     15  O   UNL     1      -3.547   4.186   0.901  0.00  0.00    -0.489 OA
BRANCH  15  16
ATOM     16  C   UNL     1      -2.840   3.082   1.469  0.00  0.00    +0.260 C 
BRANCH  16  17
ATOM     17  C   UNL     1      -1.587   2.797   0.638  0.00  0.00    +0.156 C 
ATOM     18  C   UNL     1      -0.788   1.610   1.241  0.00  0.00    +0.037 C 
ATOM     19  C   UNL     1      -0.013   1.086   0.008  0.00  0.00    +0.031 C 
ATOM     20  C   UNL     1      -0.808   1.621  -1.198  0.00  0.00    +0.160 C 
ATOM     21  O   UNL     1      -1.946   2.329  -0.680  0.00  0.00    -0.373 OA
ENDBRANCH  16  17
ENDBRANCH  15  16
ENDBRANCH  12  15
ENDBRANCH   6   9
ENDBRANCH   3   5
BRANCH   1  22
ATOM     22  C   UNL     1     -11.563   5.286   7.000  0.00  0.00    +0.326 C 
BRANCH  22  23
ATOM     23  O   UNL     1     -11.794   4.447   8.133  0.00  0.00    -0.482 OA
BRANCH  23  27
ATOM     24  C   UNL     1     -15.175   5.211  10.372  0.00  0.00    -0.041 A 
ATOM     25  C   UNL     1     -14.891   5.987   9.263  0.00  0.00    +0.008 A 
ATOM     26  C   UNL     1     -13.760   5.733   8.512  0.00  0.00    +0.047 A 
ATOM     27  C   UNL     1     -12.908   4.699   8.871  0.00  0.00    +0.135 A 
ATOM     28  C   UNL     1     -13.197   3.918   9.982  0.00  0.00    +0.060 A 
ATOM     29  C   UNL     1     -14.328   4.180  10.732  0.00  0.00    +0.023 A 
ATOM     30 BR   UNL     1     -12.043   2.503  10.471  0.00  0.00    -0.047 Br
BRANCH  24  32
ATOM     31  C   UNL     1     -17.651   5.342  10.305  0.00  0.00    +0.015 C 
ATOM     32  C   UNL     1     -16.410   5.491  11.189  0.00  0.00    -0.013 C 
ATOM     33  C   UNL     1     -16.489   4.497  12.350  0.00  0.00    +0.015 C 
ATOM     34  C   UNL     1     -16.345   6.916  11.741  0.00  0.00    +0.015 C 
ENDBRANCH  24  32
ENDBRANCH  23  27
ENDBRANCH  22  23
ENDBRANCH   1  22
TORSDOF 9
