REMARK  Name = ZINC67387867
REMARK  11 active torsions:
REMARK  status: ('A' for Active; 'I' for Inactive)
REMARK    1  A    between atoms: C_1  and  C_2
REMARK    2  A    between atoms: C_2  and  C_4
REMARK    3  A    between atoms: C_2  and  N_15
REMARK    4  A    between atoms: C_8  and  S_10
REMARK    5  A    between atoms: S_10  and  N_13
REMARK    6  A    between atoms: N_13  and  C_14
REMARK    7  A    between atoms: N_18  and  C_19
REMARK    8  A    between atoms: N_22  and  C_25
REMARK    9  A    between atoms: C_25  and  C_26
REMARK   10  A    between atoms: C_26  and  C_27
REMARK   11  A    between atoms: C_26  and  C_28
REMARK                            x       y       z     vdW  Elec       q    Type
REMARK                         _______ _______ _______ _____ _____    ______ ____
ROOT
ATOM      1  N   UNL     1       0.688  -0.476  -1.203  0.00  0.00    -0.293 N 
ATOM      2  C   UNL     1       0.006  -0.608  -2.358  0.00  0.00    +0.300 C 
ATOM      3  O   UNL     1      -1.178  -0.335  -2.400  0.00  0.00    -0.253 OA
ATOM      4  N   UNL     1       0.637  -1.043  -3.467  0.00  0.00    -0.297 N 
ATOM      5  H   UNL     1       1.632  -0.695  -1.170  0.00  0.00    +0.151 HD
ATOM      6  H   UNL     1       1.582  -1.261  -3.434  0.00  0.00    +0.151 HD
ENDROOT
BRANCH   4   7
ATOM      7  C   UNL     1      -0.104  -1.186  -4.723  0.00  0.00    +0.071 C 
ATOM      8  C   UNL     1      -0.785  -2.557  -4.763  0.00  0.00    +0.004 C 
ATOM      9  C   UNL     1      -1.491  -2.731  -6.109  0.00  0.00    -0.077 C 
ATOM     10  N   UNL     1      -0.508  -2.640  -7.196  0.00  0.00    +0.380 N 
ATOM     11  C   UNL     1       0.097  -1.303  -7.209  0.00  0.00    -0.077 C 
ATOM     12  C   UNL     1       0.864  -1.074  -5.904  0.00  0.00    +0.004 C 
ATOM     13  H   UNL     1       0.212  -3.333  -7.056  0.00  0.00    -0.082 HD
BRANCH  10  14
ATOM     14  C   UNL     1      -1.177  -2.885  -8.480  0.00  0.00    -0.076 C 
BRANCH  14  15
ATOM     15  C   UNL     1      -0.135  -2.914  -9.601  0.00  0.00    -0.034 C 
ATOM     16  C   UNL     1       0.800  -4.108  -9.397  0.00  0.00    +0.005 C 
ATOM     17  C   UNL     1      -0.842  -3.045 -10.951  0.00  0.00    +0.005 C 
ENDBRANCH  14  15
ENDBRANCH  10  14
ENDBRANCH   4   7
BRANCH   1  19
ATOM     18  C   UNL     1      -0.019   1.526   0.010  0.00  0.00    +0.033 C 
ATOM     19  C   UNL     1       0.002  -0.004   0.002  0.00  0.00    +0.102 C 
BRANCH  19  20
ATOM     20  C   UNL     1       0.731  -0.503   1.223  0.00  0.00    -0.026 A 
ATOM     21  C   UNL     1       2.113  -0.514   1.247  0.00  0.00    +0.005 A 
ATOM     22  C   UNL     1       2.782  -0.972   2.366  0.00  0.00    +0.002 A 
ATOM     23  C   UNL     1       2.068  -1.419   3.463  0.00  0.00    +0.028 A 
ATOM     24  C   UNL     1       0.686  -1.407   3.439  0.00  0.00    +0.106 A 
ATOM     25  C   UNL     1       0.018  -0.945   2.321  0.00  0.00    +0.034 A 
BRANCH  24  26
ATOM     26  S   UNL     1      -0.223  -1.978   4.837  0.00  0.00    +0.058 S 
ATOM     27  O   UNL     1      -1.500  -2.374   4.356  0.00  0.00    -0.153 OA
ATOM     28  O   UNL     1       0.633  -2.864   5.545  0.00  0.00    -0.153 OA
BRANCH  26  29
ATOM     29  N   UNL     1      -0.474  -0.672   5.824  0.00  0.00    -0.193 NA
ATOM     30  C   UNL     1      -1.305   0.444   5.365  0.00  0.00    +0.127 C 
ATOM     31  H   UNL     1      -0.071  -0.646   6.706  0.00  0.00    +0.148 HD
ENDBRANCH  26  29
ENDBRANCH  24  26
ENDBRANCH  19  20
ENDBRANCH   1  19
TORSDOF 7
