REMARK  Name = ZINC35166976
REMARK  12 active torsions:
REMARK  status: ('A' for Active; 'I' for Inactive)
REMARK    1  A    between atoms: C_1  and  C_2
REMARK    2  A    between atoms: C_3  and  C_19
REMARK    3  A    between atoms: C_4  and  C_10
REMARK    4  A    between atoms: C_13  and  O_18
REMARK    5  A    between atoms: C_14  and  O_16
REMARK    6  A    between atoms: O_16  and  C_17
REMARK    7  A    between atoms: N_21  and  N_22
REMARK    8  A    between atoms: C_23  and  C_24
REMARK    9  A    between atoms: C_27  and  O_32
REMARK   10  A    between atoms: C_29  and  O_30
REMARK   11  A    between atoms: O_30  and  C_31
REMARK   12  A    between atoms: O_32  and  C_33
REMARK                            x       y       z     vdW  Elec       q    Type
REMARK                         _______ _______ _______ _____ _____    ______ ____
ROOT
ATOM      1  C   UNL     1      -0.930   1.525   0.089  0.00  0.00    +0.061 C 
ATOM      2  C   UNL     1      -0.535   0.075   0.202  0.00  0.00    +0.017 C 
ATOM      3  C   UNL     1      -1.484  -0.881   0.117  0.00  0.00    +0.057 C 
ATOM      4  C   UNL     1      -1.043  -2.325   0.235  0.00  0.00    +0.139 C 
ATOM      5  N   UNL     1       0.396  -2.570   0.435  0.00  0.00    -0.315 N 
ATOM      6  C   UNL     1       1.224  -1.508   0.500  0.00  0.00    +0.135 C 
ATOM      7  S   UNL     1       2.898  -1.777   0.733  0.00  0.00    -0.019 S 
ATOM      8  N   UNL     1       0.779  -0.250   0.384  0.00  0.00    -0.300 N 
ATOM      9  H   UNL     1       0.739  -3.473   0.519  0.00  0.00    +0.149 HD
ATOM     10  H   UNL     1       1.427   0.470   0.435  0.00  0.00    +0.154 HD
ENDROOT
BRANCH   4  11
ATOM     11  C   UNL     1      -1.784  -2.944   1.393  0.00  0.00    -0.019 A 
ATOM     12  C   UNL     1      -2.750  -3.905   1.159  0.00  0.00    +0.009 A 
ATOM     13  C   UNL     1      -3.432  -4.475   2.217  0.00  0.00    +0.049 A 
ATOM     14  C   UNL     1      -3.148  -4.084   3.516  0.00  0.00    +0.158 A 
ATOM     15  C   UNL     1      -2.175  -3.117   3.751  0.00  0.00    +0.162 A 
ATOM     16  C   UNL     1      -1.492  -2.553   2.686  0.00  0.00    +0.055 A 
BRANCH  15  17
ATOM     17  O   UNL     1      -1.893  -2.731   5.024  0.00  0.00    -0.491 OA
ATOM     18  C   UNL     1      -0.965  -1.656   5.185  0.00  0.00    +0.277 C 
ENDBRANCH  15  17
BRANCH  14  19
ATOM     19  O   UNL     1      -3.819  -4.644   4.558  0.00  0.00    -0.503 OA
ATOM     20  H   UNL     1      -3.398  -5.438   4.915  0.00  0.00    +0.292 HD
ENDBRANCH  14  19
ENDBRANCH   4  11
BRANCH   3  21
ATOM     21  C   UNL     1      -2.846  -0.545  -0.077  0.00  0.00    +0.263 C 
ATOM     22  O   UNL     1      -3.196   0.622  -0.046  0.00  0.00    -0.269 OA
ATOM     23  N   UNL     1      -3.755  -1.515  -0.295  0.00  0.00    -0.203 N 
ATOM     24  H   UNL     1      -3.489  -2.447  -0.253  0.00  0.00    +0.178 HD
BRANCH  23  25
ATOM     25  N   UNL     1      -5.084  -1.179  -0.582  0.00  0.00    -0.187 NA
ATOM     26  C   UNL     1      -5.980  -2.111  -0.696  0.00  0.00    +0.142 C 
BRANCH  26  27
ATOM     27  C   UNL     1      -7.353  -1.768  -1.106  0.00  0.00    +0.036 A 
ATOM     28  C   UNL     1      -8.321  -2.769  -1.224  0.00  0.00    +0.016 A 
ATOM     29  C   UNL     1      -9.604  -2.444  -1.608  0.00  0.00    +0.046 A 
ATOM     30  C   UNL     1      -9.939  -1.123  -1.879  0.00  0.00    +0.124 A 
ATOM     31  C   UNL     1      -8.985  -0.122  -1.766  0.00  0.00    +0.091 A 
ATOM     32  C   UNL     1      -7.695  -0.435  -1.375  0.00  0.00    +0.132 A 
BRANCH  32  33
ATOM     33  O   UNL     1      -6.762   0.544  -1.257  0.00  0.00    -0.494 OA
ATOM     34  C   UNL     1      -7.182   1.879  -1.546  0.00  0.00    +0.277 C 
ENDBRANCH  32  33
BRANCH  30  35
ATOM     35  O   UNL     1     -11.205  -0.810  -2.258  0.00  0.00    -0.495 OA
ATOM     36  C   UNL     1     -12.138  -1.889  -2.356  0.00  0.00    +0.277 C 
ENDBRANCH  30  35
ENDBRANCH  26  27
ENDBRANCH  23  25
ENDBRANCH   3  21
TORSDOF 8
