REMARK  Name = ZINC13000689
REMARK  11 active torsions:
REMARK  status: ('A' for Active; 'I' for Inactive)
REMARK    1  A    between atoms: C_1  and  C_2
REMARK    2  A    between atoms: C_3  and  C_12
REMARK    3  A    between atoms: C_4  and  C_11
REMARK    4  A    between atoms: N_5  and  C_7
REMARK    5  A    between atoms: C_7  and  C_8
REMARK    6  A    between atoms: C_8  and  C_9
REMARK    7  A    between atoms: C_8  and  C_10
REMARK    8  A    between atoms: C_12  and  C_13
REMARK    9  A    between atoms: N_18  and  S_21
REMARK   10  A    between atoms: S_21  and  C_24
REMARK   11  A    between atoms: C_27  and  N_30
REMARK                            x       y       z     vdW  Elec       q    Type
REMARK                         _______ _______ _______ _____ _____    ______ ____
ROOT
ATOM      1  C   UNL     1       1.183  -2.891  -5.595  0.00  0.00    +0.220 C 
ATOM      2  O   UNL     1       2.230  -3.054  -6.185  0.00  0.00    -0.275 OA
ATOM      3  N   UNL     1       1.190  -2.498  -4.306  0.00  0.00    -0.299 N 
ATOM      4  C   UNL     1       2.459  -2.262  -3.603  0.00  0.00    +0.125 C 
ATOM      5  C   UNL     1       2.484  -3.123  -2.334  0.00  0.00    +0.128 C 
ATOM      6  N   UNL     1       1.223  -2.923  -1.606  0.00  0.00    -0.174 NA
ATOM      7  C   UNL     1      -0.046  -3.164  -2.307  0.00  0.00    +0.128 C 
ATOM      8  C   UNL     1      -0.070  -2.297  -3.578  0.00  0.00    +0.125 C 
ENDROOT
BRANCH   6   9
ATOM      9  S   UNL     1       1.232  -2.441  -0.022  0.00  0.00    +0.061 S 
ATOM     10  O   UNL     1       2.489  -2.832   0.515  0.00  0.00    -0.153 OA
ATOM     11  O   UNL     1      -0.002  -2.866   0.539  0.00  0.00    -0.153 OA
BRANCH   9  12
ATOM     12  C   UNL     1       1.208  -0.679  -0.013  0.00  0.00    +0.106 A 
ATOM     13  C   UNL     1       0.002  -0.004   0.002  0.00  0.00    +0.031 A 
ATOM     14  C   UNL     1      -0.017   1.378   0.010  0.00  0.00    +0.034 A 
ATOM     15  C   UNL     1       1.171   2.086   0.002  0.00  0.00    +0.126 A 
ATOM     16  C   UNL     1       2.377   1.411  -0.015  0.00  0.00    +0.034 A 
ATOM     17  C   UNL     1       2.396   0.029  -0.021  0.00  0.00    +0.031 A 
BRANCH  15  18
ATOM     18  N   UNL     1       1.151   3.566   0.010  0.00  0.00    +0.056 N 
ATOM     19  O   UNL     1       0.088   4.160   0.023  0.00  0.00    -0.126 OA
ATOM     20  O   UNL     1       2.197   4.189   0.003  0.00  0.00    -0.126 OA
ENDBRANCH  15  18
ENDBRANCH   9  12
ENDBRANCH   6   9
BRANCH   1  21
ATOM     21  C   UNL     1      -0.126  -3.129  -6.303  0.00  0.00    +0.134 C 
BRANCH  21  24
ATOM     22  C   UNL     1       0.150  -1.207  -8.808  0.00  0.00    +0.068 C 
ATOM     23  C   UNL     1       0.263  -2.710  -8.829  0.00  0.00    +0.064 A 
ATOM     24  C   UNL     1       0.141  -3.557  -7.723  0.00  0.00    +0.005 A 
ATOM     25  C   UNL     1       0.300  -4.830  -8.153  0.00  0.00    +0.040 A 
ATOM     26  N   UNL     1       0.520  -4.789  -9.484  0.00  0.00    -0.268 N 
ATOM     27  N   UNL     1       0.496  -3.447  -9.884  0.00  0.00    -0.176 NA
ATOM     28  C   UNL     1       0.241  -6.071  -7.300  0.00  0.00    +0.065 C 
BRANCH  26  29
ATOM     29  C   UNL     1       0.744  -5.945 -10.356  0.00  0.00    +0.146 C 
BRANCH  29  30
ATOM     30  C   UNL     1      -0.597  -6.443 -10.898  0.00  0.00    +0.004 C 
ATOM     31  C   UNL     1      -1.214  -5.370 -11.798  0.00  0.00    +0.009 C 
ATOM     32  C   UNL     1      -0.377  -7.722 -11.707  0.00  0.00    +0.009 C 
ENDBRANCH  29  30
ENDBRANCH  26  29
ENDBRANCH  21  24
ENDBRANCH   1  21
TORSDOF 7
