REMARK  Name = ZINC64636248
REMARK  8 active torsions:
REMARK  status: ('A' for Active; 'I' for Inactive)
REMARK    1  A    between atoms: C_1  and  O_2
REMARK    2  A    between atoms: O_2  and  C_3
REMARK    3  A    between atoms: C_3  and  C_4
REMARK    4  A    between atoms: C_7  and  C_9
REMARK    5  A    between atoms: C_9  and  N_10
REMARK    6  A    between atoms: C_23  and  C_25
REMARK    7  A    between atoms: C_28  and  O_32
REMARK    8  A    between atoms: O_32  and  C_33
REMARK                            x       y       z     vdW  Elec       q    Type
REMARK                         _______ _______ _______ _____ _____    ______ ____
ROOT
ATOM      1  N   UNL     1      -2.264  -5.890  -1.911  0.00  0.00    -0.286 NA
ATOM      2  C   UNL     1      -3.107  -4.843  -2.495  0.00  0.00    +0.090 C 
ATOM      3  C   UNL     1      -4.558  -5.340  -2.629  0.00  0.00    +0.049 C 
ATOM      4  C   UNL     1      -4.481  -6.679  -3.320  0.00  0.00    -0.035 C 
ATOM      5  C   UNL     1      -5.122  -7.184  -4.363  0.00  0.00    -0.001 A 
ATOM      6  C   UNL     1      -6.252  -6.677  -5.161  0.00  0.00    +0.010 A 
ATOM      7  C   UNL     1      -6.649  -7.458  -6.200  0.00  0.00    +0.001 A 
ATOM      8  C   UNL     1      -6.045  -8.676  -6.523  0.00  0.00    +0.002 A 
ATOM      9  C   UNL     1      -5.009  -9.223  -5.838  0.00  0.00    +0.026 A 
ATOM     10  C   UNL     1      -4.508  -8.500  -4.717  0.00  0.00    +0.043 A 
ATOM     11  N   UNL     1      -3.559  -8.799  -3.879  0.00  0.00    -0.376 N 
ATOM     12  C   UNL     1      -3.505  -7.757  -2.857  0.00  0.00    +0.128 C 
ATOM     13  C   UNL     1      -2.135  -7.080  -2.768  0.00  0.00    +0.116 C 
ATOM     14  H   UNL     1      -2.986  -9.580  -3.925  0.00  0.00    +0.160 HD
ENDROOT
BRANCH  13  15
ATOM     15  C   UNL     1      -1.135  -8.033  -2.166  0.00  0.00    +0.007 A 
ATOM     16  C   UNL     1      -0.157  -8.600  -2.962  0.00  0.00    +0.011 A 
ATOM     17  C   UNL     1       0.761  -9.474  -2.413  0.00  0.00    +0.046 A 
ATOM     18  C   UNL     1       0.702  -9.784  -1.062  0.00  0.00    +0.123 A 
ATOM     19  C   UNL     1      -0.280  -9.216  -0.264  0.00  0.00    +0.084 A 
ATOM     20  C   UNL     1      -1.194  -8.336  -0.816  0.00  0.00    +0.132 A 
ATOM     21  F   UNL     1      -2.148  -7.777  -0.039  0.00  0.00    -0.205 F 
BRANCH  18  22
ATOM     22  O   UNL     1       1.604 -10.645  -0.521  0.00  0.00    -0.495 OA
ATOM     23  C   UNL     1       1.483 -10.918   0.877  0.00  0.00    +0.277 C 
ENDBRANCH  18  22
ENDBRANCH  13  15
BRANCH   1  24
ATOM     24  C   UNL     1      -0.944  -5.360  -1.544  0.00  0.00    +0.159 C 
BRANCH  24  28
ATOM     25  C   UNL     1      -1.379  -2.552   0.749  0.00  0.00    +0.131 A 
ATOM     26  C   UNL     1      -1.214  -3.538   1.648  0.00  0.00    +0.047 A 
ATOM     27  C   UNL     1      -1.028  -4.733   0.916  0.00  0.00    +0.046 A 
ATOM     28  C   UNL     1      -1.090  -4.405  -0.387  0.00  0.00    +0.119 A 
ATOM     29  O   UNL     1      -1.308  -3.083  -0.482  0.00  0.00    -0.461 OA
BRANCH  25  30
ATOM     30  C   UNL     1      -1.609  -1.097   1.069  0.00  0.00    +0.233 C 
BRANCH  30  32
ATOM     31  C   UNL     1      -0.459   0.970   1.455  0.00  0.00    +0.194 C 
ATOM     32  O   UNL     1      -0.352  -0.423   1.154  0.00  0.00    -0.375 OA
ENDBRANCH  30  32
ENDBRANCH  25  30
ENDBRANCH  24  28
ENDBRANCH   1  24
TORSDOF 6
