REMARK  Name = ZINC17520092
REMARK  10 active torsions:
REMARK  status: ('A' for Active; 'I' for Inactive)
REMARK    1  A    between atoms: C_1  and  C_2
REMARK    2  A    between atoms: C_3  and  C_24
REMARK    3  A    between atoms: C_4  and  C_14
REMARK    4  A    between atoms: C_24  and  O_26
REMARK    5  A    between atoms: O_26  and  C_27
REMARK    6  A    between atoms: C_27  and  C_28
REMARK    7  A    between atoms: C_28  and  O_29
REMARK    8  A    between atoms: O_29  and  C_30
REMARK    9  A    between atoms: C_30  and  C_31
REMARK   10  A    between atoms: C_30  and  C_32
REMARK                            x       y       z     vdW  Elec       q    Type
REMARK                         _______ _______ _______ _____ _____    ______ ____
ROOT
ATOM      1  C   UNL     1      -0.018   1.503   0.010  0.00  0.00    +0.061 C 
ATOM      2  C   UNL     1       0.002  -0.004   0.002  0.00  0.00    +0.016 C 
ATOM      3  C   UNL     1      -1.155  -0.688   0.004  0.00  0.00    +0.065 C 
ATOM      4  C   UNL     1      -1.174  -2.188   0.005  0.00  0.00    +0.093 C 
ATOM      5  C   UNL     1       0.160  -2.746  -0.422  0.00  0.00    +0.024 C 
ATOM      6  C   UNL     1       1.267  -1.974  -0.410  0.00  0.00    +0.015 C 
ATOM      7  N   UNL     1       1.198  -0.667  -0.013  0.00  0.00    -0.321 N 
ATOM      8  C   UNL     1       2.604  -2.524  -0.842  0.00  0.00    +0.051 C 
ATOM      9  C   UNL     1       2.670  -4.019  -0.526  0.00  0.00    +0.014 C 
ATOM     10  C   UNL     1       1.517  -4.721  -1.252  0.00  0.00    +0.080 C 
ATOM     11  C   UNL     1       0.218  -4.091  -0.830  0.00  0.00    +0.162 C 
ATOM     12  O   UNL     1      -0.799  -4.755  -0.843  0.00  0.00    -0.292 OA
ATOM     13  H   UNL     1       2.005  -0.207   0.265  0.00  0.00    +0.152 HD
ENDROOT
BRANCH   4  14
ATOM     14  C   UNL     1      -1.492  -2.678   1.395  0.00  0.00    -0.018 A 
ATOM     15  C   UNL     1      -0.664  -2.343   2.450  0.00  0.00    +0.055 A 
ATOM     16  C   UNL     1      -0.954  -2.792   3.728  0.00  0.00    +0.167 A 
ATOM     17  C   UNL     1      -2.081  -3.581   3.946  0.00  0.00    +0.167 A 
ATOM     18  C   UNL     1      -2.906  -3.913   2.885  0.00  0.00    +0.065 A 
ATOM     19  C   UNL     1      -2.614  -3.456   1.612  0.00  0.00    +0.026 A 
ATOM     20 BR   UNL     1      -3.746  -3.904   0.165  0.00  0.00    -0.050 Br
ATOM     21  O   UNL     1      -2.145  -3.891   5.274  0.00  0.00    -0.453 OA
ATOM     22  C   UNL     1      -0.829  -3.627   5.795  0.00  0.00    +0.466 C 
ATOM     23  O   UNL     1      -0.312  -2.608   4.919  0.00  0.00    -0.453 OA
ENDBRANCH   4  14
BRANCH   3  24
ATOM     24  C   UNL     1      -2.380   0.021   0.005  0.00  0.00    +0.338 C 
ATOM     25  O   UNL     1      -2.378   1.238   0.004  0.00  0.00    -0.245 OA
BRANCH  24  26
ATOM     26  O   UNL     1      -3.549  -0.652   0.007  0.00  0.00    -0.459 OA
BRANCH  26  27
ATOM     27  C   UNL     1      -4.747   0.128   0.008  0.00  0.00    +0.260 C 
BRANCH  27  28
ATOM     28  C   UNL     1      -5.961  -0.803   0.010  0.00  0.00    +0.201 C 
BRANCH  28  29
ATOM     29  O   UNL     1      -5.991  -1.544   1.232  0.00  0.00    -0.374 OA
BRANCH  29  30
ATOM     30  C   UNL     1      -7.093  -2.448   1.336  0.00  0.00    +0.112 C 
ATOM     31  C   UNL     1      -6.692  -3.809   0.763  0.00  0.00    +0.037 C 
ATOM     32  C   UNL     1      -7.483  -2.609   2.806  0.00  0.00    +0.037 C 
ENDBRANCH  29  30
ENDBRANCH  28  29
ENDBRANCH  27  28
ENDBRANCH  26  27
ENDBRANCH  24  26
ENDBRANCH   3  24
TORSDOF 7
