REMARK  Name = ZINC38120883
REMARK  4 active torsions:
REMARK  status: ('A' for Active; 'I' for Inactive)
REMARK    1  A    between atoms: C_2  and  C_13
REMARK    2  A    between atoms: C_13  and  C_15
REMARK    3  A    between atoms: C_13  and  N_17
REMARK    4  A    between atoms: C_15  and  O_16
REMARK                            x       y       z     vdW  Elec       q    Type
REMARK                         _______ _______ _______ _____ _____    ______ ____
ROOT
ATOM      1  C   UNL     1      -0.017   1.380   0.010  0.00  0.00    +0.054 A 
ATOM      2  C   UNL     1       1.175   2.083   0.002  0.00  0.00    -0.023 A 
ATOM      3  C   UNL     1       2.381   1.407  -0.013  0.00  0.00    +0.024 A 
ATOM      4  C   UNL     1       2.404   0.023  -0.022  0.00  0.00    +0.063 A 
ATOM      5  C   UNL     1       1.212  -0.683  -0.014  0.00  0.00    +0.176 A 
ATOM      6  C   UNL     1       0.002  -0.004   0.002  0.00  0.00    +0.163 A 
ATOM      7  O   UNL     1      -1.167  -0.709   0.010  0.00  0.00    -0.488 OA
ATOM      8  C   UNL     1      -1.468  -1.433  -1.184  0.00  0.00    +0.232 C 
ATOM      9  C   UNL     1      -0.780  -2.789  -1.181  0.00  0.00    +0.082 C 
ATOM     10  C   UNL     1       0.736  -2.670  -1.212  0.00  0.00    +0.232 C 
ATOM     11  O   UNL     1       1.220  -2.048  -0.021  0.00  0.00    -0.487 OA
ATOM     12 BR   UNL     1       4.054  -0.900  -0.044  0.00  0.00    -0.046 Br
ENDROOT
BRANCH   2  13
ATOM     13  C   UNL     1       1.159   3.590   0.010  0.00  0.00    +0.112 C 
BRANCH  13  14
ATOM     14  N   UNL     1       2.206   4.096  -0.887  0.00  0.00    -0.297 NA
ATOM     15  C   UNL     1       2.040   3.559  -2.246  0.00  0.00    +0.066 C 
ATOM     16  C   UNL     1       3.182   4.061  -3.132  0.00  0.00    -0.067 C 
ATOM     17  N   UNL     1       3.169   5.529  -3.163  0.00  0.00    +0.381 N 
ATOM     18  C   UNL     1       3.360   6.051  -1.803  0.00  0.00    -0.067 C 
ATOM     19  C   UNL     1       2.220   5.565  -0.905  0.00  0.00    +0.066 C 
ATOM     20  H   UNL     1       3.914   5.860  -3.757  0.00  0.00    -0.086 HD
ATOM     21  H   UNL     1       2.283   5.850  -3.524  0.00  0.00    -0.086 HD
ENDBRANCH  13  14
BRANCH  13  22
ATOM     22  C   UNL     1       1.418   4.095   1.431  0.00  0.00    +0.179 C 
BRANCH  22  23
ATOM     23  O   UNL     1       2.638   3.536   1.921  0.00  0.00    -0.393 OA
ATOM     24  H   UNL     1       2.865   3.813   2.819  0.00  0.00    +0.209 HD
ENDBRANCH  22  23
ENDBRANCH  13  22
ENDBRANCH   2  13
TORSDOF 4
