REMARK  Name = ZINC13500133
REMARK  14 active torsions:
REMARK  status: ('A' for Active; 'I' for Inactive)
REMARK    1  A    between atoms: C_1  and  C_2
REMARK    2  A    between atoms: C_2  and  C_3
REMARK    3  A    between atoms: C_3  and  C_4
REMARK    4  A    between atoms: C_4  and  C_6
REMARK    5  A    between atoms: C_4  and  N_71
REMARK    6  A    between atoms: N_10  and  C_11
REMARK    7  A    between atoms: C_11  and  C_12
REMARK    8  A    between atoms: C_11  and  C_13
REMARK    9  A    between atoms: C_11  and  C_14
REMARK   10  A    between atoms: C_14  and  C_15
REMARK   11  A    between atoms: C_16  and  C_17
REMARK   12  A    between atoms: C_16  and  N_71
REMARK   13  A    between atoms: C_21  and  C_29
REMARK   14  A    between atoms: C_30  and  N_71
REMARK                            x       y       z     vdW  Elec       q    Type
REMARK                         _______ _______ _______ _____ _____    ______ ____
ROOT
ATOM      1  N   UNL     1       2.438   4.326   1.182  0.00  0.00    +0.391 N 
ATOM      2  H   UNL     1       1.738   3.576   1.214  0.00  0.00    -0.080 HD
ENDROOT
BRANCH   1   3
ATOM      3  C   UNL     1       3.503   4.030   2.164  0.00  0.00    -0.067 C 
ATOM      4  C   UNL     1       3.631   2.501   2.325  0.00  0.00    -0.015 C 
ATOM      5  C   UNL     1       3.915   2.301   3.835  0.00  0.00    -0.002 C 
ATOM      6  C   UNL     1       3.019   3.377   4.497  0.00  0.00    -0.002 C 
ATOM      7  C   UNL     1       3.115   4.587   3.545  0.00  0.00    -0.015 C 
ENDBRANCH   1   3
BRANCH   1   8
ATOM      8  C   UNL     1       1.784   5.609   1.518  0.00  0.00    +0.003 C 
BRANCH   8   9
ATOM      9  C   UNL     1       2.816   6.658   1.842  0.00  0.00    +0.139 A 
ATOM     10  N   UNL     1       4.031   6.738   1.356  0.00  0.00    -0.115 NA
ATOM     11  N   UNL     1       4.600   7.770   1.875  0.00  0.00    -0.023 NA
ATOM     12  N   UNL     1       3.780   8.351   2.681  0.00  0.00    -0.043 NA
ATOM     13  N   UNL     1       2.668   7.698   2.683  0.00  0.00    -0.225 N 
BRANCH  13  14
ATOM     14  C   UNL     1       1.469   8.025   3.459  0.00  0.00    +0.061 C 
ATOM     15  C   UNL     1       0.259   8.092   2.525  0.00  0.00    +0.036 C 
ATOM     16  C   UNL     1       1.236   6.946   4.518  0.00  0.00    +0.036 C 
BRANCH  14  17
ATOM     17  C   UNL     1       1.659   9.380   4.145  0.00  0.00    +0.026 C 
ATOM     18  C   UNL     1       0.407   9.721   4.955  0.00  0.00    +0.006 C 
ENDBRANCH  14  17
ENDBRANCH  13  14
ENDBRANCH   8   9
BRANCH   8  19
ATOM     19  C   UNL     1       0.944   6.071   0.326  0.00  0.00    -0.008 C 
BRANCH  19  21
ATOM     20  C   UNL     1      -0.961   5.472  -1.175  0.00  0.00    +0.004 C 
ATOM     21  C   UNL     1      -0.197   5.079   0.091  0.00  0.00    -0.005 C 
ENDBRANCH  19  21
ENDBRANCH   8  19
ENDBRANCH   1   8
BRANCH   1  22
ATOM     22  C   UNL     1       3.010   4.392  -0.179  0.00  0.00    -0.036 C 
BRANCH  22  23
ATOM     23  C   UNL     1       3.560   3.036  -0.542  0.00  0.00    +0.001 A 
ATOM     24  C   UNL     1       2.774   2.139  -1.188  0.00  0.00    +0.017 A 
ATOM     25  C   UNL     1       3.338   0.832  -1.527  0.00  0.00    -0.001 A 
ATOM     26  C   UNL     1       2.576  -0.134  -2.193  0.00  0.00    +0.013 A 
ATOM     27  C   UNL     1       3.132  -1.345  -2.495  0.00  0.00    -0.050 A 
ATOM     28  C   UNL     1       4.447  -1.625  -2.147  0.00  0.00    +0.005 A 
ATOM     29  C   UNL     1       5.216  -0.689  -1.491  0.00  0.00    +0.026 A 
ATOM     30  C   UNL     1       4.671   0.551  -1.173  0.00  0.00    +0.049 A 
ATOM     31  N   UNL     1       5.418   1.507  -0.517  0.00  0.00    -0.322 N 
ATOM     32  H   UNL     1       6.336   1.312  -0.273  0.00  0.00    +0.169 HD
ATOM     33  C   UNL     1       4.891   2.705  -0.210  0.00  0.00    +0.251 A 
ATOM     34  O   UNL     1       5.580   3.526   0.370  0.00  0.00    -0.268 OA
ATOM     35  C   UNL     1       2.311  -2.385  -3.212  0.00  0.00    +0.044 C 
ENDBRANCH  22  23
ENDBRANCH   1  22
TORSDOF 9
