REMARK  Name = ZINC35665432
REMARK  17 active torsions:
REMARK  status: ('A' for Active; 'I' for Inactive)
REMARK    1  A    between atoms: C_1  and  C_2
REMARK    2  A    between atoms: C_2  and  C_3
REMARK    3  A    between atoms: C_3  and  N_4
REMARK    4  A    between atoms: N_10  and  C_15
REMARK    5  A    between atoms: C_12  and  C_14
REMARK    6  A    between atoms: C_15  and  C_16
REMARK    7  A    between atoms: C_17  and  C_37
REMARK    8  A    between atoms: C_18  and  C_27
REMARK    9  A    between atoms: N_23  and  C_24
REMARK   10  A    between atoms: C_24  and  C_25
REMARK   11  A    between atoms: C_30  and  C_33
REMARK   12  A    between atoms: C_33  and  C_34
REMARK   13  A    between atoms: C_33  and  C_35
REMARK   14  A    between atoms: C_33  and  C_36
REMARK   15  A    between atoms: C_37  and  O_39
REMARK   16  A    between atoms: O_39  and  C_40
REMARK   17  A    between atoms: C_40  and  C_41
REMARK                            x       y       z     vdW  Elec       q    Type
REMARK                         _______ _______ _______ _____ _____    ______ ____
ROOT
ATOM      1  C   UNL     1       0.115  -8.628  -1.902  0.00  0.00    +0.041 C 
ATOM      2  C   UNL     1      -1.165  -8.735  -1.486  0.00  0.00    +0.080 C 
ATOM      3  C   UNL     1      -1.450  -9.645  -0.308  0.00  0.00    +0.144 C 
ATOM      4  N   UNL     1      -0.299 -10.344   0.289  0.00  0.00    -0.288 N 
ATOM      5  C   UNL     1       0.922 -10.135  -0.240  0.00  0.00    +0.307 C 
ATOM      6  O   UNL     1       1.879 -10.707   0.246  0.00  0.00    -0.252 OA
ATOM      7  N   UNL     1       1.117  -9.322  -1.286  0.00  0.00    -0.254 N 
ATOM      8  H   UNL     1      -0.418 -10.940   1.045  0.00  0.00    +0.151 HD
ENDROOT
BRANCH   3   9
ATOM      9  C   UNL     1      -2.102  -8.819   0.770  0.00  0.00    -0.022 A 
ATOM     10  C   UNL     1      -1.329  -8.018   1.590  0.00  0.00    +0.006 A 
ATOM     11  C   UNL     1      -1.927  -7.261   2.580  0.00  0.00    +0.004 A 
ATOM     12  C   UNL     1      -3.298  -7.304   2.749  0.00  0.00    -0.042 A 
ATOM     13  C   UNL     1      -4.071  -8.104   1.929  0.00  0.00    +0.004 A 
ATOM     14  C   UNL     1      -3.474  -8.858   0.937  0.00  0.00    +0.006 A 
BRANCH  12  15
ATOM     15  C   UNL     1      -3.950  -6.479   3.829  0.00  0.00    -0.013 C 
ATOM     16  C   UNL     1      -3.654  -4.997   3.588  0.00  0.00    +0.015 C 
ATOM     17  C   UNL     1      -5.463  -6.708   3.803  0.00  0.00    +0.015 C 
ATOM     18  C   UNL     1      -3.395  -6.894   5.193  0.00  0.00    +0.015 C 
ENDBRANCH  12  15
ENDBRANCH   3   9
BRANCH   2  19
ATOM     19  C   UNL     1      -2.204  -8.020  -2.126  0.00  0.00    +0.339 C 
ATOM     20  O   UNL     1      -2.584  -6.958  -1.669  0.00  0.00    -0.245 OA
BRANCH  19  21
ATOM     21  O   UNL     1      -2.776  -8.517  -3.243  0.00  0.00    -0.462 OA
BRANCH  21  22
ATOM     22  C   UNL     1      -3.819  -7.742  -3.837  0.00  0.00    +0.229 C 
ATOM     23  C   UNL     1      -4.340  -8.460  -5.084  0.00  0.00    +0.048 C 
ENDBRANCH  21  22
ENDBRANCH  19  21
ENDBRANCH   2  19
BRANCH   1  24
ATOM     24  C   UNL     1       0.443  -7.733  -3.070  0.00  0.00    +0.136 C 
BRANCH  24  31
ATOM     25  N   UNL     1       1.572  -1.902  -1.271  0.00  0.00    -0.299 N 
ATOM     26  C   UNL     1       2.107  -2.631  -2.271  0.00  0.00    +0.303 C 
ATOM     27  O   UNL     1       2.594  -2.074  -3.236  0.00  0.00    -0.253 OA
ATOM     28  N   UNL     1       2.101  -3.977  -2.202  0.00  0.00    -0.280 N 
ATOM     29  C   UNL     1       1.414  -4.673  -1.104  0.00  0.00    +0.125 C 
ATOM     30  C   UNL     1       0.485  -5.733  -1.706  0.00  0.00    +0.104 C 
ATOM     31  N   UNL     1       1.256  -6.601  -2.606  0.00  0.00    -0.294 NA
ATOM     32  C   UNL     1       1.799  -5.843  -3.741  0.00  0.00    +0.107 C 
ATOM     33  C   UNL     1       2.777  -4.788  -3.226  0.00  0.00    +0.088 C 
ATOM     34  C   UNL     1       3.218  -3.891  -4.384  0.00  0.00    +0.029 C 
ATOM     35  H   UNL     1       1.120  -2.346  -0.537  0.00  0.00    +0.150 HD
BRANCH  25  36
ATOM     36  C   UNL     1       1.675  -0.441  -1.294  0.00  0.00    +0.105 C 
BRANCH  36  38
ATOM     37  C   UNL     1       1.099   1.663  -0.076  0.00  0.00    +0.005 C 
ATOM     38  C   UNL     1       0.992   0.137  -0.053  0.00  0.00    +0.015 C 
ENDBRANCH  36  38
ENDBRANCH  25  36
ENDBRANCH  24  31
ENDBRANCH   1  24
BRANCH   7  39
ATOM     39  C   UNL     1       2.482  -9.164  -1.795  0.00  0.00    +0.141 C 
BRANCH  39  40
ATOM     40  C   UNL     1       3.155  -8.022  -1.078  0.00  0.00    -0.015 C 
ATOM     41  C   UNL     1       4.298  -8.215  -0.467  0.00  0.00    +0.005 C 
ENDBRANCH  39  40
ENDBRANCH   7  39
TORSDOF 11
