REMARK  Name = ZINC63589356
REMARK  8 active torsions:
REMARK  status: ('A' for Active; 'I' for Inactive)
REMARK    1  A    between atoms: C_1  and  C_2
REMARK    2  A    between atoms: C_2  and  C_3
REMARK    3  A    between atoms: C_2  and  N_13
REMARK    4  A    between atoms: C_5  and  C_8
REMARK    5  A    between atoms: C_16  and  C_19
REMARK    6  A    between atoms: C_16  and  C_25
REMARK    7  A    between atoms: C_25  and  O_27
REMARK    8  A    between atoms: O_27  and  C_28
REMARK                            x       y       z     vdW  Elec       q    Type
REMARK                         _______ _______ _______ _____ _____    ______ ____
ROOT
ATOM      1  N   UNL     1       0.690  -0.478  -1.207  0.00  0.00    +0.387 N 
ATOM      2  C   UNL     1       2.064   0.038  -1.220  0.00  0.00    -0.076 C 
ATOM      3  C   UNL     1       2.759  -0.385  -2.516  0.00  0.00    +0.004 C 
ATOM      4  C   UNL     1       2.785  -1.914  -2.599  0.00  0.00    +0.089 C 
ATOM      5  C   UNL     1       1.352  -2.445  -2.509  0.00  0.00    +0.004 C 
ATOM      6  C   UNL     1       0.709  -1.946  -1.213  0.00  0.00    -0.076 C 
ATOM      7  H   UNL     1       0.200  -0.145  -2.023  0.00  0.00    -0.081 HD
ENDROOT
BRANCH   4   8
ATOM      8  C   UNL     1       3.398  -2.337  -3.909  0.00  0.00    -0.031 A 
ATOM      9  C   UNL     1       3.836  -1.382  -4.808  0.00  0.00    +0.005 A 
ATOM     10  C   UNL     1       4.398  -1.770  -6.009  0.00  0.00    +0.000 A 
ATOM     11  C   UNL     1       4.524  -3.114  -6.312  0.00  0.00    +0.000 A 
ATOM     12  C   UNL     1       4.087  -4.068  -5.412  0.00  0.00    +0.000 A 
ATOM     13  C   UNL     1       3.529  -3.680  -4.209  0.00  0.00    +0.005 A 
ENDBRANCH   4   8
BRANCH   1  15
ATOM     14  C   UNL     1      -0.019   1.526   0.010  0.00  0.00    -0.003 C 
ATOM     15  C   UNL     1       0.002  -0.004   0.002  0.00  0.00    +0.019 C 
BRANCH  15  16
ATOM     16  C   UNL     1      -1.412  -0.526   0.013  0.00  0.00    +0.214 A 
ATOM     17  N   UNL     1      -2.022  -1.046   1.038  0.00  0.00    -0.192 NA
ATOM     18  C   UNL     1      -3.274  -1.406   0.696  0.00  0.00    +0.209 A 
ATOM     19  N   UNL     1      -3.463  -1.110  -0.569  0.00  0.00    -0.056 NA
ATOM     20  O   UNL     1      -2.253  -0.526  -1.030  0.00  0.00    -0.339 OA
BRANCH  18  21
ATOM     21  C   UNL     1      -4.268  -2.030   1.593  0.00  0.00    +0.060 A 
ATOM     22  C   UNL     1      -5.550  -2.427   1.318  0.00  0.00    +0.019 A 
ATOM     23  C   UNL     1      -6.298  -2.993   2.325  0.00  0.00    +0.008 A 
ATOM     24  C   UNL     1      -5.746  -3.140   3.558  0.00  0.00    +0.046 A 
ATOM     25  S   UNL     1      -4.108  -2.471   3.316  0.00  0.00    -0.093 S 
ENDBRANCH  18  21
ENDBRANCH  15  16
ENDBRANCH   1  15
BRANCH   4  26
ATOM     26  C   UNL     1       3.600  -2.466  -1.457  0.00  0.00    +0.317 C 
ATOM     27  O   UNL     1       4.108  -1.715  -0.659  0.00  0.00    -0.250 OA
BRANCH  26  28
ATOM     28  O   UNL     1       3.761  -3.793  -1.328  0.00  0.00    -0.467 OA
ATOM     29  C   UNL     1       4.545  -4.246  -0.223  0.00  0.00    +0.280 C 
ENDBRANCH  26  28
ENDBRANCH   4  26
TORSDOF 6
