REMARK  Name = ZINC12856973
REMARK  7 active torsions:
REMARK  status: ('A' for Active; 'I' for Inactive)
REMARK    1  A    between atoms: C_1  and  C_2
REMARK    2  A    between atoms: C_2  and  C_16
REMARK    3  A    between atoms: N_6  and  C_8
REMARK    4  A    between atoms: N_25  and  C_28
REMARK    5  A    between atoms: C_28  and  C_29
REMARK    6  A    between atoms: C_29  and  N_30
REMARK    7  A    between atoms: C_34  and  C_37
REMARK                            x       y       z     vdW  Elec       q    Type
REMARK                         _______ _______ _______ _____ _____    ______ ____
ROOT
ATOM      1  C   UNL     1       0.664  -0.514  -1.252  0.00  0.00    +0.089 C 
ATOM      2  N   UNL     1       0.829  -1.842  -1.581  0.00  0.00    -0.265 N 
ATOM      3  O   UNL     1       1.933  -1.888  -2.509  0.00  0.00    -0.256 OA
ATOM      4  C   UNL     1       1.625  -0.736  -3.311  0.00  0.00    +0.271 C 
ATOM      5  C   UNL     1       1.180   0.254  -2.224  0.00  0.00    +0.079 C 
ATOM      6  H   UNL     1       0.309  -2.593  -1.256  0.00  0.00    +0.194 HD
ATOM      7  C   UNL     1       1.625   1.484  -2.739  0.00  0.00    +0.254 C 
ATOM      8  O   UNL     1       1.133   2.570  -2.494  0.00  0.00    -0.270 OA
ATOM      9  N   UNL     1       2.683   1.270  -3.547  0.00  0.00    -0.234 N 
ATOM     10  C   UNL     1       2.820  -0.043  -3.904  0.00  0.00    +0.258 C 
ATOM     11  O   UNL     1       3.706  -0.547  -4.560  0.00  0.00    -0.272 OA
ENDROOT
BRANCH   1  13
ATOM     12  C   UNL     1      -0.019   1.526   0.010  0.00  0.00    +0.057 C 
ATOM     13  C   UNL     1       0.002  -0.004   0.002  0.00  0.00    +0.143 C 
ATOM     14  N   UNL     1      -1.364  -0.538   0.119  0.00  0.00    -0.274 N 
ATOM     15  C   UNL     1      -1.405  -1.261   1.254  0.00  0.00    +0.322 C 
ATOM     16  O   UNL     1      -2.392  -1.845   1.656  0.00  0.00    -0.251 OA
ATOM     17  N   UNL     1      -0.223  -1.257   1.885  0.00  0.00    -0.185 N 
ATOM     18  N   UNL     1       0.697  -0.518   1.199  0.00  0.00    -0.204 NA
ATOM     19  H   UNL     1      -2.096  -0.396  -0.502  0.00  0.00    +0.152 HD
ATOM     20  H   UNL     1       1.048   0.239   1.766  0.00  0.00    +0.148 HD
BRANCH  17  21
ATOM     21  C   UNL     1       0.034  -1.923   3.090  0.00  0.00    +0.073 A 
ATOM     22  C   UNL     1       0.398  -3.263   3.080  0.00  0.00    +0.028 A 
ATOM     23  C   UNL     1       0.651  -3.918   4.269  0.00  0.00    +0.022 A 
ATOM     24  C   UNL     1       0.542  -3.240   5.471  0.00  0.00    +0.042 A 
ATOM     25  C   UNL     1       0.179  -1.905   5.485  0.00  0.00    +0.042 A 
ATOM     26  C   UNL     1      -0.069  -1.243   4.297  0.00  0.00    +0.065 A 
ATOM     27 CL   UNL     1      -0.516   0.434   4.314  0.00  0.00    -0.082 Cl
ATOM     28 CL   UNL     1       0.861  -4.067   6.964  0.00  0.00    -0.083 Cl
ENDBRANCH  17  21
ENDBRANCH   1  13
BRANCH   9  29
ATOM     29  C   UNL     1       3.588   2.330  -3.999  0.00  0.00    +0.135 C 
BRANCH  29  30
ATOM     30  C   UNL     1       4.741   2.475  -3.003  0.00  0.00    +0.122 C 
BRANCH  30  31
ATOM     31  N   UNL     1       5.646   3.534  -3.455  0.00  0.00    -0.326 N 
ATOM     32  C   UNL     1       6.775   3.850  -2.707  0.00  0.00    +0.137 A 
ATOM     33  C   UNL     1       7.628   4.862  -3.139  0.00  0.00    +0.081 A 
ATOM     34  C   UNL     1       8.748   5.166  -2.384  0.00  0.00    +0.037 A 
ATOM     35  C   UNL     1       8.976   4.446  -1.218  0.00  0.00    +0.074 A 
ATOM     36  C   UNL     1       8.088   3.457  -0.850  0.00  0.00    +0.125 A 
ATOM     37  N   UNL     1       7.025   3.191  -1.587  0.00  0.00    -0.238 NA
ATOM     38 CL   UNL     1       7.294   5.729  -4.605  0.00  0.00    -0.080 Cl
ATOM     39  H   UNL     1       5.459   4.015  -4.276  0.00  0.00    +0.148 HD
BRANCH  35  40
ATOM     40  C   UNL     1      10.182   4.743  -0.365  0.00  0.00    +0.419 C 
ATOM     41  F   UNL     1       9.854   5.719   0.583  0.00  0.00    -0.166 F 
ATOM     42  F   UNL     1      10.588   3.575   0.290  0.00  0.00    -0.166 F 
ATOM     43  F   UNL     1      11.223   5.210  -1.174  0.00  0.00    -0.166 F 
ENDBRANCH  35  40
ENDBRANCH  30  31
ENDBRANCH  29  30
ENDBRANCH   9  29
TORSDOF 6
