REMARK  Name = ZINC53475153
REMARK  7 active torsions:
REMARK  status: ('A' for Active; 'I' for Inactive)
REMARK    1  A    between atoms: C_1  and  C_2
REMARK    2  A    between atoms: C_2  and  C_3
REMARK    3  A    between atoms: C_2  and  C_4
REMARK    4  A    between atoms: C_4  and  C_6
REMARK    5  A    between atoms: C_4  and  N_19
REMARK    6  A    between atoms: N_8  and  C_9
REMARK    7  A    between atoms: C_20  and  C_22
REMARK                            x       y       z     vdW  Elec       q    Type
REMARK                         _______ _______ _______ _____ _____    ______ ____
ROOT
ATOM      1  C   UNL     1       0.718  -0.497  -1.257  0.00  0.00    +0.162 C 
ENDROOT
BRANCH   1   2
ATOM      2  C   UNL     1       0.739  -2.004  -1.265  0.00  0.00    +0.234 C 
ATOM      3  O   UNL     1       0.213  -2.613  -2.173  0.00  0.00    -0.274 OA
ATOM      4  N   UNL     1       1.341  -2.676  -0.264  0.00  0.00    -0.307 N 
ATOM      5  H   UNL     1       1.761  -2.189   0.463  0.00  0.00    +0.149 HD
BRANCH   4   6
ATOM      6  C   UNL     1       1.361  -4.141  -0.272  0.00  0.00    +0.104 C 
ATOM      7  C   UNL     1       2.542  -4.665   0.573  0.00  0.00    +0.032 C 
ATOM      8  C   UNL     1       1.960  -5.953   1.192  0.00  0.00    +0.037 C 
ATOM      9  C   UNL     1       0.464  -5.728   1.242  0.00  0.00    -0.042 A 
ATOM     10  C   UNL     1       0.118  -4.686   0.399  0.00  0.00    -0.024 A 
ATOM     11  C   UNL     1      -1.207  -4.303   0.281  0.00  0.00    +0.006 A 
ATOM     12  C   UNL     1      -2.187  -4.957   1.003  0.00  0.00    +0.000 A 
ATOM     13  C   UNL     1      -1.844  -5.998   1.845  0.00  0.00    +0.000 A 
ATOM     14  C   UNL     1      -0.518  -6.382   1.967  0.00  0.00    +0.004 A 
ENDBRANCH   4   6
ENDBRANCH   1   2
BRANCH   1  15
ATOM     15  N   UNL     1       0.010  -0.012  -2.444  0.00  0.00    -0.300 N 
ATOM     16  C   UNL     1       0.274   1.216  -2.931  0.00  0.00    +0.246 C 
ATOM     17  O   UNL     1       1.101   1.921  -2.386  0.00  0.00    -0.270 OA
ATOM     18  H   UNL     1      -0.650  -0.575  -2.879  0.00  0.00    +0.150 HD
BRANCH  16  19
ATOM     19  C   UNL     1      -0.441   1.706  -4.128  0.00  0.00    +0.055 A 
ATOM     20  C   UNL     1      -1.395   0.901  -4.754  0.00  0.00    +0.014 A 
ATOM     21  C   UNL     1      -2.058   1.364  -5.870  0.00  0.00    +0.001 A 
ATOM     22  C   UNL     1      -1.781   2.623  -6.372  0.00  0.00    +0.001 A 
ATOM     23  C   UNL     1      -0.837   3.427  -5.759  0.00  0.00    +0.021 A 
ATOM     24  C   UNL     1      -0.169   2.978  -4.636  0.00  0.00    +0.053 A 
ATOM     25 CL   UNL     1       1.010   3.991  -3.863  0.00  0.00    -0.083 Cl
ENDBRANCH  16  19
ENDBRANCH   1  15
BRANCH   1  27
ATOM     26  C   UNL     1      -0.019   1.526   0.010  0.00  0.00    +0.009 C 
ATOM     27  C   UNL     1       0.002  -0.004   0.002  0.00  0.00    +0.012 C 
ATOM     28  C   UNL     1      -1.433  -0.534   0.013  0.00  0.00    +0.009 C 
ENDBRANCH   1  27
TORSDOF 5
