REMARK  Name = ZINC14030400
REMARK  11 active torsions:
REMARK  status: ('A' for Active; 'I' for Inactive)
REMARK    1  A    between atoms: C_1  and  C_2
REMARK    2  A    between atoms: C_2  and  C_3
REMARK    3  A    between atoms: C_2  and  C_4
REMARK    4  A    between atoms: C_4  and  O_5
REMARK    5  A    between atoms: O_5  and  C_6
REMARK    6  A    between atoms: C_9  and  C_12
REMARK    7  A    between atoms: N_14  and  C_15
REMARK    8  A    between atoms: C_15  and  N_17
REMARK    9  A    between atoms: N_17  and  C_18
REMARK   10  A    between atoms: C_21  and  S_24
REMARK   11  A    between atoms: S_24  and  N_27
REMARK                            x       y       z     vdW  Elec       q    Type
REMARK                         _______ _______ _______ _____ _____    ______ ____
ROOT
ATOM      1  N   UNL     1       3.627  -4.815  -0.058  0.00  0.00    -0.297 N 
ATOM      2  H   UNL     1       3.042  -4.325   0.541  0.00  0.00    +0.154 HD
ENDROOT
BRANCH   1   3
ATOM      3  C   UNL     1       3.557  -6.211  -0.115  0.00  0.00    +0.033 A 
ATOM      4  C   UNL     1       2.323  -6.844  -0.176  0.00  0.00    +0.025 A 
ATOM      5  C   UNL     1       2.257  -8.223  -0.238  0.00  0.00    +0.030 A 
ATOM      6  C   UNL     1       3.419  -8.972  -0.228  0.00  0.00    +0.106 A 
ATOM      7  C   UNL     1       4.650  -8.345  -0.161  0.00  0.00    +0.030 A 
ATOM      8  C   UNL     1       4.722  -6.967  -0.104  0.00  0.00    +0.025 A 
BRANCH   6   9
ATOM      9  S   UNL     1       3.332 -10.731  -0.300  0.00  0.00    +0.061 S 
ATOM     10  O   UNL     1       2.087 -11.050  -0.907  0.00  0.00    -0.153 OA
ATOM     11  O   UNL     1       4.573 -11.178  -0.827  0.00  0.00    -0.153 OA
BRANCH   9  12
ATOM     12  N   UNL     1       3.253 -11.282   1.259  0.00  0.00    -0.177 NA
ATOM     13  C   UNL     1       4.487 -11.583   1.951  0.00  0.00    +0.109 C 
ATOM     14  C   UNL     1       4.885 -13.052   1.699  0.00  0.00    +0.017 C 
ATOM     15  C   UNL     1       3.976 -13.958   2.417  0.00  0.00    +0.001 C 
ATOM     16  C   UNL     1       2.521 -13.876   1.966  0.00  0.00    +0.001 C 
ATOM     17  C   UNL     1       1.831 -12.753   2.700  0.00  0.00    +0.017 C 
ATOM     18  C   UNL     1       1.927 -11.451   1.884  0.00  0.00    +0.109 C 
ENDBRANCH   9  12
ENDBRANCH   6   9
ENDBRANCH   1   3
BRANCH   1  19
ATOM     19  C   UNL     1       4.506  -4.152  -0.835  0.00  0.00    +0.141 C 
ATOM     20  S   UNL     1       5.612  -5.022  -1.811  0.00  0.00    -0.018 S 
BRANCH  19  23
ATOM     21  C   UNL     1       5.394  -2.141  -1.620  0.00  0.00    +0.250 C 
ATOM     22  O   UNL     1       6.179  -2.759  -2.313  0.00  0.00    -0.270 OA
ATOM     23  N   UNL     1       4.515  -2.804  -0.843  0.00  0.00    -0.264 N 
ATOM     24  H   UNL     1       3.889  -2.312  -0.290  0.00  0.00    +0.157 HD
BRANCH  21  28
ATOM     25  C   UNL     1       5.422   2.105  -1.647  0.00  0.00    +0.121 A 
ATOM     26  C   UNL     1       6.321   1.401  -2.440  0.00  0.00    +0.046 A 
ATOM     27  C   UNL     1       6.315   0.024  -2.434  0.00  0.00    +0.016 A 
ATOM     28  C   UNL     1       5.404  -0.666  -1.629  0.00  0.00    +0.037 A 
ATOM     29  C   UNL     1       4.502   0.046  -0.833  0.00  0.00    +0.016 A 
ATOM     30  C   UNL     1       4.514   1.423  -0.845  0.00  0.00    +0.046 A 
BRANCH  25  31
ATOM     31  O   UNL     1       5.431   3.462  -1.656  0.00  0.00    -0.492 OA
BRANCH  31  32
ATOM     32  C   UNL     1       4.480   4.122  -0.818  0.00  0.00    +0.232 C 
BRANCH  32  34
ATOM     33  C   UNL     1       4.281   6.056  -2.387  0.00  0.00    +0.010 C 
ATOM     34  C   UNL     1       4.640   5.637  -0.960  0.00  0.00    +0.020 C 
ATOM     35  C   UNL     1       3.710   6.343   0.028  0.00  0.00    +0.010 C 
ENDBRANCH  32  34
ENDBRANCH  31  32
ENDBRANCH  25  31
ENDBRANCH  21  28
ENDBRANCH  19  23
ENDBRANCH   1  19
TORSDOF 9
