REMARK  Name = ZINC25161292
REMARK  14 active torsions:
REMARK  status: ('A' for Active; 'I' for Inactive)
REMARK    1  A    between atoms: C_1  and  C_2
REMARK    2  A    between atoms: C_7  and  C_8
REMARK    3  A    between atoms: N_10  and  C_11
REMARK    4  A    between atoms: C_11  and  C_13
REMARK    5  A    between atoms: C_11  and  C_16
REMARK    6  A    between atoms: C_13  and  C_14
REMARK    7  A    between atoms: C_13  and  C_15
REMARK    8  A    between atoms: N_18  and  C_19
REMARK    9  A    between atoms: C_19  and  C_20
REMARK   10  A    between atoms: C_20  and  C_21
REMARK   11  A    between atoms: C_21  and  C_22
REMARK   12  A    between atoms: C_23  and  C_35
REMARK   13  A    between atoms: C_24  and  N_34
REMARK   14  A    between atoms: N_25  and  C_27
REMARK                            x       y       z     vdW  Elec       q    Type
REMARK                         _______ _______ _______ _____ _____    ______ ____
ROOT
ATOM      1  C   UNL     1      -0.623   2.006  -2.622  0.00  0.00    +0.104 C 
ENDROOT
BRANCH   1   4
ATOM      2  C   UNL     1      -0.647   1.808  -5.050  0.00  0.00    +0.234 C 
ATOM      3  O   UNL     1       0.309   1.065  -4.972  0.00  0.00    -0.274 OA
ATOM      4  N   UNL     1      -1.151   2.377  -3.937  0.00  0.00    -0.314 N 
ATOM      5  H   UNL     1      -1.958   3.119  -4.017  0.00  0.00    +0.149 HD
BRANCH   2   6
ATOM      6  C   UNL     1      -1.271   2.094  -6.392  0.00  0.00    +0.162 C 
BRANCH   6   9
ATOM      7  C   UNL     1      -2.016   0.719  -8.260  0.00  0.00    +0.245 C 
ATOM      8  O   UNL     1      -2.908   1.521  -8.457  0.00  0.00    -0.270 OA
ATOM      9  N   UNL     1      -1.144   0.914  -7.251  0.00  0.00    -0.300 N 
ATOM     10  H   UNL     1      -0.338   0.188  -7.072  0.00  0.00    +0.150 HD
BRANCH   7  17
ATOM     11  C   UNL     1      -4.041   0.177 -10.255  0.00  0.00    +0.044 C 
ATOM     12  C   UNL     1      -2.859  -0.743 -10.092  0.00  0.00    -0.038 A 
ATOM     13  C   UNL     1      -2.734  -1.856 -10.899  0.00  0.00    +0.004 A 
ATOM     14  C   UNL     1      -1.649  -2.701 -10.752  0.00  0.00    +0.000 A 
ATOM     15  C   UNL     1      -0.683  -2.438  -9.796  0.00  0.00    +0.001 A 
ATOM     16  C   UNL     1      -0.794  -1.327  -8.987  0.00  0.00    +0.013 A 
ATOM     17  C   UNL     1      -1.889  -0.472  -9.127  0.00  0.00    +0.040 A 
ENDBRANCH   7  17
ENDBRANCH   6   9
BRANCH   6  18
ATOM     18  C   UNL     1      -0.556   3.279  -7.044  0.00  0.00    +0.012 C 
ATOM     19  C   UNL     1      -1.228   3.608  -8.379  0.00  0.00    +0.009 C 
ATOM     20  C   UNL     1      -0.637   4.495  -6.119  0.00  0.00    +0.009 C 
ENDBRANCH   6  18
ENDBRANCH   2   6
ENDBRANCH   1   4
BRANCH   1  21
ATOM     21  C   UNL     1      -1.362   2.792  -1.536  0.00  0.00    +0.025 C 
BRANCH  21  22
ATOM     22  C   UNL     1      -0.811   2.405  -0.162  0.00  0.00    +0.060 C 
BRANCH  22  23
ATOM     23  C   UNL     1      -1.539   3.178   0.907  0.00  0.00    +0.083 A 
ATOM     24  C   UNL     1      -2.718   2.766   1.571  0.00  0.00    +0.114 A 
ATOM     25  C   UNL     1      -3.048   3.771   2.477  0.00  0.00    +0.138 A 
ATOM     26  N   UNL     1      -2.110   4.737   2.357  0.00  0.00    -0.217 N 
ATOM     27  N   UNL     1      -1.188   4.340   1.383  0.00  0.00    -0.168 NA
BRANCH  26  28
ATOM     28  C   UNL     1      -2.066   5.932   3.089  0.00  0.00    +0.068 A 
ATOM     29  C   UNL     1      -3.245   6.575   3.441  0.00  0.00    +0.030 A 
ATOM     30  C   UNL     1      -3.200   7.750   4.165  0.00  0.00    +0.040 A 
ATOM     31  C   UNL     1      -1.980   8.292   4.532  0.00  0.00    +0.124 A 
ATOM     32  C   UNL     1      -0.802   7.654   4.178  0.00  0.00    +0.040 A 
ATOM     33  C   UNL     1      -0.844   6.477   3.458  0.00  0.00    +0.030 A 
ATOM     34  F   UNL     1      -1.938   9.444   5.237  0.00  0.00    -0.205 F 
ENDBRANCH  26  28
BRANCH  25  35
ATOM     35  N   UNL     1      -4.130   3.779   3.336  0.00  0.00    -0.342 N 
ATOM     36  H   UNL     1      -4.291   4.632   4.010  0.00  0.00    +0.144 HD
ATOM     37  H   UNL     1      -4.831   2.931   3.345  0.00  0.00    +0.144 HD
ENDBRANCH  25  35
BRANCH  24  38
ATOM     38  C   UNL     1      -3.435   1.546   1.354  0.00  0.00    +0.104 C 
ATOM     39  N   UNL     1      -4.004   0.578   1.182  0.00  0.00    -0.191 NA
ENDBRANCH  24  38
ENDBRANCH  22  23
ENDBRANCH  21  22
ENDBRANCH   1  21
TORSDOF 11
