REMARK  Name = ZINC36970923
REMARK  6 active torsions:
REMARK  status: ('A' for Active; 'I' for Inactive)
REMARK    1  A    between atoms: C_1  and  C_2
REMARK    2  A    between atoms: C_2  and  C_3
REMARK    3  A    between atoms: C_3  and  C_5
REMARK    4  A    between atoms: C_3  and  N_10
REMARK    5  A    between atoms: N_10  and  C_11
REMARK    6  A    between atoms: C_14  and  N_18
REMARK                            x       y       z     vdW  Elec       q    Type
REMARK                         _______ _______ _______ _____ _____    ______ ____
ROOT
ATOM      1  N   UNL     1       2.039  -0.197  -1.337  0.00  0.00    -0.335 N 
ATOM      2  H   UNL     1       2.544  -0.176  -0.509  0.00  0.00    +0.147 HD
ENDROOT
BRANCH   1   3
ATOM      3  C   UNL     1       2.682   0.048  -2.554  0.00  0.00    +0.046 A 
ATOM      4  C   UNL     1       1.987  -0.091  -3.748  0.00  0.00    +0.026 A 
ATOM      5  C   UNL     1       2.625   0.151  -4.949  0.00  0.00    +0.034 A 
ATOM      6  C   UNL     1       3.955   0.532  -4.964  0.00  0.00    +0.128 A 
ATOM      7  C   UNL     1       4.650   0.672  -3.777  0.00  0.00    +0.054 A 
ATOM      8  C   UNL     1       4.016   0.436  -2.571  0.00  0.00    +0.064 A 
ATOM      9 CL   UNL     1       4.888   0.619  -1.081  0.00  0.00    -0.082 Cl
BRANCH   6  10
ATOM     10  N   UNL     1       4.635   0.790  -6.253  0.00  0.00    +0.056 N 
ATOM     11  O   UNL     1       4.028   0.668  -7.291  0.00  0.00    -0.126 OA
ATOM     12  O   UNL     1       5.797   1.123  -6.267  0.00  0.00    -0.126 OA
ENDBRANCH   6  10
ENDBRANCH   1   3
BRANCH   1  13
ATOM     13  C   UNL     1       0.603  -0.483  -1.312  0.00  0.00    +0.107 C 
BRANCH  13  14
ATOM     14  C   UNL     1       0.381  -1.957  -1.534  0.00  0.00    +0.010 A 
ATOM     15  C   UNL     1      -0.572  -2.574  -2.276  0.00  0.00    +0.013 A 
ATOM     16  C   UNL     1      -0.583  -3.955  -2.336  0.00  0.00    +0.008 A 
ATOM     17  C   UNL     1       0.358  -4.651  -1.652  0.00  0.00    +0.045 A 
ATOM     18  S   UNL     1       1.307  -3.342  -0.895  0.00  0.00    -0.100 S 
ENDBRANCH  13  14
BRANCH  13  20
ATOM     19  C   UNL     1       0.133   1.438   0.215  0.00  0.00    +0.006 C 
ATOM     20  C   UNL     1       0.026  -0.079   0.046  0.00  0.00    +0.024 C 
ENDBRANCH  13  20
ENDBRANCH   1  13
TORSDOF 5
