REMARK  Name = ZINC63161880
REMARK  5 active torsions:
REMARK  status: ('A' for Active; 'I' for Inactive)
REMARK    1  A    between atoms: N_10  and  C_11
REMARK    2  A    between atoms: C_11  and  C_12
REMARK    3  A    between atoms: C_12  and  N_13
REMARK    4  A    between atoms: N_16  and  C_17
REMARK    5  A    between atoms: C_19  and  C_25
REMARK                            x       y       z     vdW  Elec       q    Type
REMARK                         _______ _______ _______ _____ _____    ______ ____
ROOT
ATOM      1  N   UNL     1       5.885  -6.245  -0.259  0.00  0.00    -0.298 N 
ATOM      2  C   UNL     1       6.238  -7.546  -0.271  0.00  0.00    +0.304 C 
ATOM      3  O   UNL     1       5.391  -8.404  -0.422  0.00  0.00    -0.253 OA
ATOM      4  N   UNL     1       7.531  -7.895  -0.115  0.00  0.00    -0.265 N 
ATOM      5  H   UNL     1       6.561  -5.560  -0.138  0.00  0.00    +0.150 HD
ATOM      6  H   UNL     1       8.216  -7.210  -0.068  0.00  0.00    +0.157 HD
ENDROOT
BRANCH   4   7
ATOM      7  C   UNL     1       7.885  -9.248  -0.020  0.00  0.00    +0.100 A 
ATOM      8  C   UNL     1       8.764  -9.798  -0.913  0.00  0.00    +0.042 A 
ATOM      9  C   UNL     1       9.101 -11.153  -0.795  0.00  0.00    +0.073 A 
ATOM     10  C   UNL     1       8.560 -11.903   0.193  0.00  0.00    +0.098 A 
ATOM     11  N   UNL     1       7.686 -11.358   1.081  0.00  0.00    -0.327 N 
ATOM     12  H   UNL     1       7.309 -11.912   1.782  0.00  0.00    +0.168 HD
ATOM     13  C   UNL     1       7.344 -10.058   1.002  0.00  0.00    +0.270 A 
ATOM     14  O   UNL     1       6.562  -9.582   1.809  0.00  0.00    -0.266 OA
BRANCH   9  15
ATOM     15  C   UNL     1      10.067 -11.777  -1.770  0.00  0.00    +0.419 C 
ATOM     16  F   UNL     1      10.245 -13.127  -1.452  0.00  0.00    -0.166 F 
ATOM     17  F   UNL     1       9.556 -11.667  -3.068  0.00  0.00    -0.166 F 
ATOM     18  F   UNL     1      11.297 -11.114  -1.696  0.00  0.00    -0.166 F 
ENDBRANCH   9  15
ENDBRANCH   4   7
BRANCH   1  19
ATOM     19  C   UNL     1       4.480  -5.866  -0.428  0.00  0.00    +0.124 C 
BRANCH  19  20
ATOM     20  C   UNL     1       4.354  -4.342  -0.376  0.00  0.00    +0.122 C 
BRANCH  20  30
ATOM     21  C   UNL     1      -0.075   1.300  -0.711  0.00  0.00    +0.002 A 
ATOM     22  C   UNL     1       1.077   2.049  -0.524  0.00  0.00    +0.001 A 
ATOM     23  C   UNL     1       2.292   1.401  -0.392  0.00  0.00    +0.017 A 
ATOM     24  C   UNL     1       2.338   0.030  -0.447  0.00  0.00    +0.041 A 
ATOM     25  C   UNL     1       1.185  -0.765  -0.636  0.00  0.00    +0.080 A 
ATOM     26  C   UNL     1      -0.038  -0.069  -0.767  0.00  0.00    +0.029 A 
ATOM     27  N   UNL     1       1.393  -2.100  -0.668  0.00  0.00    -0.225 NA
ATOM     28  C   UNL     1       2.587  -2.631  -0.534  0.00  0.00    +0.159 A 
ATOM     29  S   UNL     1       3.625  -1.190  -0.331  0.00  0.00    -0.052 S 
ATOM     30  N   UNL     1       2.949  -3.962  -0.546  0.00  0.00    -0.322 N 
ATOM     31  H   UNL     1       2.273  -4.647  -0.666  0.00  0.00    +0.148 HD
ENDBRANCH  20  30
ENDBRANCH  19  20
ENDBRANCH   1  19
TORSDOF 5
