REMARK  Name = ZINC08743816
REMARK  6 active torsions:
REMARK  status: ('A' for Active; 'I' for Inactive)
REMARK    1  A    between atoms: C_1  and  C_2
REMARK    2  A    between atoms: C_2  and  C_3
REMARK    3  A    between atoms: C_2  and  C_4
REMARK    4  A    between atoms: C_2  and  C_5
REMARK    5  A    between atoms: N_7  and  C_8
REMARK    6  A    between atoms: C_8  and  C_9
REMARK                            x       y       z     vdW  Elec       q    Type
REMARK                         _______ _______ _______ _____ _____    ______ ____
ROOT
ATOM      1  C   UNL     1       6.448  -0.644  -1.267  0.00  0.00    +0.233 C 
ATOM      2  O   UNL     1       7.181  -0.602  -0.301  0.00  0.00    -0.274 OA
ATOM      3  N   UNL     1       5.202  -0.135  -1.190  0.00  0.00    -0.300 N 
ATOM      4  C   UNL     1       4.717   0.473   0.057  0.00  0.00    +0.107 C 
ATOM      5  C   UNL     1       3.397  -0.198   0.450  0.00  0.00    +0.013 C 
ATOM      6  C   UNL     1       2.415  -0.108  -0.719  0.00  0.00    -0.022 C 
ATOM      7  C   UNL     1       2.988  -0.841  -1.933  0.00  0.00    +0.013 C 
ATOM      8  C   UNL     1       4.304  -0.178  -2.352  0.00  0.00    +0.107 C 
ATOM      9  C   UNL     1       1.099  -0.724  -0.325  0.00  0.00    +0.027 A 
ATOM     10  C   UNL     1       0.002  -0.004   0.002  0.00  0.00    +0.059 A 
ATOM     11  N   UNL     1      -0.980  -0.857   0.293  0.00  0.00    -0.241 NA
ATOM     12  C   UNL     1      -0.537  -2.081   0.162  0.00  0.00    +0.196 A 
ATOM     13  N   UNL     1       0.760  -2.036  -0.224  0.00  0.00    -0.349 N 
ATOM     14  H   UNL     1       1.355  -2.820  -0.400  0.00  0.00    +0.166 HD
ATOM     15  C   UNL     1      -0.018   1.505   0.010  0.00  0.00    +0.038 C 
ATOM     16  C   UNL     1       1.435   1.997  -0.001  0.00  0.00    -0.075 C 
ATOM     17  N   UNL     1       2.189   1.311  -1.071  0.00  0.00    +0.387 N 
ATOM     18  H   UNL     1       1.653   1.361  -1.946  0.00  0.00    -0.085 HD
ATOM     19  H   UNL     1       3.095   1.776  -1.198  0.00  0.00    -0.085 HD
ENDROOT
BRANCH   1  20
ATOM     20  C   UNL     1       6.931  -1.264  -2.552  0.00  0.00    +0.200 C 
BRANCH  20  23
ATOM     21  C   UNL     1       8.948  -2.332  -3.405  0.00  0.00    +0.219 C 
ATOM     22  O   UNL     1       8.388  -2.474  -4.471  0.00  0.00    -0.275 OA
ATOM     23  N   UNL     1       8.306  -1.738  -2.379  0.00  0.00    -0.306 N 
ATOM     24  H   UNL     1       8.755  -1.625  -1.527  0.00  0.00    +0.149 HD
BRANCH  21  26
ATOM     25  C   UNL     1      10.853  -3.450  -4.532  0.00  0.00    +0.020 C 
ATOM     26  C   UNL     1      10.363  -2.821  -3.227  0.00  0.00    +0.039 C 
ATOM     27  C   UNL     1      11.267  -1.642  -2.858  0.00  0.00    +0.020 C 
ATOM     28  C   UNL     1      10.405  -3.865  -2.109  0.00  0.00    +0.020 C 
ENDBRANCH  21  26
ENDBRANCH  20  23
ENDBRANCH   1  20
TORSDOF 3
