REMARK  Name = ZINC36014227
REMARK  8 active torsions:
REMARK  status: ('A' for Active; 'I' for Inactive)
REMARK    1  A    between atoms: C_1  and  C_2
REMARK    2  A    between atoms: C_2  and  C_3
REMARK    3  A    between atoms: C_2  and  C_4
REMARK    4  A    between atoms: C_4  and  N_5
REMARK    5  A    between atoms: C_8  and  C_27
REMARK    6  A    between atoms: N_14  and  S_17
REMARK    7  A    between atoms: S_17  and  C_20
REMARK    8  A    between atoms: C_27  and  C_28
REMARK                            x       y       z     vdW  Elec       q    Type
REMARK                         _______ _______ _______ _____ _____    ______ ____
ROOT
ATOM      1  N   UNL     1      -1.514  -1.865   0.100  0.00  0.00    -0.313 N 
ATOM      2  C   UNL     1      -1.448  -2.686  -0.969  0.00  0.00    +0.201 C 
ATOM      3  O   UNL     1      -1.351  -2.336  -2.126  0.00  0.00    -0.277 OA
ATOM      4  C   UNL     1      -1.516  -4.116  -0.480  0.00  0.00    +0.023 C 
ATOM      5  N   UNL     1      -1.214  -4.036   0.969  0.00  0.00    +0.401 N 
ATOM      6  C   UNL     1      -1.627  -2.663   1.323  0.00  0.00    +0.006 C 
ATOM      7  C   UNL     1      -0.702  -2.107   2.405  0.00  0.00    +0.023 C 
ATOM      8  C   UNL     1      -1.118  -0.671   2.740  0.00  0.00    +0.109 C 
ATOM      9  N   UNL     1      -2.545  -0.662   3.090  0.00  0.00    -0.177 NA
ATOM     10  C   UNL     1      -3.509  -1.243   2.146  0.00  0.00    +0.109 C 
ATOM     11  C   UNL     1      -3.073  -2.675   1.816  0.00  0.00    +0.023 C 
ATOM     12  H   UNL     1      -1.752  -4.716   1.484  0.00  0.00    -0.082 HD
ATOM     13  H   UNL     1      -0.227  -4.161   1.135  0.00  0.00    -0.082 HD
ENDROOT
BRANCH   9  14
ATOM     14  S   UNL     1      -3.058  -0.007   4.522  0.00  0.00    +0.061 S 
ATOM     15  O   UNL     1      -4.304  -0.619   4.825  0.00  0.00    -0.153 OA
ATOM     16  O   UNL     1      -1.949  -0.056   5.410  0.00  0.00    -0.153 OA
BRANCH  14  17
ATOM     17  C   UNL     1      -3.392   1.697   4.226  0.00  0.00    +0.106 A 
ATOM     18  C   UNL     1      -2.390   2.636   4.386  0.00  0.00    +0.030 A 
ATOM     19  C   UNL     1      -2.652   3.973   4.154  0.00  0.00    +0.022 A 
ATOM     20  C   UNL     1      -3.917   4.372   3.762  0.00  0.00    +0.041 A 
ATOM     21  C   UNL     1      -4.920   3.432   3.602  0.00  0.00    +0.022 A 
ATOM     22  C   UNL     1      -4.655   2.094   3.829  0.00  0.00    +0.030 A 
ATOM     23 CL   UNL     1      -4.247   6.051   3.471  0.00  0.00    -0.084 Cl
ENDBRANCH  14  17
ENDBRANCH   9  14
BRANCH   1  24
ATOM     24  C   UNL     1      -1.473  -0.401   0.046  0.00  0.00    +0.109 C 
BRANCH  24  26
ATOM     25  C   UNL     1       0.050   1.576  -0.065  0.00  0.00    +0.009 C 
ATOM     26  C   UNL     1      -0.042   0.059  -0.237  0.00  0.00    +0.000 C 
ATOM     27  C   UNL     1       0.916  -0.624   0.741  0.00  0.00    +0.009 C 
ENDBRANCH  24  26
ENDBRANCH   1  24
BRANCH   4  28
ATOM     28  C   UNL     1      -0.472  -4.974  -1.198  0.00  0.00    +0.028 C 
BRANCH  28  29
ATOM     29  C   UNL     1      -0.615  -6.410  -0.761  0.00  0.00    -0.048 A 
ATOM     30  C   UNL     1       0.088  -6.872   0.336  0.00  0.00    +0.003 A 
ATOM     31  C   UNL     1      -0.043  -8.188   0.737  0.00  0.00    +0.000 A 
ATOM     32  C   UNL     1      -0.878  -9.042   0.041  0.00  0.00    +0.000 A 
ATOM     33  C   UNL     1      -1.582  -8.580  -1.055  0.00  0.00    +0.000 A 
ATOM     34  C   UNL     1      -1.454  -7.263  -1.453  0.00  0.00    +0.003 A 
ENDBRANCH  28  29
ENDBRANCH   4  28
TORSDOF 6
