REMARK  Name = ZINC64502705
REMARK  9 active torsions:
REMARK  status: ('A' for Active; 'I' for Inactive)
REMARK    1  A    between atoms: C_1  and  O_2
REMARK    2  A    between atoms: O_2  and  C_3
REMARK    3  A    between atoms: C_3  and  C_4
REMARK    4  A    between atoms: C_8  and  C_11
REMARK    5  A    between atoms: N_13  and  C_14
REMARK    6  A    between atoms: C_18  and  C_20
REMARK    7  A    between atoms: N_22  and  C_23
REMARK    8  A    between atoms: C_23  and  C_24
REMARK    9  A    between atoms: C_24  and  C_25
REMARK                            x       y       z     vdW  Elec       q    Type
REMARK                         _______ _______ _______ _____ _____    ______ ____
ROOT
ATOM      1  C   UNL     1      -0.312  -7.634  -0.319  0.00  0.00    +0.034 A 
ATOM      2  C   UNL     1      -0.533  -7.842   1.037  0.00  0.00    +0.023 A 
ATOM      3  C   UNL     1      -0.499  -9.121   1.560  0.00  0.00    +0.003 A 
ATOM      4  C   UNL     1      -0.244 -10.201   0.738  0.00  0.00    +0.013 A 
ATOM      5  C   UNL     1      -0.020 -10.002  -0.625  0.00  0.00    +0.038 A 
ATOM      6  C   UNL     1      -0.061  -8.712  -1.153  0.00  0.00    +0.036 A 
ENDROOT
BRANCH   1   9
ATOM      7  C   UNL     1      -0.838  -6.123  -2.080  0.00  0.00    +0.254 C 
ATOM      8  O   UNL     1      -1.170  -7.063  -2.772  0.00  0.00    -0.272 OA
ATOM      9  N   UNL     1      -0.348  -6.337  -0.843  0.00  0.00    -0.283 N 
ATOM     10  H   UNL     1      -0.020  -5.592  -0.316  0.00  0.00    +0.155 HD
BRANCH   7  14
ATOM     11  C   UNL     1      -3.361  -4.310  -3.860  0.00  0.00    +0.213 C 
ATOM     12  N   UNL     1      -3.135  -3.810  -2.484  0.00  0.00    -0.174 NA
ATOM     13  N   UNL     1      -2.071  -3.991  -1.925  0.00  0.00    -0.167 NA
ATOM     14  C   UNL     1      -0.974  -4.717  -2.605  0.00  0.00    +0.272 C 
ATOM     15  S   UNL     1      -1.619  -4.704  -4.338  0.00  0.00    -0.093 S 
BRANCH  11  16
ATOM     16  C   UNL     1      -3.953  -3.222  -4.758  0.00  0.00    +0.199 C 
BRANCH  16  18
ATOM     17  C   UNL     1      -3.583  -0.982  -5.527  0.00  0.00    +0.194 C 
ATOM     18  O   UNL     1      -3.117  -2.063  -4.718  0.00  0.00    -0.380 OA
ENDBRANCH  16  18
ENDBRANCH  11  16
ENDBRANCH   7  14
ENDBRANCH   1   9
BRANCH   5  19
ATOM     19  C   UNL     1       0.254 -11.157  -1.507  0.00  0.00    +0.244 C 
ATOM     20  O   UNL     1       0.448 -10.982  -2.694  0.00  0.00    -0.270 OA
ATOM     21  N   UNL     1       0.287 -12.403  -0.996  0.00  0.00    -0.311 N 
ATOM     22  H   UNL     1       0.132 -12.543  -0.048  0.00  0.00    +0.149 HD
BRANCH  21  23
ATOM     23  C   UNL     1       0.558 -13.547  -1.870  0.00  0.00    +0.109 C 
BRANCH  23  24
ATOM     24  C   UNL     1       0.540 -14.835  -1.044  0.00  0.00    +0.052 C 
BRANCH  24  25
ATOM     25  C   UNL     1       0.819 -16.012  -1.944  0.00  0.00    -0.040 C 
ATOM     26  C   UNL     1       2.016 -16.602  -2.163  0.00  0.00    +0.000 A 
ATOM     27  C   UNL     1       3.365 -16.335  -1.649  0.00  0.00    +0.030 A 
ATOM     28  C   UNL     1       4.391 -17.116  -2.062  0.00  0.00    +0.042 A 
ATOM     29  C   UNL     1       4.197 -18.171  -2.966  0.00  0.00    +0.022 A 
ATOM     30  C   UNL     1       2.987 -18.477  -3.481  0.00  0.00    +0.027 A 
ATOM     31  C   UNL     1       1.839 -17.721  -3.115  0.00  0.00    +0.043 A 
ATOM     32  N   UNL     1       0.581 -17.819  -3.472  0.00  0.00    -0.380 N 
ATOM     33  C   UNL     1      -0.184 -16.776  -2.779  0.00  0.00    +0.144 C 
ATOM     34 CL   UNL     1       5.987 -16.804  -1.456  0.00  0.00    -0.084 Cl
ATOM     35  H   UNL     1       0.216 -18.474  -4.087  0.00  0.00    +0.160 HD
ENDBRANCH  24  25
ENDBRANCH  23  24
ENDBRANCH  21  23
ENDBRANCH   5  19
TORSDOF 8
