REMARK  Name = ZINC39923073
REMARK  9 active torsions:
REMARK  status: ('A' for Active; 'I' for Inactive)
REMARK    1  A    between atoms: C_1  and  C_2
REMARK    2  A    between atoms: C_2  and  C_28
REMARK    3  A    between atoms: N_3  and  N_4
REMARK    4  A    between atoms: C_5  and  C_7
REMARK    5  A    between atoms: C_10  and  C_13
REMARK    6  A    between atoms: C_16  and  O_19
REMARK    7  A    between atoms: O_19  and  C_20
REMARK    8  A    between atoms: C_20  and  C_21
REMARK    9  A    between atoms: C_31  and  N_34
REMARK                            x       y       z     vdW  Elec       q    Type
REMARK                         _______ _______ _______ _____ _____    ______ ____
ROOT
ATOM      1  C   UNL     1      -2.203  -3.330   2.717  0.00  0.00    +0.240 C 
ATOM      2  C   UNL     1      -3.651  -3.247   2.267  0.00  0.00    +0.041 C 
ATOM      3  C   UNL     1      -4.352  -3.533   3.382  0.00  0.00    +0.092 C 
ATOM      4  N   UNL     1      -3.511  -3.772   4.423  0.00  0.00    -0.153 NA
ATOM      5  N   UNL     1      -2.310  -3.683   4.143  0.00  0.00    -0.170 NA
ENDROOT
BRANCH   3   6
ATOM      6  C   UNL     1      -5.832  -3.580   3.462  0.00  0.00    +0.002 A 
ATOM      7  C   UNL     1      -6.601  -3.323   2.328  0.00  0.00    +0.013 A 
ATOM      8  C   UNL     1      -7.977  -3.368   2.405  0.00  0.00    +0.046 A 
ATOM      9  C   UNL     1      -8.597  -3.668   3.611  0.00  0.00    +0.121 A 
ATOM     10  C   UNL     1      -7.834  -3.925   4.742  0.00  0.00    +0.046 A 
ATOM     11  C   UNL     1      -6.457  -3.887   4.669  0.00  0.00    +0.013 A 
BRANCH   9  12
ATOM     12  O   UNL     1      -9.953  -3.711   3.684  0.00  0.00    -0.487 OA
BRANCH  12  13
ATOM     13  C   UNL     1     -10.524  -4.026   4.955  0.00  0.00    +0.266 C 
BRANCH  13  14
ATOM     14  C   UNL     1     -12.027  -4.027   4.844  0.00  0.00    +0.008 A 
ATOM     15  C   UNL     1     -12.631  -3.754   3.631  0.00  0.00    +0.008 A 
ATOM     16  C   UNL     1     -14.009  -3.755   3.529  0.00  0.00    +0.000 A 
ATOM     17  C   UNL     1     -14.785  -4.029   4.640  0.00  0.00    +0.001 A 
ATOM     18  C   UNL     1     -14.183  -4.303   5.853  0.00  0.00    +0.020 A 
ATOM     19  C   UNL     1     -12.803  -4.308   5.955  0.00  0.00    +0.047 A 
ATOM     20 CL   UNL     1     -12.046  -4.657   7.477  0.00  0.00    -0.083 Cl
ENDBRANCH  13  14
ENDBRANCH  12  13
ENDBRANCH   9  12
ENDBRANCH   3   6
BRANCH   1  22
ATOM     21  N   UNL     1      -1.025  -1.643   1.345  0.00  0.00    -0.205 N 
ATOM     22  C   UNL     1      -1.516  -2.000   2.548  0.00  0.00    +0.263 C 
ATOM     23  O   UNL     1      -1.405  -1.250   3.495  0.00  0.00    -0.271 OA
ATOM     24  H   UNL     1      -1.114  -2.242   0.588  0.00  0.00    +0.177 HD
BRANCH  21  27
ATOM     25  C   UNL     1       0.814   1.238  -0.142  0.00  0.00    +0.068 C 
ATOM     26  C   UNL     1      -0.009  -0.015   0.009  0.00  0.00    +0.063 C 
ATOM     27  N   UNL     1      -0.387  -0.405   1.188  0.00  0.00    -0.184 NA
BRANCH  26  28
ATOM     28  C   UNL     1      -0.387  -0.797  -1.182  0.00  0.00    -0.002 A 
ATOM     29  C   UNL     1      -1.656  -1.376  -1.267  0.00  0.00    +0.011 A 
ATOM     30  C   UNL     1      -2.005  -2.106  -2.382  0.00  0.00    +0.023 A 
ATOM     31  C   UNL     1      -1.096  -2.266  -3.422  0.00  0.00    +0.025 A 
ATOM     32  C   UNL     1       0.168  -1.691  -3.342  0.00  0.00    +0.023 A 
ATOM     33  C   UNL     1       0.522  -0.956  -2.232  0.00  0.00    +0.011 A 
BRANCH  31  34
ATOM     34  N   UNL     1      -1.452  -3.006  -4.550  0.00  0.00    -0.358 N 
ATOM     35  H   UNL     1      -2.333  -3.408  -4.607  0.00  0.00    +0.142 HD
ATOM     36  H   UNL     1      -0.820  -3.119  -5.276  0.00  0.00    +0.142 HD
ENDBRANCH  31  34
ENDBRANCH  26  28
ENDBRANCH  21  27
ENDBRANCH   1  22
TORSDOF 8
