REMARK  Name = ZINC33723174
REMARK  10 active torsions:
REMARK  status: ('A' for Active; 'I' for Inactive)
REMARK    1  A    between atoms: C_1  and  C_2
REMARK    2  A    between atoms: C_2  and  C_4
REMARK    3  A    between atoms: C_2  and  N_10
REMARK    4  A    between atoms: C_11  and  C_13
REMARK    5  A    between atoms: C_16  and  C_18
REMARK    6  A    between atoms: C_18  and  N_19
REMARK    7  A    between atoms: N_19  and  C_20
REMARK    8  A    between atoms: N_19  and  C_27
REMARK    9  A    between atoms: C_20  and  C_21
REMARK   10  A    between atoms: C_27  and  C_28
REMARK                            x       y       z     vdW  Elec       q    Type
REMARK                         _______ _______ _______ _____ _____    ______ ____
ROOT
ATOM      1  C   UNL     1       5.952   3.384  -0.241  0.00  0.00    -0.002 C 
ENDROOT
BRANCH   1   5
ATOM      2  C   UNL     1       2.903   1.678  -1.302  0.00  0.00    +0.189 A 
ATOM      3  C   UNL     1       3.807   1.040  -2.103  0.00  0.00    +0.055 A 
ATOM      4  C   UNL     1       5.063   1.597  -1.817  0.00  0.00    +0.043 A 
ATOM      5  C   UNL     1       4.874   2.532  -0.860  0.00  0.00    +0.090 A 
ATOM      6  O   UNL     1       3.572   2.578  -0.552  0.00  0.00    -0.457 OA
BRANCH   2   8
ATOM      7  N   UNL     1       0.676   2.124  -0.416  0.00  0.00    -0.302 N 
ATOM      8  C   UNL     1       1.459   1.424  -1.261  0.00  0.00    +0.280 C 
ATOM      9  O   UNL     1       0.968   0.582  -1.989  0.00  0.00    -0.267 OA
ATOM     10  H   UNL     1       1.120   2.885   0.242  0.00  0.00    +0.150 HD
BRANCH   7  12
ATOM     11  C   UNL     1      -1.460   2.691  -1.464  0.00  0.00    +0.033 C 
ATOM     12  C   UNL     1      -0.766   1.871  -0.374  0.00  0.00    +0.100 C 
BRANCH  12  13
ATOM     13  C   UNL     1      -1.308   2.268   0.975  0.00  0.00    -0.027 A 
ATOM     14  C   UNL     1      -0.843   3.412   1.596  0.00  0.00    +0.005 A 
ATOM     15  C   UNL     1      -1.342   3.779   2.832  0.00  0.00    +0.000 A 
ATOM     16  C   UNL     1      -2.300   2.997   3.450  0.00  0.00    +0.000 A 
ATOM     17  C   UNL     1      -2.761   1.851   2.831  0.00  0.00    +0.000 A 
ATOM     18  C   UNL     1      -2.264   1.486   1.594  0.00  0.00    +0.005 A 
ENDBRANCH  12  13
ENDBRANCH   7  12
ENDBRANCH   2   8
ENDBRANCH   1   5
BRANCH   1  19
ATOM     19  N   UNL     1       6.105   4.621  -1.018  0.00  0.00    +0.390 N 
ATOM     20  H   UNL     1       6.239   4.343  -2.074  0.00  0.00    -0.080 HD
BRANCH  19  21
ATOM     21  C   UNL     1       4.901   5.457  -0.920  0.00  0.00    -0.042 C 
BRANCH  21  22
ATOM     22  C   UNL     1       4.920   6.496  -2.011  0.00  0.00    -0.064 A 
ATOM     23  C   UNL     1       5.393   7.768  -1.745  0.00  0.00    +0.002 A 
ATOM     24  C   UNL     1       5.416   8.720  -2.747  0.00  0.00    +0.000 A 
ATOM     25  C   UNL     1       4.956   8.404  -4.012  0.00  0.00    +0.000 A 
ATOM     26  C   UNL     1       4.478   7.134  -4.276  0.00  0.00    +0.000 A 
ATOM     27  C   UNL     1       4.460   6.180  -3.275  0.00  0.00    +0.002 A 
ENDBRANCH  21  22
ENDBRANCH  19  21
BRANCH  19  28
ATOM     28  C   UNL     1       7.298   5.366  -0.593  0.00  0.00    -0.042 C 
BRANCH  28  29
ATOM     29  C   UNL     1       8.533   4.671  -1.105  0.00  0.00    -0.064 A 
ATOM     30  C   UNL     1       9.207   3.774  -0.296  0.00  0.00    +0.004 A 
ATOM     31  C   UNL     1      10.337   3.133  -0.766  0.00  0.00    +0.038 A 
ATOM     32  C   UNL     1      10.800   3.396  -2.044  0.00  0.00    +0.123 A 
ATOM     33  C   UNL     1      10.128   4.298  -2.851  0.00  0.00    +0.038 A 
ATOM     34  C   UNL     1       8.995   4.934  -2.381  0.00  0.00    +0.004 A 
ATOM     35  F   UNL     1      11.908   2.773  -2.503  0.00  0.00    -0.205 F 
ENDBRANCH  28  29
ENDBRANCH  19  28
ENDBRANCH   1  19
TORSDOF 9
