REMARK  Name = ZINC02396092
REMARK  7 active torsions:
REMARK  status: ('A' for Active; 'I' for Inactive)
REMARK    1  A    between atoms: C_3  and  C_6
REMARK    2  A    between atoms: C_6  and  N_7
REMARK    3  A    between atoms: C_8  and  C_25
REMARK    4  A    between atoms: C_11  and  S_12
REMARK    5  A    between atoms: S_12  and  C_13
REMARK    6  A    between atoms: C_13  and  C_14
REMARK    7  A    between atoms: N_16  and  C_17
REMARK                            x       y       z     vdW  Elec       q    Type
REMARK                         _______ _______ _______ _____ _____    ______ ____
ROOT
ATOM      1  N   UNL     1      -3.654  10.690  -0.478  0.00  0.00    -0.292 N 
ATOM      2  C   UNL     1      -2.973  11.886  -0.538  0.00  0.00    +0.201 A 
ATOM      3  N   UNL     1      -1.690  11.601  -0.474  0.00  0.00    -0.125 NA
ATOM      4  N   UNL     1      -1.528  10.331  -0.373  0.00  0.00    -0.122 NA
ATOM      5  C   UNL     1      -2.693   9.723  -0.377  0.00  0.00    +0.193 A 
ENDROOT
BRANCH   2   6
ATOM      6  C   UNL     1      -3.567  13.227  -0.653  0.00  0.00    +0.172 A 
ATOM      7  C   UNL     1      -2.927  14.408  -0.422  0.00  0.00    +0.053 A 
ATOM      8  C   UNL     1      -3.868  15.430  -0.653  0.00  0.00    +0.042 A 
ATOM      9  C   UNL     1      -5.025  14.832  -1.000  0.00  0.00    +0.196 A 
ATOM     10  O   UNL     1      -4.840  13.502  -1.000  0.00  0.00    -0.460 OA
ENDBRANCH   2   6
BRANCH   1  11
ATOM     11  C   UNL     1      -5.106  10.496  -0.515  0.00  0.00    +0.200 C 
BRANCH  11  14
ATOM     12  C   UNL     1      -6.506  11.198   2.821  0.00  0.00    +0.041 A 
ATOM     13  C   UNL     1      -6.076  11.624   1.543  0.00  0.00    +0.046 A 
ATOM     14  C   UNL     1      -5.653  10.528   0.888  0.00  0.00    +0.125 A 
ATOM     15  O   UNL     1      -5.795   9.467   1.700  0.00  0.00    -0.466 OA
ATOM     16  C   UNL     1      -6.312   9.868   2.873  0.00  0.00    +0.195 A 
ENDBRANCH  11  14
ENDBRANCH   1  11
BRANCH   5  17
ATOM     17  S   UNL     1      -2.967   7.987  -0.264  0.00  0.00    -0.077 S 
BRANCH  17  18
ATOM     18  C   UNL     1      -1.256   7.405  -0.164  0.00  0.00    +0.173 C 
BRANCH  18  19
ATOM     19  C   UNL     1      -1.242   5.902  -0.058  0.00  0.00    +0.227 C 
ATOM     20  O   UNL     1      -2.286   5.284  -0.050  0.00  0.00    -0.275 OA
ATOM     21  N   UNL     1      -0.069   5.243   0.029  0.00  0.00    -0.285 N 
ATOM     22  H   UNL     1       0.761   5.739   0.101  0.00  0.00    +0.155 HD
BRANCH  21  23
ATOM     23  C   UNL     1      -0.050   3.844   0.017  0.00  0.00    +0.036 A 
ATOM     24  C   UNL     1      -0.989   3.142  -0.727  0.00  0.00    +0.043 A 
ATOM     25  C   UNL     1      -0.968   1.760  -0.738  0.00  0.00    +0.044 A 
ATOM     26  C   UNL     1      -0.012   1.076  -0.007  0.00  0.00    +0.040 A 
ATOM     27  C   UNL     1       0.921   1.773   0.740  0.00  0.00    +0.044 A 
ATOM     28  C   UNL     1       0.908   3.155   0.749  0.00  0.00    +0.043 A 
ATOM     29 CL   UNL     1       2.114   0.911   1.661  0.00  0.00    -0.083 Cl
ATOM     30 CL   UNL     1      -2.141   0.882  -1.668  0.00  0.00    -0.083 Cl
ENDBRANCH  21  23
ENDBRANCH  18  19
ENDBRANCH  17  18
ENDBRANCH   5  17
TORSDOF 7
