REMARK  Name = ZINC47865285
REMARK  6 active torsions:
REMARK  status: ('A' for Active; 'I' for Inactive)
REMARK    1  A    between atoms: C_3  and  O_26
REMARK    2  A    between atoms: C_4  and  N_10
REMARK    3  A    between atoms: C_6  and  N_7
REMARK    4  A    between atoms: N_13  and  C_14
REMARK    5  A    between atoms: C_19  and  C_22
REMARK    6  A    between atoms: O_26  and  C_27
REMARK                            x       y       z     vdW  Elec       q    Type
REMARK                         _______ _______ _______ _____ _____    ______ ____
ROOT
ATOM      1  N   UNL     1       3.622  -0.661  -0.036  0.00  0.00    -0.266 N 
ATOM      2  C   UNL     1       3.642  -2.006   0.058  0.00  0.00    +0.304 C 
ATOM      3  O   UNL     1       2.599  -2.630   0.065  0.00  0.00    -0.252 OA
ATOM      4  N   UNL     1       4.819  -2.658   0.144  0.00  0.00    -0.296 N 
ATOM      5  H   UNL     1       4.454  -0.168  -0.107  0.00  0.00    +0.156 HD
ATOM      6  H   UNL     1       5.651  -2.159   0.139  0.00  0.00    +0.151 HD
ENDROOT
BRANCH   1  10
ATOM      7  C   UNL     1      -0.018   1.376  -0.025  0.00  0.00    +0.036 A 
ATOM      8  C   UNL     1       1.091   1.948   0.572  0.00  0.00    +0.050 A 
ATOM      9  C   UNL     1       2.302   1.276   0.571  0.00  0.00    +0.148 A 
ATOM     10  C   UNL     1       2.399   0.023  -0.032  0.00  0.00    +0.079 A 
ATOM     11  C   UNL     1       1.283  -0.544  -0.628  0.00  0.00    +0.059 A 
ATOM     12  C   UNL     1       0.078   0.134  -0.623  0.00  0.00    +0.128 A 
BRANCH  12  13
ATOM     13  N   UNL     1      -1.113  -0.473  -1.259  0.00  0.00    +0.056 N 
ATOM     14  O   UNL     1      -2.168   0.118  -1.255  0.00  0.00    -0.126 OA
ATOM     15  O   UNL     1      -1.031  -1.560  -1.783  0.00  0.00    -0.126 OA
ENDBRANCH  12  13
BRANCH   9  16
ATOM     16  O   UNL     1       3.393   1.837   1.156  0.00  0.00    -0.432 OA
BRANCH  16  17
ATOM     17  C   UNL     1       3.220   3.123   1.754  0.00  0.00    +0.541 C 
ATOM     18  F   UNL     1       2.803   4.038   0.781  0.00  0.00    -0.166 F 
ATOM     19  F   UNL     1       2.252   3.042   2.762  0.00  0.00    -0.166 F 
ENDBRANCH  16  17
ENDBRANCH   9  16
ENDBRANCH   1  10
BRANCH   4  20
ATOM     20  C   UNL     1       4.841  -4.119   0.247  0.00  0.00    +0.075 C 
ATOM     21  C   UNL     1       4.673  -4.530   1.711  0.00  0.00    +0.022 C 
ATOM     22  C   UNL     1       5.817  -3.943   2.540  0.00  0.00    +0.002 C 
ATOM     23  C   UNL     1       7.152  -4.472   2.012  0.00  0.00    +0.012 C 
ATOM     24  C   UNL     1       7.320  -4.061   0.548  0.00  0.00    +0.095 C 
ATOM     25  C   UNL     1       6.176  -4.647  -0.281  0.00  0.00    +0.034 C 
BRANCH  24  26
ATOM     26  C   UNL     1       8.655  -4.589   0.019  0.00  0.00    +0.393 C 
ATOM     27  F   UNL     1       8.676  -5.985   0.117  0.00  0.00    -0.170 F 
ATOM     28  F   UNL     1       8.809  -4.213  -1.319  0.00  0.00    -0.170 F 
ATOM     29  F   UNL     1       9.702  -4.053   0.777  0.00  0.00    -0.170 F 
ENDBRANCH  24  26
ENDBRANCH   4  20
TORSDOF 6
