REMARK  Name = ZINC41151943
REMARK  6 active torsions:
REMARK  status: ('A' for Active; 'I' for Inactive)
REMARK    1  A    between atoms: C_7  and  C_11
REMARK    2  A    between atoms: C_11  and  C_12
REMARK    3  A    between atoms: C_12  and  N_13
REMARK    4  A    between atoms: C_22  and  N_24
REMARK    5  A    between atoms: N_24  and  C_25
REMARK    6  A    between atoms: C_25  and  C_26
REMARK                            x       y       z     vdW  Elec       q    Type
REMARK                         _______ _______ _______ _____ _____    ______ ____
ROOT
ATOM      1  N   UNL     1      -0.675  -4.736  -1.452  0.00  0.00    -0.315 N 
ATOM      2  C   UNL     1      -1.199  -5.207  -2.642  0.00  0.00    +0.195 A 
ATOM      3  N   UNL     1      -0.856  -4.605  -3.765  0.00  0.00    -0.327 N 
ATOM      4  C   UNL     1      -1.342  -5.032  -4.940  0.00  0.00    +0.052 A 
ATOM      5  C   UNL     1      -0.999  -4.417  -6.152  0.00  0.00    +0.026 A 
ATOM      6  C   UNL     1      -1.521  -4.890  -7.319  0.00  0.00    +0.002 A 
ATOM      7  C   UNL     1      -2.392  -5.976  -7.327  0.00  0.00    +0.001 A 
ATOM      8  C   UNL     1      -2.747  -6.597  -6.165  0.00  0.00    +0.013 A 
ATOM      9  C   UNL     1      -2.228  -6.137  -4.951  0.00  0.00    +0.038 A 
ATOM     10  C   UNL     1      -2.561  -6.743  -3.714  0.00  0.00    +0.132 A 
ATOM     11  N   UNL     1      -2.023  -6.250  -2.607  0.00  0.00    -0.201 NA
ATOM     12  H   UNL     1      -0.911  -5.166  -0.615  0.00  0.00    +0.149 HD
ATOM     13  H   UNL     1      -0.248  -3.849  -3.741  0.00  0.00    +0.169 HD
ENDROOT
BRANCH  10  14
ATOM     14  N   UNL     1      -3.418  -7.821  -3.663  0.00  0.00    -0.326 N 
ATOM     15  H   UNL     1      -3.802  -8.175  -4.481  0.00  0.00    +0.148 HD
BRANCH  14  16
ATOM     16  C   UNL     1      -3.749  -8.434  -2.374  0.00  0.00    +0.134 C 
BRANCH  16  17
ATOM     17  C   UNL     1      -4.712  -9.602  -2.597  0.00  0.00    +0.135 C 
ATOM     18  C   UNL     1      -5.103 -10.242  -1.241  0.00  0.00    +0.035 C 
ATOM     19  C   UNL     1      -6.471 -10.883  -1.602  0.00  0.00    +0.031 C 
ATOM     20  C   UNL     1      -7.045  -9.876  -2.622  0.00  0.00    +0.160 C 
ATOM     21  O   UNL     1      -5.946  -9.130  -3.161  0.00  0.00    -0.375 OA
ENDBRANCH  16  17
ENDBRANCH  14  16
ENDBRANCH  10  14
BRANCH   1  22
ATOM     22  C   UNL     1       0.236  -3.589  -1.455  0.00  0.00    +0.109 C 
BRANCH  22  23
ATOM     23  C   UNL     1       0.666  -3.275  -0.021  0.00  0.00    +0.056 C 
BRANCH  23  30
ATOM     24  C   UNL     1      -0.017   1.362   0.009  0.00  0.00    +0.001 A 
ATOM     25  C   UNL     1       1.170   2.083   0.002  0.00  0.00    +0.002 A 
ATOM     26  C   UNL     1       2.386   1.436  -0.013  0.00  0.00    +0.026 A 
ATOM     27  C   UNL     1       2.428   0.046  -0.021  0.00  0.00    +0.047 A 
ATOM     28  C   UNL     1       1.223  -0.681  -0.013  0.00  0.00    +0.003 A 
ATOM     29  C   UNL     1       0.002  -0.004   0.002  0.00  0.00    +0.010 A 
ATOM     30  C   UNL     1       1.604  -2.095  -0.025  0.00  0.00    -0.021 A 
ATOM     31  C   UNL     1       2.945  -2.141  -0.038  0.00  0.00    +0.087 A 
ATOM     32  N   UNL     1       3.455  -0.871  -0.036  0.00  0.00    -0.360 N 
ATOM     33  H   UNL     1       4.399  -0.650  -0.044  0.00  0.00    +0.165 HD
ENDBRANCH  23  30
ENDBRANCH  22  23
ENDBRANCH   1  22
TORSDOF 6
