REMARK  Name = ZINC33393668
REMARK  4 active torsions:
REMARK  status: ('A' for Active; 'I' for Inactive)
REMARK    1  A    between atoms: C_8  and  C_24
REMARK    2  A    between atoms: C_27  and  O_30
REMARK    3  A    between atoms: O_30  and  C_31
REMARK    4  A    between atoms: C_31  and  C_32
REMARK                            x       y       z     vdW  Elec       q    Type
REMARK                         _______ _______ _______ _____ _____    ______ ____
ROOT
ATOM      1  C   UNL     1       2.428  -4.348  -0.045  0.00  0.00    +0.039 A 
ATOM      2  C   UNL     1       1.084  -4.009  -0.030  0.00  0.00    +0.116 A 
ATOM      3  N   UNL     1       0.741  -2.731  -0.019  0.00  0.00    -0.222 NA
ATOM      4  C   UNL     1       1.665  -1.782  -0.023  0.00  0.00    +0.225 A 
ATOM      5  N   UNL     1       2.957  -2.072  -0.043  0.00  0.00    -0.222 NA
ATOM      6  C   UNL     1       3.368  -3.329  -0.049  0.00  0.00    +0.116 A 
ATOM      7  N   UNL     1       1.269  -0.452  -0.013  0.00  0.00    -0.222 N 
ATOM      8  C   UNL     1       2.161   0.714  -0.015  0.00  0.00    +0.152 C 
ATOM      9  C   UNL     1       1.263   1.923   0.000  0.00  0.00    +0.072 A 
ATOM     10  C   UNL     1       1.536   3.363   0.005  0.00  0.00    +0.199 A 
ATOM     11  O   UNL     1       2.674   3.798  -0.003  0.00  0.00    -0.287 OA
ATOM     12  C   UNL     1       0.364   4.260   0.021  0.00  0.00    +0.066 A 
ATOM     13  C   UNL     1       0.509   5.646   0.026  0.00  0.00    +0.035 A 
ATOM     14  C   UNL     1      -0.613   6.447   0.043  0.00  0.00    +0.042 A 
ATOM     15  C   UNL     1      -1.879   5.875   0.051  0.00  0.00    +0.023 A 
ATOM     16  C   UNL     1      -2.034   4.506   0.045  0.00  0.00    +0.048 A 
ATOM     17  C   UNL     1      -0.915   3.678   0.030  0.00  0.00    +0.140 A 
ATOM     18  O   UNL     1      -1.055   2.340   0.030  0.00  0.00    -0.450 OA
ATOM     19  C   UNL     1      -0.018   1.480   0.010  0.00  0.00    +0.199 A 
ATOM     20  C   UNL     1       0.002  -0.004   0.002  0.00  0.00    +0.290 C 
ATOM     21  O   UNL     1      -0.985  -0.712   0.008  0.00  0.00    -0.266 OA
ATOM     22 CL   UNL     1      -0.443   8.175   0.051  0.00  0.00    -0.084 Cl
ENDROOT
BRANCH   8  23
ATOM     23  C   UNL     1       3.035   0.701   1.213  0.00  0.00    -0.022 A 
ATOM     24  C   UNL     1       2.513   0.299   2.428  0.00  0.00    +0.009 A 
ATOM     25  C   UNL     1       3.313   0.282   3.554  0.00  0.00    +0.046 A 
ATOM     26  C   UNL     1       4.640   0.678   3.466  0.00  0.00    +0.121 A 
ATOM     27  C   UNL     1       5.161   1.086   2.247  0.00  0.00    +0.046 A 
ATOM     28  C   UNL     1       4.357   1.097   1.123  0.00  0.00    +0.009 A 
BRANCH  26  29
ATOM     29  O   UNL     1       5.428   0.666   4.573  0.00  0.00    -0.483 OA
BRANCH  29  30
ATOM     30  C   UNL     1       4.825   0.234   5.795  0.00  0.00    +0.324 C 
BRANCH  30  31
ATOM     31  C   UNL     1       5.844   0.288   6.904  0.00  0.00    +0.248 C 
ATOM     32  O   UNL     1       6.975   0.659   6.672  0.00  0.00    -0.272 OA
ATOM     33  N   UNL     1       5.498  -0.077   8.154  0.00  0.00    -0.327 N 
ATOM     34  H   UNL     1       6.241  -0.038   8.964  0.00  0.00    +0.145 HD
ATOM     35  H   UNL     1       4.472  -0.414   8.365  0.00  0.00    +0.145 HD
ENDBRANCH  30  31
ENDBRANCH  29  30
ENDBRANCH  26  29
ENDBRANCH   8  23
TORSDOF 4
