REMARK  Name = ZINC40034099
REMARK  6 active torsions:
REMARK  status: ('A' for Active; 'I' for Inactive)
REMARK    1  A    between atoms: C_1  and  N_2
REMARK    2  A    between atoms: C_3  and  C_5
REMARK    3  A    between atoms: C_5  and  S_6
REMARK    4  A    between atoms: S_6  and  C_7
REMARK    5  A    between atoms: C_11  and  C_20
REMARK    6  A    between atoms: N_12  and  C_13
REMARK                            x       y       z     vdW  Elec       q    Type
REMARK                         _______ _______ _______ _____ _____    ______ ____
ROOT
ATOM      1  C   UNL     1      -2.302  -4.240  -0.067  0.00  0.00    +0.241 C 
ATOM      2  N   UNL     1      -1.506  -4.720   1.075  0.00  0.00    -0.237 N 
ATOM      3  N   UNL     1      -0.832  -5.866   0.637  0.00  0.00    -0.169 NA
ATOM      4  C   UNL     1      -1.117  -6.136  -0.610  0.00  0.00    +0.151 C 
ATOM      5  N   UNL     1      -2.014  -5.202  -1.143  0.00  0.00    -0.254 N 
ATOM      6  H   UNL     1      -1.456  -4.319   1.957  0.00  0.00    +0.171 HD
ENDROOT
BRANCH   4   7
ATOM      7  C   UNL     1      -0.593  -7.226  -1.323  0.00  0.00    +0.022 C 
ATOM      8  C   UNL     1       0.218  -8.247  -0.827  0.00  0.00    +0.006 A 
ATOM      9  C   UNL     1       0.744  -8.508   0.456  0.00  0.00    +0.010 A 
ATOM     10  C   UNL     1       1.521  -9.604   0.655  0.00  0.00    +0.001 A 
ATOM     11  C   UNL     1       1.820 -10.487  -0.385  0.00  0.00    +0.002 A 
ATOM     12  C   UNL     1       1.349 -10.297  -1.642  0.00  0.00    +0.026 A 
ATOM     13  C   UNL     1       0.529  -9.175  -1.927  0.00  0.00    +0.043 A 
ATOM     14  N   UNL     1      -0.043  -8.774  -3.045  0.00  0.00    -0.380 N 
ATOM     15  C   UNL     1      -0.794  -7.541  -2.789  0.00  0.00    +0.152 C 
ATOM     16  H   UNL     1       0.020  -9.225  -3.901  0.00  0.00    +0.160 HD
ENDBRANCH   4   7
BRANCH   5  17
ATOM     17  C   UNL     1      -2.534  -5.185  -2.440  0.00  0.00    +0.038 A 
ATOM     18  C   UNL     1      -3.744  -5.811  -2.714  0.00  0.00    +0.025 A 
ATOM     19  C   UNL     1      -4.255  -5.792  -3.997  0.00  0.00    +0.022 A 
ATOM     20  C   UNL     1      -3.563  -5.151  -5.009  0.00  0.00    +0.041 A 
ATOM     21  C   UNL     1      -2.358  -4.527  -4.740  0.00  0.00    +0.022 A 
ATOM     22  C   UNL     1      -1.845  -4.537  -3.457  0.00  0.00    +0.025 A 
ATOM     23 CL   UNL     1      -4.208  -5.130  -6.621  0.00  0.00    -0.084 Cl
ENDBRANCH   5  17
BRANCH   1  24
ATOM     24  S   UNL     1      -1.778  -2.572  -0.550  0.00  0.00    -0.108 S 
BRANCH  24  25
ATOM     25  C   UNL     1      -0.007  -2.751  -0.895  0.00  0.00    +0.168 C 
BRANCH  25  28
ATOM     26  C   UNL     1       2.420  -0.016  -2.028  0.00  0.00    +0.128 C 
ATOM     27  N   UNL     1       1.868  -1.310  -1.621  0.00  0.00    -0.318 N 
ATOM     28  C   UNL     1       0.561  -1.419  -1.313  0.00  0.00    +0.223 C 
ATOM     29  O   UNL     1      -0.159  -0.445  -1.373  0.00  0.00    -0.275 OA
ATOM     30  H   UNL     1       2.444  -2.090  -1.574  0.00  0.00    +0.148 HD
ENDBRANCH  25  28
ENDBRANCH  24  25
ENDBRANCH   1  24
TORSDOF 5
