REMARK  Name = ZINC13239049
REMARK  10 active torsions:
REMARK  status: ('A' for Active; 'I' for Inactive)
REMARK    1  A    between atoms: C_4  and  N_7
REMARK    2  A    between atoms: N_7  and  C_8
REMARK    3  A    between atoms: C_8  and  C_9
REMARK    4  A    between atoms: C_14  and  C_16
REMARK    5  A    between atoms: C_16  and  S_17
REMARK    6  A    between atoms: S_17  and  C_18
REMARK    7  A    between atoms: C_21  and  C_27
REMARK    8  A    between atoms: N_22  and  C_23
REMARK    9  A    between atoms: C_23  and  C_24
REMARK   10  A    between atoms: C_24  and  C_25
REMARK                            x       y       z     vdW  Elec       q    Type
REMARK                         _______ _______ _______ _____ _____    ______ ____
ROOT
ATOM      1  C   UNL     1       2.684   9.615  -0.285  0.00  0.00    +0.173 C 
ENDROOT
BRANCH   1   3
ATOM      2  N   UNL     1       3.356  11.976   0.023  0.00  0.00    -0.263 N 
ATOM      3  C   UNL     1       3.668  10.747  -0.434  0.00  0.00    +0.230 C 
ATOM      4  O   UNL     1       4.741  10.552  -0.965  0.00  0.00    -0.274 OA
BRANCH   2   8
ATOM      5  C   UNL     1       6.189  15.028  -0.105  0.00  0.00    +0.000 A 
ATOM      6  C   UNL     1       5.062  15.099  -0.903  0.00  0.00    +0.002 A 
ATOM      7  C   UNL     1       4.121  14.088  -0.863  0.00  0.00    +0.023 A 
ATOM      8  C   UNL     1       4.308  13.001  -0.020  0.00  0.00    +0.037 A 
ATOM      9  C   UNL     1       5.438  12.936   0.785  0.00  0.00    +0.023 A 
ATOM     10  C   UNL     1       6.377  13.947   0.736  0.00  0.00    +0.002 A 
ENDBRANCH   2   8
BRANCH   2  11
ATOM     11  C   UNL     1       2.021  12.238   0.565  0.00  0.00    +0.187 C 
BRANCH  11  12
ATOM     12  C   UNL     1       2.016  11.961   2.047  0.00  0.00    +0.122 A 
ATOM     13  C   UNL     1       2.297  12.853   3.014  0.00  0.00    +0.046 A 
ATOM     14  C   UNL     1       2.174  12.172   4.247  0.00  0.00    +0.041 A 
ATOM     15  C   UNL     1       1.826  10.905   3.959  0.00  0.00    +0.195 A 
ATOM     16  O   UNL     1       1.727  10.785   2.625  0.00  0.00    -0.466 OA
ENDBRANCH  11  12
ENDBRANCH   2  11
ENDBRANCH   1   3
BRANCH   1  17
ATOM     17  S   UNL     1       3.390   8.105  -0.991  0.00  0.00    -0.077 S 
BRANCH  17  18
ATOM     18  C   UNL     1       2.069   6.979  -0.689  0.00  0.00    +0.192 A 
ATOM     19  N   UNL     1       0.926   7.258  -0.104  0.00  0.00    -0.122 NA
ATOM     20  N   UNL     1       0.191   6.207  -0.045  0.00  0.00    -0.128 NA
ATOM     21  C   UNL     1       0.819   5.188  -0.590  0.00  0.00    +0.172 A 
ATOM     22  N   UNL     1       2.045   5.652  -1.014  0.00  0.00    -0.301 N 
BRANCH  21  23
ATOM     23  C   UNL     1       0.312   3.812  -0.717  0.00  0.00    +0.056 A 
ATOM     24  C   UNL     1      -0.971   3.347  -0.571  0.00  0.00    +0.019 A 
ATOM     25  C   UNL     1      -1.209   2.002  -0.744  0.00  0.00    +0.008 A 
ATOM     26  C   UNL     1      -0.171   1.178  -1.042  0.00  0.00    +0.046 A 
ATOM     27  S   UNL     1       1.205   2.315  -1.099  0.00  0.00    -0.094 S 
ENDBRANCH  21  23
BRANCH  22  28
ATOM     28  C   UNL     1       3.101   4.883  -1.677  0.00  0.00    +0.137 C 
BRANCH  28  29
ATOM     29  C   UNL     1       2.900   4.943  -3.193  0.00  0.00    +0.147 C 
BRANCH  29  30
ATOM     30  C   UNL     1       3.987   4.152  -3.875  0.00  0.00    +0.358 C 
ATOM     31  O   UNL     1       4.835   3.598  -3.217  0.00  0.00    -0.246 OA
ATOM     32  O   UNL     1       4.012   4.064  -5.214  0.00  0.00    -0.246 OA
ENDBRANCH  29  30
ENDBRANCH  28  29
ENDBRANCH  22  28
ENDBRANCH  17  18
ENDBRANCH   1  17
TORSDOF 10
