REMARK  Name = ZINC19658257
REMARK  8 active torsions:
REMARK  status: ('A' for Active; 'I' for Inactive)
REMARK    1  A    between atoms: C_1  and  C_2
REMARK    2  A    between atoms: N_6  and  C_31
REMARK    3  A    between atoms: C_9  and  N_14
REMARK    4  A    between atoms: C_15  and  C_17
REMARK    5  A    between atoms: C_17  and  C_18
REMARK    6  A    between atoms: C_18  and  C_19
REMARK    7  A    between atoms: C_19  and  C_20
REMARK    8  A    between atoms: C_22  and  C_25
REMARK                            x       y       z     vdW  Elec       q    Type
REMARK                         _______ _______ _______ _____ _____    ______ ____
ROOT
ATOM      1  N   UNL     1      -1.156  -0.694   0.009  0.00  0.00    -0.285 N 
ATOM      2  C   UNL     1      -0.001  -0.018   0.169  0.00  0.00    +0.217 C 
ATOM      3  O   UNL     1       1.041  -0.622   0.311  0.00  0.00    -0.275 OA
ATOM      4  H   UNL     1      -2.111  -0.149  -0.032  0.00  0.00    +0.155 HD
ENDROOT
BRANCH   1  12
ATOM      5  C   UNL     1      -1.912  -8.393   0.193  0.00  0.00    +0.062 C 
ATOM      6  C   UNL     1      -1.709  -6.939   0.624  0.00  0.00    +0.256 C 
ATOM      7  C   UNL     1      -3.045  -6.323   0.954  0.00  0.00    +0.260 C 
ATOM      8  O   UNL     1      -3.952  -7.017   1.360  0.00  0.00    -0.271 OA
ATOM      9  N   UNL     1      -3.227  -4.994   0.794  0.00  0.00    -0.268 N 
ATOM     10  C   UNL     1      -2.174  -4.219   0.289  0.00  0.00    +0.080 A 
ATOM     11  C   UNL     1      -2.193  -2.839   0.404  0.00  0.00    +0.050 A 
ATOM     12  C   UNL     1      -1.140  -2.090  -0.104  0.00  0.00    +0.035 A 
ATOM     13  C   UNL     1      -0.074  -2.724  -0.729  0.00  0.00    +0.027 A 
ATOM     14  C   UNL     1      -0.052  -4.101  -0.839  0.00  0.00    +0.049 A 
ATOM     15  C   UNL     1      -1.099  -4.852  -0.334  0.00  0.00    +0.143 A 
ATOM     16  O   UNL     1      -1.093  -6.209  -0.440  0.00  0.00    -0.478 OA
ATOM     17  C   UNL     1      -4.507  -4.372   1.144  0.00  0.00    +0.138 C 
ENDBRANCH   1  12
BRANCH   2  18
ATOM     18  C   UNL     1      -0.004   1.489   0.172  0.00  0.00    +0.096 C 
BRANCH  18  19
ATOM     19  C   UNL     1       1.424   2.002   0.369  0.00  0.00    +0.019 C 
BRANCH  19  20
ATOM     20  C   UNL     1       1.421   3.532   0.372  0.00  0.00    +0.099 C 
BRANCH  20  21
ATOM     21  C   UNL     1       2.827   4.037   0.566  0.00  0.00    +0.228 A 
ATOM     22  N   UNL     1       3.696   4.300  -0.378  0.00  0.00    -0.191 NA
ATOM     23  C   UNL     1       4.810   4.723   0.262  0.00  0.00    +0.202 A 
ATOM     24  N   UNL     1       4.554   4.693   1.544  0.00  0.00    -0.056 NA
ATOM     25  O   UNL     1       3.420   4.306   1.734  0.00  0.00    -0.338 OA
BRANCH  23  26
ATOM     26  C   UNL     1       6.084   5.144  -0.372  0.00  0.00    +0.022 A 
ATOM     27  C   UNL     1       6.217   5.119  -1.759  0.00  0.00    +0.012 A 
ATOM     28  C   UNL     1       7.402   5.516  -2.343  0.00  0.00    +0.001 A 
ATOM     29  C   UNL     1       8.462   5.927  -1.555  0.00  0.00    +0.000 A 
ATOM     30  C   UNL     1       8.338   5.948  -0.177  0.00  0.00    +0.001 A 
ATOM     31  C   UNL     1       7.155   5.559   0.418  0.00  0.00    +0.012 A 
ENDBRANCH  23  26
ENDBRANCH  20  21
ENDBRANCH  19  20
ENDBRANCH  18  19
ENDBRANCH   2  18
TORSDOF 6
