REMARK  Name = ZINC57619570
REMARK  8 active torsions:
REMARK  status: ('A' for Active; 'I' for Inactive)
REMARK    1  A    between atoms: C_1  and  C_2
REMARK    2  A    between atoms: C_5  and  C_8
REMARK    3  A    between atoms: C_8  and  C_10
REMARK    4  A    between atoms: C_8  and  N_13
REMARK    5  A    between atoms: N_16  and  C_17
REMARK    6  A    between atoms: C_17  and  C_18
REMARK    7  A    between atoms: C_22  and  S_24
REMARK    8  A    between atoms: S_24  and  N_27
REMARK                            x       y       z     vdW  Elec       q    Type
REMARK                         _______ _______ _______ _____ _____    ______ ____
ROOT
ATOM      1  N   UNL     1      -0.816  -4.781   1.039  0.00  0.00    -0.292 N 
ATOM      2  C   UNL     1      -1.361  -6.009   0.935  0.00  0.00    +0.300 C 
ATOM      3  O   UNL     1      -1.125  -6.698  -0.039  0.00  0.00    -0.253 OA
ATOM      4  N   UNL     1      -2.166  -6.474   1.910  0.00  0.00    -0.295 N 
ATOM      5  H   UNL     1      -1.004  -4.231   1.816  0.00  0.00    +0.151 HD
ATOM      6  H   UNL     1      -2.354  -5.925   2.687  0.00  0.00    +0.151 HD
ENDROOT
BRANCH   1   7
ATOM      7  C   UNL     1       0.059  -4.275  -0.021  0.00  0.00    +0.108 C 
BRANCH   7  12
ATOM      8  C   UNL     1      -0.018   1.503   0.010  0.00  0.00    +0.044 C 
ATOM      9  C   UNL     1       0.002  -0.004   0.002  0.00  0.00    -0.050 A 
ATOM     10  C   UNL     1       0.006  -0.689  -1.199  0.00  0.00    +0.004 A 
ATOM     11  C   UNL     1       0.025  -2.071  -1.206  0.00  0.00    +0.006 A 
ATOM     12  C   UNL     1       0.040  -2.768  -0.013  0.00  0.00    -0.027 A 
ATOM     13  C   UNL     1       0.037  -2.084   1.188  0.00  0.00    +0.006 A 
ATOM     14  C   UNL     1       0.023  -0.702   1.195  0.00  0.00    +0.004 A 
ENDBRANCH   7  12
BRANCH   7  15
ATOM     15  C   UNL     1       1.488  -4.768   0.218  0.00  0.00    +0.014 C 
ATOM     16  C   UNL     1       2.203  -5.455  -0.947  0.00  0.00    +0.006 C 
ATOM     17  C   UNL     1       1.718  -6.281   0.246  0.00  0.00    +0.006 C 
ENDBRANCH   7  15
ENDBRANCH   1   7
BRANCH   4  18
ATOM     18  C   UNL     1      -2.758  -7.810   1.797  0.00  0.00    +0.141 C 
BRANCH  18  19
ATOM     19  C   UNL     1      -3.610  -8.086   3.009  0.00  0.00    -0.028 A 
ATOM     20  C   UNL     1      -3.050  -8.676   4.127  0.00  0.00    +0.005 A 
ATOM     21  C   UNL     1      -3.832  -8.929   5.239  0.00  0.00    +0.002 A 
ATOM     22  C   UNL     1      -5.173  -8.592   5.232  0.00  0.00    +0.028 A 
ATOM     23  C   UNL     1      -5.732  -8.002   4.114  0.00  0.00    +0.105 A 
ATOM     24  C   UNL     1      -4.949  -7.745   3.004  0.00  0.00    +0.033 A 
BRANCH  23  25
ATOM     25  S   UNL     1      -7.441  -7.574   4.106  0.00  0.00    +0.056 S 
ATOM     26  O   UNL     1      -7.843  -7.534   2.743  0.00  0.00    -0.153 OA
ATOM     27  O   UNL     1      -8.075  -8.412   5.062  0.00  0.00    -0.153 OA
BRANCH  25  28
ATOM     28  N   UNL     1      -7.561  -6.025   4.680  0.00  0.00    -0.204 NA
ATOM     29  H   UNL     1      -8.279  -5.449   4.376  0.00  0.00    +0.144 HD
ATOM     30  H   UNL     1      -6.912  -5.695   5.322  0.00  0.00    +0.144 HD
ENDBRANCH  25  28
ENDBRANCH  23  25
ENDBRANCH  18  19
ENDBRANCH   4  18
TORSDOF 7
