REMARK  Name = ZINC08969816
REMARK  5 active torsions:
REMARK  status: ('A' for Active; 'I' for Inactive)
REMARK    1  A    between atoms: C_1  and  C_2
REMARK    2  A    between atoms: C_4  and  N_38
REMARK    3  A    between atoms: C_7  and  N_8
REMARK    4  A    between atoms: C_23  and  C_29
REMARK    5  A    between atoms: C_29  and  C_31
REMARK                            x       y       z     vdW  Elec       q    Type
REMARK                         _______ _______ _______ _____ _____    ______ ____
ROOT
ATOM      1  N   UNL     1      -3.260  -2.408   0.994  0.00  0.00    -0.210 N 
ATOM      2  C   UNL     1      -2.450  -1.642   0.200  0.00  0.00    +0.232 C 
ATOM      3  O   UNL     1      -1.842  -1.999  -0.786  0.00  0.00    -0.274 OA
ATOM      4  C   UNL     1      -2.468  -0.276   0.800  0.00  0.00    +0.113 C 
ATOM      5  C   UNL     1      -2.522   0.991  -0.024  0.00  0.00    +0.100 C 
ATOM      6  C   UNL     1      -1.213   1.748   0.017  0.00  0.00    -0.021 A 
ATOM      7  C   UNL     1      -0.013   1.076   0.008  0.00  0.00    +0.006 A 
ATOM      8  C   UNL     1       1.177   1.785   0.000  0.00  0.00    +0.000 A 
ATOM      9  C   UNL     1       1.162   3.169   0.005  0.00  0.00    +0.001 A 
ATOM     10  C   UNL     1      -0.035   3.852   0.028  0.00  0.00    +0.008 A 
ATOM     11  C   UNL     1      -1.240   3.146   0.051  0.00  0.00    -0.019 A 
ATOM     12  C   UNL     1      -2.524   3.875   0.088  0.00  0.00    +0.022 C 
ATOM     13  C   UNL     1      -3.653   3.208   0.404  0.00  0.00    +0.054 C 
ATOM     14  C   UNL     1      -4.161   1.077   1.762  0.00  0.00    +0.141 C 
ATOM     15  C   UNL     1      -3.967  -0.312   1.296  0.00  0.00    +0.116 C 
ATOM     16  C   UNL     1      -4.029  -1.651   1.848  0.00  0.00    +0.232 C 
ATOM     17  O   UNL     1      -4.623  -2.020   2.837  0.00  0.00    -0.274 OA
ATOM     18  N   UNL     1      -3.700   1.688   0.453  0.00  0.00    -0.384 NA
ATOM     19  H   UNL     1      -4.433   1.444  -0.225  0.00  0.00    +0.127 HD
ENDROOT
BRANCH   1  26
ATOM     20  C   UNL     1      -5.109  -3.634  -0.789  0.00  0.00    +0.046 C 
ATOM     21  C   UNL     1      -4.189  -4.446   0.086  0.00  0.00    -0.026 A 
ATOM     22  C   UNL     1      -4.229  -5.826   0.038  0.00  0.00    +0.038 A 
ATOM     23  C   UNL     1      -3.385  -6.572   0.840  0.00  0.00    +0.127 A 
ATOM     24  C   UNL     1      -2.499  -5.939   1.693  0.00  0.00    +0.034 A 
ATOM     25  C   UNL     1      -2.452  -4.560   1.742  0.00  0.00    +0.026 A 
ATOM     26  C   UNL     1      -3.302  -3.808   0.942  0.00  0.00    +0.047 A 
BRANCH  23  27
ATOM     27  N   UNL     1      -3.430  -8.050   0.785  0.00  0.00    +0.056 N 
ATOM     28  O   UNL     1      -4.209  -8.609   0.034  0.00  0.00    -0.126 OA
ATOM     29  O   UNL     1      -2.687  -8.709   1.492  0.00  0.00    -0.126 OA
ENDBRANCH  23  27
ENDBRANCH   1  26
BRANCH  14  30
ATOM     30  C   UNL     1      -3.477   1.298   3.087  0.00  0.00    +0.183 C 
ATOM     31  O   UNL     1      -2.392   1.836   3.127  0.00  0.00    -0.290 OA
BRANCH  30  32
ATOM     32  C   UNL     1      -4.127   0.860   4.332  0.00  0.00    +0.019 A 
ATOM     33  C   UNL     1      -5.383   0.244   4.290  0.00  0.00    +0.013 A 
ATOM     34  C   UNL     1      -5.983  -0.168   5.460  0.00  0.00    +0.020 A 
ATOM     35  C   UNL     1      -5.352   0.037   6.677  0.00  0.00    +0.041 A 
ATOM     36  C   UNL     1      -4.111   0.651   6.726  0.00  0.00    +0.020 A 
ATOM     37  C   UNL     1      -3.496   1.063   5.564  0.00  0.00    +0.013 A 
ATOM     38 CL   UNL     1      -6.120  -0.478   8.146  0.00  0.00    -0.084 Cl
ENDBRANCH  30  32
ENDBRANCH  14  30
TORSDOF 4
