REMARK  Name = ZINC36227309
REMARK  4 active torsions:
REMARK  status: ('A' for Active; 'I' for Inactive)
REMARK    1  A    between atoms: C_4  and  C_10
REMARK    2  A    between atoms: C_6  and  N_7
REMARK    3  A    between atoms: C_16  and  C_19
REMARK    4  A    between atoms: C_19  and  O_20
REMARK                            x       y       z     vdW  Elec       q    Type
REMARK                         _______ _______ _______ _____ _____    ______ ____
ROOT
ATOM      1  C   UNL     1       3.695  -0.686  -0.038  0.00  0.00    +0.248 C 
ATOM      2  O   UNL     1       4.734  -0.065  -0.149  0.00  0.00    -0.270 OA
ATOM      3  N   UNL     1       3.719  -2.030   0.056  0.00  0.00    -0.297 N 
ATOM      4  C   UNL     1       2.470  -2.803   0.060  0.00  0.00    +0.108 C 
ATOM      5  C   UNL     1       2.548  -3.873  -1.034  0.00  0.00    +0.019 C 
ATOM      6  C   UNL     1       3.809  -4.715  -0.829  0.00  0.00    +0.009 C 
ATOM      7  C   UNL     1       5.046  -3.821  -0.939  0.00  0.00    +0.032 C 
ATOM      8  C   UNL     1       4.996  -2.751   0.150  0.00  0.00    +0.113 C 
ENDROOT
BRANCH   1  12
ATOM      9  C   UNL     1      -0.015   1.381   0.052  0.00  0.00    +0.034 A 
ATOM     10  C   UNL     1       0.863   1.588  -0.998  0.00  0.00    +0.017 A 
ATOM     11  C   UNL     1       2.070   0.920  -1.034  0.00  0.00    +0.026 A 
ATOM     12  C   UNL     1       2.404   0.034  -0.007  0.00  0.00    +0.052 A 
ATOM     13  C   UNL     1       1.514  -0.169   1.049  0.00  0.00    +0.046 A 
ATOM     14  C   UNL     1       0.311   0.505   1.072  0.00  0.00    +0.127 A 
ATOM     15  I   UNL     1       3.397   1.233  -2.624  0.00  0.00    -0.043 I 
BRANCH  14  16
ATOM     16  N   UNL     1      -0.634   0.291   2.191  0.00  0.00    +0.056 N 
ATOM     17  O   UNL     1      -1.689   0.881   2.213  0.00  0.00    -0.126 OA
ATOM     18  O   UNL     1      -0.351  -0.474   3.083  0.00  0.00    -0.126 OA
ENDBRANCH  14  16
ENDBRANCH   1  12
BRANCH   7  19
ATOM     19  C   UNL     1       6.307  -4.670  -0.767  0.00  0.00    +0.160 C 
BRANCH  19  20
ATOM     20  O   UNL     1       7.462  -3.856  -0.985  0.00  0.00    -0.395 OA
ATOM     21  H   UNL     1       8.300  -4.330  -0.892  0.00  0.00    +0.209 HD
ENDBRANCH  19  20
ENDBRANCH   7  19
TORSDOF 4
