REMARK  Name = ZINC12765703
REMARK  12 active torsions:
REMARK  status: ('A' for Active; 'I' for Inactive)
REMARK    1  A    between atoms: C_1  and  C_2
REMARK    2  A    between atoms: C_5  and  S_8
REMARK    3  A    between atoms: S_8  and  C_11
REMARK    4  A    between atoms: C_14  and  N_17
REMARK    5  A    between atoms: N_17  and  N_18
REMARK    6  A    between atoms: C_19  and  C_21
REMARK    7  A    between atoms: C_21  and  C_23
REMARK    8  A    between atoms: C_21  and  N_26
REMARK    9  A    between atoms: C_23  and  C_24
REMARK   10  A    between atoms: C_23  and  C_25
REMARK   11  A    between atoms: C_27  and  C_29
REMARK   12  A    between atoms: C_34  and  C_35
REMARK                            x       y       z     vdW  Elec       q    Type
REMARK                         _______ _______ _______ _____ _____    ______ ____
ROOT
ATOM      1  N   UNL     1       2.428   4.021  -1.078  0.00  0.00    -0.235 N 
ATOM      2  C   UNL     1       2.324   5.300  -0.664  0.00  0.00    +0.250 C 
ATOM      3  O   UNL     1       1.239   5.753  -0.364  0.00  0.00    -0.272 OA
ATOM      4  H   UNL     1       3.280   3.683  -1.397  0.00  0.00    +0.173 HD
ENDROOT
BRANCH   1   5
ATOM      5  N   UNL     1       1.308   3.181  -1.048  0.00  0.00    -0.264 N 
ATOM      6  H   UNL     1       0.456   3.519  -0.729  0.00  0.00    +0.170 HD
BRANCH   5  10
ATOM      7  C   UNL     1       1.632  -0.768  -2.327  0.00  0.00    +0.094 A 
ATOM      8  C   UNL     1       0.417  -0.287  -1.873  0.00  0.00    +0.029 A 
ATOM      9  C   UNL     1       0.306   1.022  -1.448  0.00  0.00    +0.026 A 
ATOM     10  C   UNL     1       1.417   1.856  -1.477  0.00  0.00    +0.045 A 
ATOM     11  C   UNL     1       2.635   1.370  -1.933  0.00  0.00    +0.026 A 
ATOM     12  C   UNL     1       2.739   0.060  -2.357  0.00  0.00    +0.029 A 
BRANCH   7  13
ATOM     13  S   UNL     1       1.769  -2.439  -2.868  0.00  0.00    +0.025 S 
ATOM     14  O   UNL     1       3.137  -2.799  -2.732  0.00  0.00    -0.164 OA
ATOM     15  O   UNL     1       0.724  -3.160  -2.228  0.00  0.00    -0.164 OA
BRANCH  13  20
ATOM     16  C   UNL     1       0.547  -2.509  -8.776  0.00  0.00    +0.044 C 
ATOM     17  C   UNL     1       0.852  -2.492  -7.300  0.00  0.00    -0.050 A 
ATOM     18  C   UNL     1       2.152  -2.309  -6.865  0.00  0.00    +0.005 A 
ATOM     19  C   UNL     1       2.432  -2.294  -5.512  0.00  0.00    +0.027 A 
ATOM     20  C   UNL     1       1.412  -2.459  -4.593  0.00  0.00    +0.094 A 
ATOM     21  C   UNL     1       0.113  -2.646  -5.028  0.00  0.00    +0.027 A 
ATOM     22  C   UNL     1      -0.167  -2.658  -6.381  0.00  0.00    +0.005 A 
ENDBRANCH  13  20
ENDBRANCH   7  13
ENDBRANCH   5  10
ENDBRANCH   1   5
BRANCH   2  23
ATOM     23  C   UNL     1       3.553   6.166  -0.575  0.00  0.00    +0.163 C 
BRANCH  23  24
ATOM     24  N   UNL     1       3.155   7.574  -0.503  0.00  0.00    -0.300 N 
ATOM     25  C   UNL     1       4.004   8.537  -0.915  0.00  0.00    +0.245 C 
ATOM     26  O   UNL     1       5.101   8.236  -1.344  0.00  0.00    -0.270 OA
ATOM     27  H   UNL     1       2.280   7.814  -0.161  0.00  0.00    +0.150 HD
BRANCH  25  28
ATOM     28  C   UNL     1       3.602   9.957  -0.843  0.00  0.00    +0.040 A 
ATOM     29  C   UNL     1       2.302  10.300  -0.466  0.00  0.00    +0.013 A 
ATOM     30  C   UNL     1       1.934  11.627  -0.396  0.00  0.00    +0.001 A 
ATOM     31  C   UNL     1       2.848  12.619  -0.709  0.00  0.00    +0.000 A 
ATOM     32  C   UNL     1       4.136  12.286  -1.088  0.00  0.00    +0.004 A 
ATOM     33  C   UNL     1       4.518  10.962  -1.157  0.00  0.00    -0.038 A 
ATOM     34  C   UNL     1       5.921  10.602  -1.570  0.00  0.00    +0.044 C 
ENDBRANCH  25  28
ENDBRANCH  23  24
BRANCH  23  35
ATOM     35  C   UNL     1       4.347   5.797   0.680  0.00  0.00    +0.012 C 
ATOM     36  C   UNL     1       5.657   6.587   0.705  0.00  0.00    +0.009 C 
ATOM     37  C   UNL     1       3.523   6.136   1.923  0.00  0.00    +0.009 C 
ENDBRANCH  23  35
ENDBRANCH   2  23
TORSDOF 8
