REMARK  Name = ZINC13713318
REMARK  3 active torsions:
REMARK  status: ('A' for Active; 'I' for Inactive)
REMARK    1  A    between atoms: C_4  and  C_7
REMARK    2  A    between atoms: C_10  and  C_25
REMARK    3  A    between atoms: C_18  and  C_20
REMARK                            x       y       z     vdW  Elec       q    Type
REMARK                         _______ _______ _______ _____ _____    ______ ____
ROOT
ATOM      1  C   UNL     1       3.711  -0.707  -0.038  0.00  0.00    +0.147 C 
ATOM      2  C   UNL     1       3.817  -1.609   1.198  0.00  0.00    +0.087 C 
ATOM      3  C   UNL     1       4.878  -2.658   1.012  0.00  0.00    +0.055 C 
ATOM      4  N   UNL     1       5.141  -3.194  -0.149  0.00  0.00    -0.215 NA
ATOM      5  C   UNL     1       4.480  -2.737  -1.246  0.00  0.00    +0.251 A 
ATOM      6  N   UNL     1       3.787  -1.556  -1.226  0.00  0.00    -0.220 N 
ATOM      7  N   UNL     1       3.236  -1.393  -2.493  0.00  0.00    -0.131 NA
ATOM      8  C   UNL     1       3.619  -2.430  -3.210  0.00  0.00    +0.243 A 
ATOM      9  N   UNL     1       4.378  -3.234  -2.454  0.00  0.00    -0.176 NA
ATOM     10  N   UNL     1       3.285  -2.656  -4.547  0.00  0.00    -0.249 N 
ATOM     11  C   UNL     1       3.737  -3.757  -5.178  0.00  0.00    +0.257 C 
ATOM     12  O   UNL     1       4.438  -4.555  -4.583  0.00  0.00    -0.269 OA
ATOM     13  H   UNL     1       2.726  -2.020  -5.022  0.00  0.00    +0.158 HD
ENDROOT
BRANCH   3  14
ATOM     14  C   UNL     1       5.650  -3.096   2.184  0.00  0.00    -0.003 A 
ATOM     15  C   UNL     1       5.390  -2.545   3.443  0.00  0.00    +0.011 A 
ATOM     16  C   UNL     1       6.118  -2.961   4.537  0.00  0.00    +0.020 A 
ATOM     17  C   UNL     1       7.106  -3.922   4.392  0.00  0.00    +0.041 A 
ATOM     18  C   UNL     1       7.369  -4.472   3.148  0.00  0.00    +0.020 A 
ATOM     19  C   UNL     1       6.645  -4.070   2.046  0.00  0.00    +0.011 A 
ATOM     20 CL   UNL     1       8.018  -4.440   5.776  0.00  0.00    -0.084 Cl
ENDBRANCH   3  14
BRANCH   1  24
ATOM     21  C   UNL     1      -0.017   1.378   0.010  0.00  0.00    +0.000 A 
ATOM     22  C   UNL     1       1.171   2.086   0.002  0.00  0.00    +0.000 A 
ATOM     23  C   UNL     1       2.377   1.411  -0.013  0.00  0.00    +0.006 A 
ATOM     24  C   UNL     1       2.396   0.029  -0.020  0.00  0.00    -0.023 A 
ATOM     25  C   UNL     1       1.208  -0.679  -0.012  0.00  0.00    +0.006 A 
ATOM     26  C   UNL     1       0.002  -0.004   0.002  0.00  0.00    +0.000 A 
ENDBRANCH   1  24
BRANCH  11  27
ATOM     27  C   UNL     1       3.386  -3.995  -6.581  0.00  0.00    +0.074 A 
ATOM     28  C   UNL     1       3.739  -5.054  -7.404  0.00  0.00    +0.021 A 
ATOM     29  C   UNL     1       3.253  -5.001  -8.688  0.00  0.00    +0.008 A 
ATOM     30  C   UNL     1       2.483  -3.947  -9.058  0.00  0.00    +0.046 A 
ATOM     31  S   UNL     1       2.388  -3.000  -7.673  0.00  0.00    -0.092 S 
ENDBRANCH  11  27
TORSDOF 3
