REMARK  Name = ZINC24389768
REMARK  5 active torsions:
REMARK  status: ('A' for Active; 'I' for Inactive)
REMARK    1  A    between atoms: C_1  and  C_2
REMARK    2  A    between atoms: C_2  and  C_3
REMARK    3  A    between atoms: C_4  and  C_8
REMARK    4  A    between atoms: N_10  and  N_11
REMARK    5  A    between atoms: C_12  and  C_14
REMARK                            x       y       z     vdW  Elec       q    Type
REMARK                         _______ _______ _______ _____ _____    ______ ____
ROOT
ATOM      1  N   UNL     1      -4.753   0.669  -0.077  0.00  0.00    -0.230 N 
ATOM      2  C   UNL     1      -3.779  -0.263  -0.080  0.00  0.00    +0.267 C 
ATOM      3  O   UNL     1      -4.068  -1.445  -0.113  0.00  0.00    -0.268 OA
ATOM      4  H   UNL     1      -4.491   1.737  -0.048  0.00  0.00    +0.173 HD
ENDROOT
BRANCH   2   5
ATOM      5  C   UNL     1      -2.372   0.146  -0.044  0.00  0.00    +0.076 A 
ATOM      6  C   UNL     1      -1.234  -0.640  -0.041  0.00  0.00    +0.024 A 
ATOM      7  C   UNL     1       0.002  -0.004   0.002  0.00  0.00    -0.036 A 
ATOM      8  C   UNL     1      -0.016   1.348   0.009  0.00  0.00    -0.006 A 
ATOM      9  S   UNL     1      -1.678   1.791   0.005  0.00  0.00    -0.088 S 
ATOM     10  C   UNL     1       1.189   2.263   0.003  0.00  0.00    +0.043 C 
ATOM     11  C   UNL     1       1.901   2.086   1.355  0.00  0.00    +0.005 C 
ATOM     12  C   UNL     1       2.734   0.827   1.351  0.00  0.00    +0.001 C 
ATOM     13  C   UNL     1       1.980  -0.478   1.400  0.00  0.00    +0.005 C 
ATOM     14  C   UNL     1       1.309  -0.801   0.064  0.00  0.00    +0.036 C 
ENDBRANCH   2   5
BRANCH   1  17
ATOM     15  C   UNL     1      -7.071   1.209  -0.108  0.00  0.00    +0.270 C 
ATOM     16  O   UNL     1      -6.782   2.390  -0.075  0.00  0.00    -0.268 OA
ATOM     17  N   UNL     1      -6.097   0.277  -0.111  0.00  0.00    -0.230 N 
ATOM     18  H   UNL     1      -6.359  -0.791  -0.141  0.00  0.00    +0.173 HD
BRANCH  15  20
ATOM     19  C   UNL     1      -9.639   1.571  -0.142  0.00  0.00    +0.084 A 
ATOM     20  C   UNL     1      -8.483   0.798  -0.144  0.00  0.00    +0.118 A 
ATOM     21  S   UNL     1      -9.201  -0.835  -0.194  0.00  0.00    +0.042 S 
ATOM     22  N   UNL     1     -10.727  -0.421  -0.213  0.00  0.00    -0.110 NA
ATOM     23  N   UNL     1     -10.741   0.861  -0.183  0.00  0.00    -0.145 NA
BRANCH  19  25
ATOM     24  C   UNL     1      -9.598   3.627  -1.528  0.00  0.00    +0.010 C 
ATOM     25  C   UNL     1      -9.627   3.078  -0.100  0.00  0.00    +0.055 C 
ENDBRANCH  19  25
ENDBRANCH  15  20
ENDBRANCH   1  17
TORSDOF 4
