REMARK  Name = ZINC25533639
REMARK  13 active torsions:
REMARK  status: ('A' for Active; 'I' for Inactive)
REMARK    1  A    between atoms: C_1  and  C_2
REMARK    2  A    between atoms: C_3  and  C_33
REMARK    3  A    between atoms: N_4  and  C_27
REMARK    4  A    between atoms: C_5  and  N_9
REMARK    5  A    between atoms: C_6  and  C_7
REMARK    6  A    between atoms: C_10  and  C_12
REMARK    7  A    between atoms: C_12  and  N_13
REMARK    8  A    between atoms: N_13  and  C_14
REMARK    9  A    between atoms: N_13  and  C_15
REMARK   10  A    between atoms: C_15  and  C_16
REMARK   11  A    between atoms: C_21  and  O_22
REMARK   12  A    between atoms: O_22  and  C_23
REMARK   13  A    between atoms: C_27  and  C_28
REMARK                            x       y       z     vdW  Elec       q    Type
REMARK                         _______ _______ _______ _____ _____    ______ ____
ROOT
ATOM      1  N   UNL     1       1.778   3.154   0.017  0.00  0.00    -0.272 N 
ATOM      2  C   UNL     1       3.096   3.411  -0.097  0.00  0.00    +0.202 C 
ATOM      3  O   UNL     1       3.877   2.502  -0.283  0.00  0.00    -0.278 OA
ATOM      4  H   UNL     1       1.060   3.985   0.087  0.00  0.00    +0.156 HD
ENDROOT
BRANCH   1   9
ATOM      5  C   UNL     1       1.445  -1.838   0.730  0.00  0.00    +0.047 C 
ATOM      6  C   UNL     1       1.144  -0.410   0.354  0.00  0.00    -0.011 A 
ATOM      7  C   UNL     1       0.017   0.049  -0.214  0.00  0.00    +0.022 A 
ATOM      8  N   UNL     1       0.122   1.402  -0.401  0.00  0.00    -0.324 N 
ATOM      9  C   UNL     1       1.327   1.843   0.046  0.00  0.00    +0.124 A 
ATOM     10  C   UNL     1       2.026   0.749   0.538  0.00  0.00    +0.095 A 
ATOM     11  C   UNL     1      -1.177  -0.791  -0.588  0.00  0.00    +0.064 C 
BRANCH  10  12
ATOM     12  C   UNL     1       3.337   0.752   1.113  0.00  0.00    +0.103 C 
ATOM     13  N   UNL     1       4.378   0.754   1.569  0.00  0.00    -0.191 NA
ENDBRANCH  10  12
BRANCH   8  14
ATOM     14  C   UNL     1      -0.913   2.250  -0.996  0.00  0.00    +0.197 C 
BRANCH  14  15
ATOM     15  C   UNL     1      -1.898   2.662   0.069  0.00  0.00    +0.124 A 
ATOM     16  C   UNL     1      -1.858   3.805   0.776  0.00  0.00    +0.046 A 
ATOM     17  C   UNL     1      -2.966   3.781   1.655  0.00  0.00    +0.041 A 
ATOM     18  C   UNL     1      -3.611   2.621   1.437  0.00  0.00    +0.195 A 
ATOM     19  O   UNL     1      -2.959   1.947   0.475  0.00  0.00    -0.466 OA
ENDBRANCH  14  15
ENDBRANCH   8  14
ENDBRANCH   1   9
BRANCH   2  20
ATOM     20  C   UNL     1       3.599   4.827   0.008  0.00  0.00    +0.019 C 
BRANCH  20  21
ATOM     21  N   UNL     1       5.068   4.829  -0.031  0.00  0.00    +0.386 N 
ATOM     22  C   UNL     1       5.559   4.502  -1.376  0.00  0.00    -0.095 C 
ATOM     23  H   UNL     1       5.425   4.050   0.658  0.00  0.00    -0.081 HD
BRANCH  21  24
ATOM     24  C   UNL     1       5.605   6.118   0.426  0.00  0.00    -0.039 C 
BRANCH  24  25
ATOM     25  C   UNL     1       7.097   6.004   0.607  0.00  0.00    -0.022 A 
ATOM     26  C   UNL     1       7.629   5.827   1.870  0.00  0.00    +0.005 A 
ATOM     27  C   UNL     1       8.997   5.718   2.036  0.00  0.00    +0.000 A 
ATOM     28  C   UNL     1       9.837   5.797   0.940  0.00  0.00    +0.004 A 
ATOM     29  C   UNL     1       9.311   5.979  -0.324  0.00  0.00    +0.046 A 
ATOM     30  C   UNL     1       7.938   6.084  -0.493  0.00  0.00    +0.131 A 
BRANCH  30  31
ATOM     31  O   UNL     1       7.417   6.264  -1.736  0.00  0.00    -0.406 OA
BRANCH  31  32
ATOM     32  C   UNL     1       8.343   6.337  -2.822  0.00  0.00    +0.575 C 
ATOM     33  F   UNL     1       9.076   5.147  -2.891  0.00  0.00    -0.133 F 
ATOM     34  F   UNL     1       7.643   6.523  -4.019  0.00  0.00    -0.133 F 
ATOM     35  F   UNL     1       9.215   7.412  -2.621  0.00  0.00    -0.133 F 
ENDBRANCH  31  32
ENDBRANCH  30  31
ENDBRANCH  24  25
ENDBRANCH  21  24
ENDBRANCH  20  21
ENDBRANCH   2  20
TORSDOF 10
