REMARK  Name = ZINC38074945
REMARK  3 active torsions:
REMARK  status: ('A' for Active; 'I' for Inactive)
REMARK    1  A    between atoms: C_1  and  C_2
REMARK    2  A    between atoms: C_4  and  C_16
REMARK    3  A    between atoms: C_7  and  C_8
REMARK                            x       y       z     vdW  Elec       q    Type
REMARK                         _______ _______ _______ _____ _____    ______ ____
ROOT
ATOM      1  C   UNL     1      -0.018   1.503   0.010  0.00  0.00    +0.045 C 
ATOM      2  C   UNL     1       0.002  -0.004   0.002  0.00  0.00    -0.028 A 
ATOM      3  C   UNL     1       0.006  -0.707  -1.190  0.00  0.00    +0.027 A 
ATOM      4  C   UNL     1       0.025  -2.090  -1.165  0.00  0.00    +0.041 A 
ATOM      5  N   UNL     1       0.039  -2.752  -0.024  0.00  0.00    -0.232 NA
ATOM      6  C   UNL     1       0.036  -2.130   1.142  0.00  0.00    +0.172 A 
ATOM      7  C   UNL     1       0.023  -0.728   1.200  0.00  0.00    +0.099 A 
ATOM      8  N   UNL     1       0.052  -2.872   2.323  0.00  0.00    -0.219 N 
ATOM      9  C   UNL     1      -0.390  -4.149   2.472  0.00  0.00    +0.131 A 
ATOM     10  C   UNL     1      -0.199  -4.499   3.765  0.00  0.00    +0.056 A 
ATOM     11  C   UNL     1       0.375  -3.407   4.428  0.00  0.00    +0.150 A 
ATOM     12  N   UNL     1       0.530  -2.436   3.565  0.00  0.00    -0.172 NA
ATOM     13 BR   UNL     1      -0.632  -6.168   4.541  0.00  0.00    -0.047 Br
ATOM     14  C   UNL     1       0.029  -2.854  -2.464  0.00  0.00    +0.065 C 
ENDROOT
BRANCH   7  15
ATOM     15  C   UNL     1       0.026  -0.050   2.461  0.00  0.00    +0.103 C 
ATOM     16  N   UNL     1       0.029   0.488   3.462  0.00  0.00    -0.191 NA
ENDBRANCH   7  15
TORSDOF 1
