REMARK  Name = ZINC36213652
REMARK  13 active torsions:
REMARK  status: ('A' for Active; 'I' for Inactive)
REMARK    1  A    between atoms: C_1  and  C_2
REMARK    2  A    between atoms: C_2  and  C_4
REMARK    3  A    between atoms: C_2  and  N_7
REMARK    4  A    between atoms: C_4  and  C_5
REMARK    5  A    between atoms: C_4  and  C_6
REMARK    6  A    between atoms: C_8  and  C_10
REMARK    7  A    between atoms: C_10  and  C_12
REMARK    8  A    between atoms: C_10  and  N_25
REMARK    9  A    between atoms: N_20  and  C_21
REMARK   10  A    between atoms: C_21  and  C_22
REMARK   11  A    between atoms: C_21  and  C_23
REMARK   12  A    between atoms: C_21  and  C_24
REMARK   13  A    between atoms: C_26  and  C_28
REMARK                            x       y       z     vdW  Elec       q    Type
REMARK                         _______ _______ _______ _____ _____    ______ ____
ROOT
ATOM      1  C   UNL     1       0.702  -1.087  -3.599  0.00  0.00    +0.162 C 
ENDROOT
BRANCH   1   2
ATOM      2  C   UNL     1       1.843  -0.130  -3.949  0.00  0.00    +0.021 C 
ATOM      3  C   UNL     1       1.276   1.270  -4.197  0.00  0.00    +0.025 C 
ATOM      4  C   UNL     1       2.425   2.233  -4.513  0.00  0.00    +0.109 C 
ATOM      5  N   UNL     1       3.203   1.689  -5.635  0.00  0.00    -0.286 N 
ATOM      6  C   UNL     1       3.718   0.316  -5.538  0.00  0.00    +0.109 C 
ATOM      7  C   UNL     1       2.555  -0.625  -5.210  0.00  0.00    +0.025 C 
ATOM      8  C   UNL     1       3.439   2.435  -6.733  0.00  0.00    +0.303 C 
ATOM      9  O   UNL     1       2.928   3.533  -6.843  0.00  0.00    -0.253 OA
ATOM     10  N   UNL     1       4.240   1.964  -7.708  0.00  0.00    -0.294 N 
ATOM     11  H   UNL     1       4.591   1.061  -7.654  0.00  0.00    +0.151 HD
BRANCH  10  12
ATOM     12  C   UNL     1       4.583   2.816  -8.850  0.00  0.00    +0.028 C 
ATOM     13  C   UNL     1       5.305   4.070  -8.352  0.00  0.00    +0.031 C 
ATOM     14  C   UNL     1       5.499   2.046  -9.803  0.00  0.00    +0.031 C 
ATOM     15  C   UNL     1       3.305   3.221  -9.586  0.00  0.00    +0.031 C 
ENDBRANCH  10  12
ENDBRANCH   1   2
BRANCH   1  17
ATOM     16  N   UNL     1       0.685  -0.473  -1.203  0.00  0.00    -0.311 N 
ATOM     17  C   UNL     1       0.001  -0.600  -2.357  0.00  0.00    +0.234 C 
ATOM     18  O   UNL     1      -1.179  -0.322  -2.396  0.00  0.00    -0.274 OA
ATOM     19  H   UNL     1       1.629  -0.695  -1.171  0.00  0.00    +0.149 HD
BRANCH  16  21
ATOM     20  C   UNL     1      -0.011   1.530   0.015  0.00  0.00    +0.028 C 
ATOM     21  C   UNL     1       0.004   0.001   0.004  0.00  0.00    +0.072 C 
BRANCH  21  22
ATOM     22  C   UNL     1       0.744  -0.511   1.242  0.00  0.00    +0.003 C 
ATOM     23  C   UNL     1       2.140   0.111   1.295  0.00  0.00    +0.009 C 
ATOM     24  C   UNL     1      -0.036  -0.123   2.499  0.00  0.00    +0.009 C 
ENDBRANCH  21  22
ENDBRANCH  16  21
ENDBRANCH   1  17
BRANCH   1  25
ATOM     25  N   UNL     1      -0.251  -1.137  -4.710  0.00  0.00    -0.300 N 
ATOM     26  C   UNL     1      -1.031  -2.224  -4.880  0.00  0.00    +0.245 C 
ATOM     27  O   UNL     1      -0.943  -3.161  -4.112  0.00  0.00    -0.270 OA
ATOM     28  H   UNL     1      -0.322  -0.389  -5.323  0.00  0.00    +0.150 HD
BRANCH  26  29
ATOM     29  C   UNL     1      -1.993  -2.274  -6.002  0.00  0.00    +0.037 A 
ATOM     30  C   UNL     1      -2.093  -1.202  -6.889  0.00  0.00    +0.013 A 
ATOM     31  C   UNL     1      -2.992  -1.256  -7.934  0.00  0.00    +0.001 A 
ATOM     32  C   UNL     1      -3.795  -2.370  -8.102  0.00  0.00    +0.000 A 
ATOM     33  C   UNL     1      -3.702  -3.436  -7.226  0.00  0.00    +0.001 A 
ATOM     34  C   UNL     1      -2.802  -3.398  -6.181  0.00  0.00    +0.013 A 
ENDBRANCH  26  29
ENDBRANCH   1  25
TORSDOF 7
