REMARK  Name = ZINC53068286
REMARK  7 active torsions:
REMARK  status: ('A' for Active; 'I' for Inactive)
REMARK    1  A    between atoms: C_1  and  C_2
REMARK    2  A    between atoms: C_2  and  C_4
REMARK    3  A    between atoms: C_2  and  O_14
REMARK    4  A    between atoms: N_6  and  C_7
REMARK    5  A    between atoms: C_7  and  C_12
REMARK    6  A    between atoms: C_12  and  O_13
REMARK    7  A    between atoms: O_14  and  C_15
REMARK                            x       y       z     vdW  Elec       q    Type
REMARK                         _______ _______ _______ _____ _____    ______ ____
ROOT
ATOM      1  C   UNL     1       1.097  -0.435   1.238  0.00  0.00    +0.254 C 
ATOM      2  O   UNL     1       2.187  -0.900   0.981  0.00  0.00    -0.272 OA
ATOM      3  N   UNL     1       0.779  -0.128   2.511  0.00  0.00    -0.305 N 
ATOM      4  H   UNL     1      -0.118   0.172   2.728  0.00  0.00    +0.149 HD
ENDROOT
BRANCH   3   5
ATOM      5  C   UNL     1       1.786  -0.249   3.568  0.00  0.00    +0.058 C 
ATOM      6  C   UNL     1       1.243   0.319   4.902  0.00  0.00    +0.028 C 
ATOM      7  C   UNL     1       1.446   1.845   4.732  0.00  0.00    +0.002 C 
ATOM      8  C   UNL     1       2.793   1.968   3.991  0.00  0.00    +0.002 C 
ATOM      9  C   UNL     1       3.010   0.636   3.250  0.00  0.00    +0.028 C 
BRANCH   5  10
ATOM     10  C   UNL     1       2.211  -1.709   3.737  0.00  0.00    +0.181 C 
BRANCH  10  11
ATOM     11  O   UNL     1       1.059  -2.513   3.998  0.00  0.00    -0.393 OA
ATOM     12  H   UNL     1       1.254  -3.453   4.116  0.00  0.00    +0.209 HD
ENDBRANCH  10  11
ENDBRANCH   5  10
ENDBRANCH   3   5
BRANCH   1  14
ATOM     13  C   UNL     1      -0.164   1.302  -0.004  0.00  0.00    +0.062 C 
ATOM     14  C   UNL     1       0.099  -0.199   0.134  0.00  0.00    +0.256 C 
BRANCH  14  15
ATOM     15  O   UNL     1       0.621  -0.706  -1.096  0.00  0.00    -0.479 OA
BRANCH  15  16
ATOM     16  C   UNL     1      -0.282  -1.075  -2.043  0.00  0.00    +0.136 A 
ATOM     17  C   UNL     1      -1.635  -0.852  -1.838  0.00  0.00    +0.048 A 
ATOM     18  C   UNL     1      -2.551  -1.228  -2.801  0.00  0.00    +0.023 A 
ATOM     19  C   UNL     1      -2.119  -1.828  -3.972  0.00  0.00    +0.042 A 
ATOM     20  C   UNL     1      -0.769  -2.051  -4.179  0.00  0.00    +0.039 A 
ATOM     21  C   UNL     1       0.150  -1.671  -3.220  0.00  0.00    +0.061 A 
ATOM     22 BR   UNL     1       1.996  -1.971  -3.507  0.00  0.00    -0.046 Br
ATOM     23 CL   UNL     1      -3.272  -2.300  -5.180  0.00  0.00    -0.084 Cl
ENDBRANCH  15  16
ENDBRANCH  14  15
ENDBRANCH   1  14
TORSDOF 6
