REMARK  Name = ZINC22063356
REMARK  5 active torsions:
REMARK  status: ('A' for Active; 'I' for Inactive)
REMARK    1  A    between atoms: C_3  and  C_6
REMARK    2  A    between atoms: C_16  and  C_18
REMARK    3  A    between atoms: C_18  and  N_19
REMARK    4  A    between atoms: N_22  and  C_25
REMARK    5  A    between atoms: C_25  and  C_26
REMARK                            x       y       z     vdW  Elec       q    Type
REMARK                         _______ _______ _______ _____ _____    ______ ____
ROOT
ATOM      1  C   UNL     1      -0.072   3.240   6.065  0.00  0.00    +0.144 C 
ATOM      2  C   UNL     1      -1.338   2.613   6.645  0.00  0.00    -0.012 A 
ATOM      3  C   UNL     1      -1.319   1.610   7.613  0.00  0.00    +0.013 A 
ATOM      4  C   UNL     1      -2.481   1.103   8.085  0.00  0.00    +0.046 A 
ATOM      5  S   UNL     1      -3.692   2.037   7.163  0.00  0.00    -0.101 S 
ATOM      6  C   UNL     1      -2.563   3.029   6.221  0.00  0.00    -0.003 A 
ATOM      7  C   UNL     1      -2.874   4.073   5.199  0.00  0.00    +0.062 C 
ATOM      8  C   UNL     1      -1.611   4.925   4.963  0.00  0.00    +0.114 C 
ATOM      9  N   UNL     1      -0.459   4.015   4.878  0.00  0.00    -0.288 N 
ATOM     10  C   UNL     1       0.237   3.899   3.729  0.00  0.00    +0.230 C 
ATOM     11  O   UNL     1       1.250   3.233   3.699  0.00  0.00    -0.274 OA
ENDROOT
BRANCH   1  14
ATOM     12  C   UNL     1       2.880   0.876   5.612  0.00  0.00    +0.008 A 
ATOM     13  C   UNL     1       2.165   1.947   6.115  0.00  0.00    +0.013 A 
ATOM     14  C   UNL     1       0.901   2.159   5.673  0.00  0.00    +0.015 A 
ATOM     15  S   UNL     1       0.692   0.828   4.501  0.00  0.00    -0.099 S 
ATOM     16  C   UNL     1       2.301   0.076   4.684  0.00  0.00    +0.045 A 
ENDBRANCH   1  14
BRANCH  10  17
ATOM     17  C   UNL     1      -0.245   4.596   2.483  0.00  0.00    +0.180 C 
BRANCH  17  18
ATOM     18  N   UNL     1       0.680   4.314   1.377  0.00  0.00    -0.298 NA
ATOM     19  C   UNL     1       0.648   2.891   1.013  0.00  0.00    +0.066 C 
ATOM     20  C   UNL     1       1.679   2.625  -0.087  0.00  0.00    -0.063 C 
ATOM     21  N   UNL     1       1.380   3.470  -1.251  0.00  0.00    +0.387 N 
ATOM     22  C   UNL     1       1.412   4.894  -0.886  0.00  0.00    -0.063 C 
ATOM     23  C   UNL     1       0.381   5.160   0.212  0.00  0.00    +0.066 C 
ATOM     24  H   UNL     1       0.362   3.230  -1.593  0.00  0.00    -0.081 HD
BRANCH  21  25
ATOM     25  C   UNL     1       2.304   3.189  -2.357  0.00  0.00    +0.019 C 
BRANCH  25  26
ATOM     26  C   UNL     1       1.823   3.886  -3.604  0.00  0.00    +0.199 C 
ATOM     27  O   UNL     1       0.809   4.551  -3.573  0.00  0.00    -0.278 OA
ATOM     28  N   UNL     1       2.518   3.769  -4.752  0.00  0.00    -0.303 N 
ATOM     29  C   UNL     1       3.761   3.003  -4.928  0.00  0.00    +0.108 C 
ATOM     30  C   UNL     1       4.204   3.178  -6.395  0.00  0.00    +0.020 C 
ATOM     31  C   UNL     1       3.501   4.497  -6.813  0.00  0.00    +0.020 C 
ATOM     32  C   UNL     1       2.163   4.394  -6.039  0.00  0.00    +0.108 C 
ENDBRANCH  25  26
ENDBRANCH  21  25
ENDBRANCH  17  18
ENDBRANCH  10  17
TORSDOF 5
