REMARK  Name = ZINC45974359
REMARK  6 active torsions:
REMARK  status: ('A' for Active; 'I' for Inactive)
REMARK    1  A    between atoms: C_3  and  S_8
REMARK    2  A    between atoms: S_8  and  N_11
REMARK    3  A    between atoms: N_11  and  C_12
REMARK    4  A    between atoms: N_11  and  C_19
REMARK    5  A    between atoms: C_12  and  C_13
REMARK    6  A    between atoms: C_19  and  C_20
REMARK                            x       y       z     vdW  Elec       q    Type
REMARK                         _______ _______ _______ _____ _____    ______ ____
ROOT
ATOM      1  N   UNL     1       4.326   2.557   1.556  0.00  0.00    -0.165 NA
ENDROOT
BRANCH   1   2
ATOM      2  S   UNL     1       3.891   2.315  -0.023  0.00  0.00    +0.061 S 
ATOM      3  O   UNL     1       4.872   1.456  -0.588  0.00  0.00    -0.153 OA
ATOM      4  O   UNL     1       3.597   3.595  -0.564  0.00  0.00    -0.153 OA
BRANCH   2   7
ATOM      5  C   UNL     1      -0.017   1.380   0.010  0.00  0.00    +0.040 A 
ATOM      6  C   UNL     1       1.171   2.087   0.002  0.00  0.00    +0.031 A 
ATOM      7  C   UNL     1       2.377   1.412  -0.013  0.00  0.00    +0.106 A 
ATOM      8  C   UNL     1       2.397   0.030  -0.021  0.00  0.00    +0.031 A 
ATOM      9  C   UNL     1       1.211  -0.679  -0.014  0.00  0.00    +0.040 A 
ATOM     10  C   UNL     1       0.002  -0.004   0.002  0.00  0.00    +0.124 A 
ATOM     11  F   UNL     1      -1.158  -0.696   0.009  0.00  0.00    -0.205 F 
ENDBRANCH   2   7
ENDBRANCH   1   2
BRANCH   1  12
ATOM     12  C   UNL     1       5.169   1.574   2.243  0.00  0.00    +0.141 C 
BRANCH  12  13
ATOM     13  C   UNL     1       6.633   2.007   2.154  0.00  0.00    +0.134 C 
ATOM     14  C   UNL     1       7.540   0.919   2.769  0.00  0.00    +0.035 C 
ATOM     15  C   UNL     1       8.609   1.763   3.514  0.00  0.00    +0.031 C 
ATOM     16  C   UNL     1       7.759   2.973   3.977  0.00  0.00    +0.160 C 
ATOM     17  O   UNL     1       6.830   3.212   2.904  0.00  0.00    -0.375 OA
ENDBRANCH  12  13
ENDBRANCH   1  12
BRANCH   1  18
ATOM     18  C   UNL     1       3.869   3.754   2.267  0.00  0.00    +0.205 C 
BRANCH  18  19
ATOM     19  C   UNL     1       2.615   3.432   3.038  0.00  0.00    +0.231 C 
ATOM     20  O   UNL     1       2.149   2.313   2.998  0.00  0.00    -0.274 OA
ATOM     21  N   UNL     1       2.012   4.388   3.772  0.00  0.00    -0.304 N 
ATOM     22  C   UNL     1       2.556   5.753   3.831  0.00  0.00    +0.089 C 
ATOM     23  C   UNL     1       1.423   6.740   3.530  0.00  0.00    -0.063 C 
ATOM     24  N   UNL     1       0.304   6.494   4.449  0.00  0.00    +0.381 N 
ATOM     25  C   UNL     1      -0.259   5.160   4.204  0.00  0.00    -0.063 C 
ATOM     26  C   UNL     1       0.787   4.096   4.533  0.00  0.00    +0.089 C 
ATOM     27  H   UNL     1       0.633   6.549   5.401  0.00  0.00    -0.086 HD
ATOM     28  H   UNL     1      -0.410   7.192   4.301  0.00  0.00    -0.086 HD
ENDBRANCH  18  19
ENDBRANCH   1  18
TORSDOF 6
