REMARK  Name = ZINC20898567
REMARK  8 active torsions:
REMARK  status: ('A' for Active; 'I' for Inactive)
REMARK    1  A    between atoms: C_1  and  C_2
REMARK    2  A    between atoms: C_7  and  C_8
REMARK    3  A    between atoms: C_10  and  C_33
REMARK    4  A    between atoms: C_14  and  C_17
REMARK    5  A    between atoms: C_21  and  O_24
REMARK    6  A    between atoms: C_22  and  O_23
REMARK    7  A    between atoms: N_25  and  C_32
REMARK    8  A    between atoms: N_28  and  C_31
REMARK                            x       y       z     vdW  Elec       q    Type
REMARK                         _______ _______ _______ _____ _____    ______ ____
ROOT
ATOM      1  C   UNL     1      -2.200  -7.616   0.680  0.00  0.00    +0.044 C 
ATOM      2  C   UNL     1      -1.721  -6.193   0.543  0.00  0.00    -0.046 A 
ATOM      3  C   UNL     1      -0.399  -5.941   0.225  0.00  0.00    +0.028 A 
ATOM      4  C   UNL     1       0.043  -4.633   0.097  0.00  0.00    +0.052 A 
ATOM      5  C   UNL     1      -0.852  -3.580   0.310  0.00  0.00    +0.068 A 
ATOM      6  C   UNL     1      -2.173  -3.840   0.622  0.00  0.00    +0.031 A 
ATOM      7  C   UNL     1      -2.606  -5.149   0.737  0.00  0.00    -0.045 A 
ATOM      8  C   UNL     1      -4.046  -5.437   1.075  0.00  0.00    +0.044 C 
ATOM      9  N   UNL     1      -0.367  -2.269   0.201  0.00  0.00    -0.306 N 
ATOM     10  C   UNL     1      -1.069  -1.105   0.164  0.00  0.00    +0.069 A 
ATOM     11  C   UNL     1      -0.165  -0.080   0.029  0.00  0.00    +0.089 A 
ATOM     12  C   UNL     1       1.182  -0.705   0.006  0.00  0.00    +0.082 A 
ATOM     13  C   UNL     1       0.996  -2.011   0.123  0.00  0.00    +0.073 A 
ATOM     14  C   UNL     1       2.018  -3.125   0.185  0.00  0.00    +0.154 C 
ATOM     15  N   UNL     1       1.367  -4.364  -0.268  0.00  0.00    -0.330 N 
ATOM     16  N   UNL     1       2.308   0.121  -0.123  0.00  0.00    -0.294 N 
ATOM     17  C   UNL     1       2.092   1.452  -0.220  0.00  0.00    +0.332 A 
ATOM     18  O   UNL     1       3.068   2.168  -0.334  0.00  0.00    -0.246 OA
ATOM     19  N   UNL     1       0.895   2.047  -0.203  0.00  0.00    -0.263 N 
ATOM     20  C   UNL     1      -0.280   1.378  -0.082  0.00  0.00    +0.266 A 
ATOM     21  O   UNL     1      -1.355   1.948  -0.071  0.00  0.00    -0.267 OA
ATOM     22  C   UNL     1       0.849   3.507  -0.320  0.00  0.00    +0.157 C 
ATOM     23  C   UNL     1       3.663  -0.435  -0.150  0.00  0.00    +0.154 C 
ATOM     24  H   UNL     1       1.920  -5.078  -0.895  0.00  0.00    +0.147 HD
ENDROOT
BRANCH  14  25
ATOM     25  C   UNL     1       2.504  -3.294   1.602  0.00  0.00    +0.024 A 
ATOM     26  C   UNL     1       1.809  -2.711   2.646  0.00  0.00    +0.009 A 
ATOM     27  C   UNL     1       2.252  -2.864   3.946  0.00  0.00    +0.004 A 
ATOM     28  C   UNL     1       3.393  -3.600   4.209  0.00  0.00    +0.049 A 
ATOM     29  C   UNL     1       4.094  -4.186   3.168  0.00  0.00    +0.159 A 
ATOM     30  C   UNL     1       3.644  -4.037   1.859  0.00  0.00    +0.164 A 
BRANCH  30  31
ATOM     31  O   UNL     1       4.326  -4.615   0.834  0.00  0.00    -0.503 OA
ATOM     32  H   UNL     1       5.232  -5.205   1.040  0.00  0.00    +0.292 HD
ENDBRANCH  30  31
BRANCH  29  33
ATOM     33  O   UNL     1       5.216  -4.910   3.425  0.00  0.00    -0.503 OA
ATOM     34  H   UNL     1       5.772  -5.375   2.597  0.00  0.00    +0.292 HD
ENDBRANCH  29  33
ENDBRANCH  14  25
BRANCH  10  35
ATOM     35  C   UNL     1      -2.535  -0.967   0.255  0.00  0.00    -0.000 A 
ATOM     36  C   UNL     1      -3.358  -1.609  -0.674  0.00  0.00    +0.010 A 
ATOM     37  C   UNL     1      -4.729  -1.480  -0.581  0.00  0.00    +0.001 A 
ATOM     38  C   UNL     1      -5.288  -0.709   0.423  0.00  0.00    +0.000 A 
ATOM     39  C   UNL     1      -4.478  -0.067   1.344  0.00  0.00    +0.001 A 
ATOM     40  C   UNL     1      -3.107  -0.191   1.266  0.00  0.00    +0.010 A 
ENDBRANCH  10  35
TORSDOF 4
