REMARK  Name = ZINC40816155
REMARK  6 active torsions:
REMARK  status: ('A' for Active; 'I' for Inactive)
REMARK    1  A    between atoms: C_1  and  C_2
REMARK    2  A    between atoms: C_3  and  C_28
REMARK    3  A    between atoms: C_11  and  C_12
REMARK    4  A    between atoms: C_19  and  O_27
REMARK    5  A    between atoms: C_20  and  O_26
REMARK    6  A    between atoms: C_23  and  C_25
REMARK                            x       y       z     vdW  Elec       q    Type
REMARK                         _______ _______ _______ _____ _____    ______ ____
ROOT
ATOM      1  C   UNL     1       0.070  -4.662   1.070  0.00  0.00    +0.249 C 
ATOM      2  O   UNL     1      -0.006  -4.876  -0.125  0.00  0.00    -0.270 OA
ATOM      3  N   UNL     1       0.189  -5.691   1.932  0.00  0.00    -0.290 N 
ATOM      4  C   UNL     1       0.189  -5.473   3.389  0.00  0.00    +0.113 C 
ATOM      5  C   UNL     1      -1.049  -6.159   3.966  0.00  0.00    +0.054 C 
ATOM      6  C   UNL     1      -1.186  -7.559   3.427  0.00  0.00    -0.037 A 
ATOM      7  C   UNL     1      -1.976  -8.449   4.146  0.00  0.00    +0.053 A 
ATOM      8  C   UNL     1      -2.154  -9.747   3.705  0.00  0.00    +0.158 A 
ATOM      9  C   UNL     1      -1.538 -10.165   2.530  0.00  0.00    +0.159 A 
ATOM     10  C   UNL     1      -0.750  -9.279   1.819  0.00  0.00    +0.055 A 
ATOM     11  C   UNL     1      -0.570  -7.977   2.269  0.00  0.00    -0.020 A 
ATOM     12  C   UNL     1       0.318  -7.073   1.458  0.00  0.00    +0.104 C 
ATOM     13  C   UNL     1       1.771  -7.528   1.605  0.00  0.00    +0.033 C 
ENDROOT
BRANCH   1  24
ATOM     14  C   UNL     1       2.285   1.188   1.062  0.00  0.00    +0.046 C 
ATOM     15  C   UNL     1       1.937  -0.267   0.881  0.00  0.00    -0.022 A 
ATOM     16  C   UNL     1       2.534  -1.134   0.049  0.00  0.00    +0.017 A 
ATOM     17  N   UNL     1       1.947  -2.365   0.160  0.00  0.00    -0.357 N 
ATOM     18  H   UNL     1       2.207  -3.154  -0.341  0.00  0.00    +0.166 HD
ATOM     19  C   UNL     1       0.936  -2.320   1.085  0.00  0.00    +0.059 A 
ATOM     20  C   UNL     1       0.886  -1.007   1.585  0.00  0.00    +0.004 A 
ATOM     21  C   UNL     1      -0.054  -0.664   2.558  0.00  0.00    +0.010 A 
ATOM     22  C   UNL     1      -0.933  -1.616   3.032  0.00  0.00    +0.001 A 
ATOM     23  C   UNL     1      -0.893  -2.913   2.553  0.00  0.00    +0.015 A 
ATOM     24  C   UNL     1       0.031  -3.277   1.575  0.00  0.00    +0.061 A 
ATOM     25  C   UNL     1       3.681  -0.801  -0.871  0.00  0.00    +0.063 C 
ENDBRANCH   1  24
BRANCH   9  26
ATOM     26  O   UNL     1      -1.709 -11.439   2.083  0.00  0.00    -0.503 OA
ATOM     27  H   UNL     1      -2.466 -11.550   1.492  0.00  0.00    +0.292 HD
ENDBRANCH   9  26
BRANCH   8  28
ATOM     28  O   UNL     1      -2.927 -10.610   4.417  0.00  0.00    -0.503 OA
ATOM     29  H   UNL     1      -3.859 -10.606   4.161  0.00  0.00    +0.292 HD
ENDBRANCH   8  28
TORSDOF 3
