REMARK  Name = ZINC63494188
REMARK  7 active torsions:
REMARK  status: ('A' for Active; 'I' for Inactive)
REMARK    1  A    between atoms: C_1  and  C_2
REMARK    2  A    between atoms: C_2  and  C_3
REMARK    3  A    between atoms: C_3  and  N_4
REMARK    4  A    between atoms: N_4  and  C_5
REMARK    5  A    between atoms: C_10  and  C_11
REMARK    6  A    between atoms: C_12  and  C_14
REMARK    7  A    between atoms: C_21  and  C_28
REMARK                            x       y       z     vdW  Elec       q    Type
REMARK                         _______ _______ _______ _____ _____    ______ ____
ROOT
ATOM      1  C   UNL     1      -1.438  -1.906  -2.467  0.00  0.00    +0.161 C 
ATOM      2  C   UNL     1      -0.801  -2.711  -3.577  0.00  0.00    +0.011 C 
ATOM      3  C   UNL     1      -1.616  -3.022  -4.604  0.00  0.00    +0.049 C 
ATOM      4  C   UNL     1      -3.007  -2.551  -4.528  0.00  0.00    +0.030 C 
ATOM      5  C   UNL     1      -3.901  -2.847  -5.571  0.00  0.00    +0.011 A 
ATOM      6  C   UNL     1      -5.234  -2.410  -5.527  0.00  0.00    +0.014 A 
ATOM      7  C   UNL     1      -6.081  -2.710  -6.551  0.00  0.00    -0.050 A 
ATOM      8  C   UNL     1      -5.639  -3.448  -7.646  0.00  0.00    +0.005 A 
ATOM      9  C   UNL     1      -4.351  -3.887  -7.721  0.00  0.00    +0.024 A 
ATOM     10  C   UNL     1      -3.448  -3.598  -6.686  0.00  0.00    +0.042 A 
ATOM     11  N   UNL     1      -2.182  -4.029  -6.759  0.00  0.00    -0.281 N 
ATOM     12  C   UNL     1      -1.272  -3.804  -5.833  0.00  0.00    +0.249 C 
ATOM     13  O   UNL     1      -0.138  -4.234  -5.981  0.00  0.00    -0.270 OA
ATOM     14  C   UNL     1      -7.512  -2.239  -6.499  0.00  0.00    +0.044 C 
ATOM     15  S   UNL     1      -3.155  -1.715  -3.088  0.00  0.00    -0.107 S 
ATOM     16  H   UNL     1      -1.919  -4.539  -7.542  0.00  0.00    +0.155 HD
ENDROOT
BRANCH   1  18
ATOM     17  N   UNL     1      -1.413  -1.998   0.005  0.00  0.00    -0.270 N 
ATOM     18  C   UNL     1      -1.415  -2.666  -1.166  0.00  0.00    +0.237 C 
ATOM     19  O   UNL     1      -1.399  -3.879  -1.173  0.00  0.00    -0.274 OA
BRANCH  17  20
ATOM     20  C   UNL     1      -1.392  -2.704   1.213  0.00  0.00    +0.039 A 
ATOM     21  C   UNL     1      -2.584  -3.077   1.822  0.00  0.00    +0.024 A 
ATOM     22  C   UNL     1      -2.559  -3.774   3.014  0.00  0.00    +0.002 A 
ATOM     23  C   UNL     1      -1.351  -4.101   3.601  0.00  0.00    +0.000 A 
ATOM     24  C   UNL     1      -0.163  -3.731   2.998  0.00  0.00    +0.005 A 
ATOM     25  C   UNL     1      -0.180  -3.039   1.802  0.00  0.00    -0.029 A 
ATOM     26  C   UNL     1       1.115  -2.643   1.141  0.00  0.00    +0.045 C 
ENDBRANCH  17  20
BRANCH  17  27
ATOM     27  C   UNL     1      -1.433  -0.534   0.013  0.00  0.00    +0.113 C 
BRANCH  27  29
ATOM     28  C   UNL     1      -0.019   1.526   0.010  0.00  0.00    +0.005 C 
ATOM     29  C   UNL     1       0.002  -0.004   0.002  0.00  0.00    +0.016 C 
ENDBRANCH  27  29
ENDBRANCH  17  27
ENDBRANCH   1  18
TORSDOF 4
