REMARK  Name = ZINC65117502
REMARK  6 active torsions:
REMARK  status: ('A' for Active; 'I' for Inactive)
REMARK    1  A    between atoms: C_4  and  N_7
REMARK    2  A    between atoms: C_13  and  C_15
REMARK    3  A    between atoms: C_17  and  C_20
REMARK    4  A    between atoms: C_20  and  C_21
REMARK    5  A    between atoms: C_21  and  S_22
REMARK    6  A    between atoms: S_22  and  C_25
REMARK                            x       y       z     vdW  Elec       q    Type
REMARK                         _______ _______ _______ _____ _____    ______ ____
ROOT
ATOM      1  C   UNL     1       7.026  -3.905   1.097  0.00  0.00    +0.314 A 
ATOM      2  N   UNL     1       8.094  -4.660   1.180  0.00  0.00    -0.188 NA
ATOM      3  C   UNL     1       7.749  -5.948   1.137  0.00  0.00    +0.174 A 
ATOM      4  N   UNL     1       6.453  -6.039   1.027  0.00  0.00    -0.061 NA
ATOM      5  O   UNL     1       5.953  -4.710   1.004  0.00  0.00    -0.328 OA
ENDROOT
BRANCH   1  12
ATOM      6  N   UNL     1       3.561  -0.675   0.108  0.00  0.00    -0.327 N 
ATOM      7  C   UNL     1       4.818   0.060  -0.087  0.00  0.00    +0.124 C 
ATOM      8  C   UNL     1       5.780  -0.304   1.050  0.00  0.00    +0.127 C 
ATOM      9  N   UNL     1       5.828  -1.767   1.175  0.00  0.00    -0.291 N 
ATOM     10  C   UNL     1       4.571  -2.503   1.370  0.00  0.00    +0.127 C 
ATOM     11  C   UNL     1       3.609  -2.138   0.238  0.00  0.00    +0.124 C 
ATOM     12  C   UNL     1       7.003  -2.423   1.111  0.00  0.00    +0.304 C 
ATOM     13  O   UNL     1       8.045  -1.800   1.065  0.00  0.00    -0.265 OA
BRANCH   6  17
ATOM     14  C   UNL     1      -0.071   1.351   0.305  0.00  0.00    +0.000 A 
ATOM     15  C   UNL     1      -0.052  -0.032   0.310  0.00  0.00    +0.002 A 
ATOM     16  C   UNL     1       1.151  -0.707   0.244  0.00  0.00    +0.023 A 
ATOM     17  C   UNL     1       2.342   0.004   0.174  0.00  0.00    +0.030 A 
ATOM     18  C   UNL     1       2.319   1.393   0.169  0.00  0.00    +0.023 A 
ATOM     19  C   UNL     1       1.113   2.062   0.235  0.00  0.00    +0.002 A 
ENDBRANCH   6  17
ENDBRANCH   1  12
BRANCH   3  20
ATOM     20  C   UNL     1       8.704  -7.112   1.206  0.00  0.00    +0.103 C 
BRANCH  20  21
ATOM     21  C   UNL     1       8.906  -7.521   2.666  0.00  0.00    +0.179 C 
BRANCH  21  22
ATOM     22  S   UNL     1      10.056  -8.921   2.748  0.00  0.00    -0.003 S 
ATOM     23  O   UNL     1       9.459 -10.078   2.178  0.00  0.00    -0.169 OA
ATOM     24  O   UNL     1      11.358  -8.510   2.354  0.00  0.00    -0.169 OA
BRANCH  22  25
ATOM     25  C   UNL     1      10.201  -9.289   4.465  0.00  0.00    +0.088 A 
ATOM     26  C   UNL     1      11.175  -8.668   5.224  0.00  0.00    +0.030 A 
ATOM     27  C   UNL     1      11.289  -8.955   6.571  0.00  0.00    +0.040 A 
ATOM     28  C   UNL     1      10.427  -9.865   7.160  0.00  0.00    +0.124 A 
ATOM     29  C   UNL     1       9.452 -10.486   6.399  0.00  0.00    +0.040 A 
ATOM     30  C   UNL     1       9.337 -10.194   5.053  0.00  0.00    +0.030 A 
ATOM     31  F   UNL     1      10.538 -10.146   8.477  0.00  0.00    -0.205 F 
ENDBRANCH  22  25
ENDBRANCH  21  22
ENDBRANCH  20  21
ENDBRANCH   3  20
TORSDOF 6
