REMARK  Name = ZINC37558021
REMARK  5 active torsions:
REMARK  status: ('A' for Active; 'I' for Inactive)
REMARK    1  A    between atoms: C_2  and  C_3
REMARK    2  A    between atoms: C_3  and  N_4
REMARK    3  A    between atoms: N_11  and  C_12
REMARK    4  A    between atoms: C_12  and  C_13
REMARK    5  A    between atoms: N_20  and  C_23
REMARK                            x       y       z     vdW  Elec       q    Type
REMARK                         _______ _______ _______ _____ _____    ______ ____
ROOT
ATOM      1  N   UNL     1       0.785  -1.527   1.508  0.00  0.00    -0.255 N 
ATOM      2  C   UNL     1       1.826  -1.254   2.320  0.00  0.00    +0.283 A 
ATOM      3  O   UNL     1       2.204  -0.105   2.473  0.00  0.00    -0.265 OA
ATOM      4  C   UNL     1       2.473  -2.313   2.993  0.00  0.00    +0.152 A 
ATOM      5  C   UNL     1       2.021  -3.612   2.801  0.00  0.00    +0.173 A 
ATOM      6  N   UNL     1       2.793  -4.413   3.540  0.00  0.00    -0.217 NA
ATOM      7  C   UNL     1       3.690  -3.702   4.175  0.00  0.00    +0.202 A 
ATOM      8  N   UNL     1       3.535  -2.399   3.871  0.00  0.00    -0.320 N 
ATOM      9  N   UNL     1       0.946  -3.828   1.953  0.00  0.00    -0.245 N 
ATOM     10  C   UNL     1       0.354  -2.789   1.335  0.00  0.00    +0.338 A 
ATOM     11  O   UNL     1      -0.591  -2.997   0.598  0.00  0.00    -0.246 OA
ENDROOT
BRANCH   9  12
ATOM     12  C   UNL     1       0.471  -5.130   1.742  0.00  0.00    +0.053 A 
ATOM     13  C   UNL     1       0.991  -5.901   0.711  0.00  0.00    +0.029 A 
ATOM     14  C   UNL     1       0.522  -7.184   0.505  0.00  0.00    +0.040 A 
ATOM     15  C   UNL     1      -0.467  -7.700   1.326  0.00  0.00    +0.124 A 
ATOM     16  C   UNL     1      -0.987  -6.932   2.354  0.00  0.00    +0.040 A 
ATOM     17  C   UNL     1      -0.516  -5.652   2.567  0.00  0.00    +0.029 A 
ATOM     18  F   UNL     1      -0.925  -8.955   1.122  0.00  0.00    -0.205 F 
ENDBRANCH   9  12
BRANCH   1  19
ATOM     19  C   UNL     1       0.109  -0.432   0.807  0.00  0.00    +0.156 C 
BRANCH  19  21
ATOM     20  C   UNL     1      -1.062   1.371   1.965  0.00  0.00    +0.005 C 
ATOM     21  C   UNL     1      -1.012   0.097   1.665  0.00  0.00    -0.013 C 
ENDBRANCH  19  21
ENDBRANCH   1  19
BRANCH   8  22
ATOM     22  C   UNL     1       4.340  -1.284   4.376  0.00  0.00    +0.158 C 
BRANCH  22  23
ATOM     23  C   UNL     1       3.659  -0.674   5.573  0.00  0.00    -0.026 A 
ATOM     24  C   UNL     1       2.752   0.356   5.401  0.00  0.00    +0.005 A 
ATOM     25  C   UNL     1       2.126   0.916   6.499  0.00  0.00    +0.002 A 
ATOM     26  C   UNL     1       2.407   0.448   7.769  0.00  0.00    +0.020 A 
ATOM     27  C   UNL     1       3.314  -0.581   7.941  0.00  0.00    +0.041 A 
ATOM     28  C   UNL     1       3.936  -1.146   6.842  0.00  0.00    +0.025 A 
ATOM     29 CL   UNL     1       3.668  -1.169   9.536  0.00  0.00    -0.084 Cl
ENDBRANCH  22  23
ENDBRANCH   8  22
TORSDOF 5
