REMARK  Name = ZINC38980518
REMARK  6 active torsions:
REMARK  status: ('A' for Active; 'I' for Inactive)
REMARK    1  A    between atoms: C_4  and  C_7
REMARK    2  A    between atoms: N_12  and  C_13
REMARK    3  A    between atoms: C_13  and  C_15
REMARK    4  A    between atoms: C_15  and  C_16
REMARK    5  A    between atoms: C_16  and  C_17
REMARK    6  A    between atoms: N_22  and  C_25
REMARK                            x       y       z     vdW  Elec       q    Type
REMARK                         _______ _______ _______ _____ _____    ______ ____
ROOT
ATOM      1  C   UNL     1       8.888  -1.791  -2.395  0.00  0.00    +0.107 C 
ENDROOT
BRANCH   1   2
ATOM      2  C   UNL     1       7.470  -1.281  -2.420  0.00  0.00    +0.239 C 
ATOM      3  O   UNL     1       7.254  -0.086  -2.389  0.00  0.00    -0.274 OA
BRANCH   2   8
ATOM      4  C   UNL     1       2.870  -0.461  -2.526  0.00  0.00    +0.196 C 
ATOM      5  N   UNL     1       2.931  -1.941  -2.570  0.00  0.00    -0.170 NA
ATOM      6  N   UNL     1       4.045  -2.421  -2.553  0.00  0.00    -0.129 NA
ATOM      7  C   UNL     1       5.206  -1.694  -2.497  0.00  0.00    +0.203 C 
ATOM      8  N   UNL     1       6.452  -2.142  -2.475  0.00  0.00    -0.154 NA
ATOM      9  S   UNL     1       4.673  -0.092  -2.464  0.00  0.00    -0.058 S 
BRANCH   4  13
ATOM     10  C   UNL     1      -0.019   1.526   0.010  0.00  0.00    +0.000 C 
ATOM     11  C   UNL     1       1.417   2.055  -0.000  0.00  0.00    +0.000 C 
ATOM     12  C   UNL     1       2.133   1.562  -1.259  0.00  0.00    +0.006 C 
ATOM     13  C   UNL     1       2.154   0.032  -1.268  0.00  0.00    +0.026 C 
ATOM     14  C   UNL     1       0.718  -0.497  -1.257  0.00  0.00    +0.006 C 
ATOM     15  C   UNL     1       0.002  -0.004   0.002  0.00  0.00    +0.000 C 
ENDBRANCH   4  13
ENDBRANCH   2   8
ENDBRANCH   1   2
BRANCH   1  16
ATOM     16  C   UNL     1       9.855  -0.607  -2.331  0.00  0.00    +0.105 C 
BRANCH  16  17
ATOM     17  C   UNL     1      11.273  -1.117  -2.307  0.00  0.00    +0.216 C 
ATOM     18  O   UNL     1      11.488  -2.310  -2.337  0.00  0.00    -0.276 OA
ATOM     19  N   UNL     1      12.301  -0.248  -2.251  0.00  0.00    -0.299 N 
ATOM     20  C   UNL     1      12.061   1.203  -2.207  0.00  0.00    +0.123 C 
ATOM     21  C   UNL     1      12.851   1.792  -1.034  0.00  0.00    +0.103 C 
ATOM     22  N   UNL     1      14.262   1.398  -1.151  0.00  0.00    -0.296 NA
ATOM     23  C   UNL     1      14.418  -0.059  -1.057  0.00  0.00    +0.103 C 
ATOM     24  C   UNL     1      13.692  -0.724  -2.225  0.00  0.00    +0.123 C 
BRANCH  22  25
ATOM     25  C   UNL     1      15.085   2.082  -0.144  0.00  0.00    +0.057 C 
ATOM     26  C   UNL     1      15.044   3.606  -0.375  0.00  0.00    +0.019 C 
ATOM     27  C   UNL     1      16.480   4.080  -0.038  0.00  0.00    +0.002 C 
ATOM     28  C   UNL     1      17.358   2.934  -0.599  0.00  0.00    +0.002 C 
ATOM     29  C   UNL     1      16.556   1.654  -0.287  0.00  0.00    +0.019 C 
ENDBRANCH  22  25
ENDBRANCH  16  17
ENDBRANCH   1  16
TORSDOF 6
