REMARK  Name = ZINC63634448
REMARK  6 active torsions:
REMARK  status: ('A' for Active; 'I' for Inactive)
REMARK    1  A    between atoms: C_4  and  C_7
REMARK    2  A    between atoms: C_7  and  C_8
REMARK    3  A    between atoms: C_8  and  N_9
REMARK    4  A    between atoms: C_10  and  C_12
REMARK    5  A    between atoms: N_15  and  S_18
REMARK    6  A    between atoms: S_18  and  C_21
REMARK                            x       y       z     vdW  Elec       q    Type
REMARK                         _______ _______ _______ _____ _____    ______ ____
ROOT
ATOM      1  C   UNL     1       7.365  -2.749   2.524  0.00  0.00    +0.077 C 
ATOM      2  C   UNL     1       8.412  -1.904   1.794  0.00  0.00    +0.030 C 
ATOM      3  C   UNL     1       9.738  -2.670   1.748  0.00  0.00    +0.110 C 
ATOM      4  N   UNL     1      10.115  -3.047   3.117  0.00  0.00    -0.177 NA
ATOM      5  C   UNL     1       9.145  -3.783   3.939  0.00  0.00    +0.110 C 
ATOM      6  C   UNL     1       7.825  -3.005   3.961  0.00  0.00    +0.030 C 
ENDROOT
BRANCH   1   8
ATOM      7  N   UNL     1       5.450  -1.678   1.382  0.00  0.00    -0.315 N 
ATOM      8  C   UNL     1       6.050  -2.013   2.541  0.00  0.00    +0.216 C 
ATOM      9  O   UNL     1       5.532  -1.722   3.599  0.00  0.00    -0.276 OA
ATOM     10  H   UNL     1       5.864  -1.911   0.536  0.00  0.00    +0.149 HD
BRANCH   7  11
ATOM     11  C   UNL     1       4.171  -0.963   1.399  0.00  0.00    +0.109 C 
BRANCH  11  12
ATOM     12  C   UNL     1       3.711  -0.707  -0.038  0.00  0.00    +0.054 C 
BRANCH  12  16
ATOM     13  C   UNL     1      -0.017   1.378   0.010  0.00  0.00    +0.000 A 
ATOM     14  C   UNL     1       1.171   2.086   0.002  0.00  0.00    +0.000 A 
ATOM     15  C   UNL     1       2.377   1.411  -0.013  0.00  0.00    +0.004 A 
ATOM     16  C   UNL     1       2.396   0.029  -0.020  0.00  0.00    -0.046 A 
ATOM     17  C   UNL     1       1.208  -0.679  -0.012  0.00  0.00    +0.004 A 
ATOM     18  C   UNL     1       0.002  -0.004   0.002  0.00  0.00    +0.000 A 
ENDBRANCH  12  16
ENDBRANCH  11  12
ENDBRANCH   7  11
ENDBRANCH   1   8
BRANCH   4  19
ATOM     19  S   UNL     1      11.604  -2.649   3.723  0.00  0.00    +0.061 S 
ATOM     20  O   UNL     1      11.880  -3.576   4.763  0.00  0.00    -0.153 OA
ATOM     21  O   UNL     1      12.465  -2.480   2.605  0.00  0.00    -0.153 OA
BRANCH  19  22
ATOM     22  C   UNL     1      11.452  -1.068   4.484  0.00  0.00    +0.106 C 
ATOM     23  C   UNL     1      11.529  -0.955   5.845  0.00  0.00    +0.035 C 
ATOM     24  C   UNL     1      11.453   0.360   6.339  0.00  0.00    -0.013 C 
ATOM     25  C   UNL     1      10.970   0.877   7.484  0.00  0.00    -0.021 C 
ATOM     26  C   UNL     1      10.557   0.081   8.702  0.00  0.00    +0.037 C 
ATOM     27  C   UNL     1       9.458   0.837   9.448  0.00  0.00    +0.005 C 
ATOM     28  C   UNL     1      10.075   1.788  10.467  0.00  0.00    +0.001 C 
ATOM     29  C   UNL     1      10.930   2.845   9.780  0.00  0.00    +0.006 C 
ATOM     30  C   UNL     1      10.325   3.210   8.423  0.00  0.00    +0.055 C 
ATOM     31  C   UNL     1      10.881   2.284   7.363  0.00  0.00    +0.040 C 
ATOM     32  N   UNL     1      11.375   2.705   6.227  0.00  0.00    -0.276 NA
ATOM     33  C   UNL     1      11.917   1.554   5.524  0.00  0.00    +0.159 C 
ATOM     34  C   UNL     1      11.425   1.364   4.121  0.00  0.00    +0.006 C 
ATOM     35  C   UNL     1      11.249   0.121   3.662  0.00  0.00    +0.027 C 
ENDBRANCH  19  22
ENDBRANCH   4  19
TORSDOF 6
