REMARK  Name = ZINC39543918
REMARK  7 active torsions:
REMARK  status: ('A' for Active; 'I' for Inactive)
REMARK    1  A    between atoms: C_1  and  C_2
REMARK    2  A    between atoms: C_4  and  C_31
REMARK    3  A    between atoms: C_5  and  C_8
REMARK    4  A    between atoms: C_8  and  C_9
REMARK    5  A    between atoms: C_9  and  C_10
REMARK    6  A    between atoms: N_20  and  C_22
REMARK    7  A    between atoms: C_22  and  C_23
REMARK                            x       y       z     vdW  Elec       q    Type
REMARK                         _______ _______ _______ _____ _____    ______ ____
ROOT
ATOM      1  C   UNL     1       5.107  -1.721  -2.458  0.00  0.00    +0.216 C 
ATOM      2  O   UNL     1       4.909  -2.852  -2.849  0.00  0.00    -0.276 OA
ATOM      3  N   UNL     1       6.272  -1.105  -2.740  0.00  0.00    -0.301 N 
ATOM      4  C   UNL     1       6.646   0.260  -2.324  0.00  0.00    +0.108 C 
ATOM      5  C   UNL     1       8.196   0.267  -2.327  0.00  0.00    +0.025 C 
ATOM      6  C   UNL     1       8.506  -0.635  -3.543  0.00  0.00    -0.027 C 
ATOM      7  C   UNL     1       7.385  -1.685  -3.509  0.00  0.00    +0.112 C 
ATOM      8  C   UNL     1       9.867  -1.299  -3.371  0.00  0.00    +0.005 C 
ATOM      9  C   UNL     1      10.960  -0.227  -3.437  0.00  0.00    -0.018 C 
ATOM     10  C   UNL     1      10.827   0.545  -4.752  0.00  0.00    -0.078 C 
ATOM     11  N   UNL     1       9.513   1.196  -4.815  0.00  0.00    +0.383 N 
ATOM     12  C   UNL     1       8.454   0.178  -4.829  0.00  0.00    -0.070 C 
ATOM     13  H   UNL     1       9.395   1.792  -4.009  0.00  0.00    -0.081 HD
ENDROOT
BRANCH   1  14
ATOM     14  C   UNL     1       4.050  -1.004  -1.657  0.00  0.00    +0.102 C 
BRANCH  14  15
ATOM     15  C   UNL     1       2.837  -1.919  -1.480  0.00  0.00    +0.066 C 
BRANCH  15  19
ATOM     16  C   UNL     1      -0.019   1.526   0.010  0.00  0.00    +0.039 C 
ATOM     17  C   UNL     1       0.002  -0.004   0.002  0.00  0.00    +0.152 C 
ATOM     18  C   UNL     1       0.759  -0.524  -1.207  0.00  0.00    -0.024 C 
ATOM     19  C   UNL     1       1.780  -1.203  -0.679  0.00  0.00    +0.065 C 
ATOM     20  N   UNL     1       1.738  -1.160   0.671  0.00  0.00    -0.158 NA
ATOM     21  N   UNL     1       0.787  -0.521   1.136  0.00  0.00    -0.180 NA
ATOM     22  C   UNL     1       0.433  -0.322  -2.664  0.00  0.00    +0.043 C 
ENDBRANCH  15  19
ENDBRANCH  14  15
ENDBRANCH   1  14
BRANCH  11  23
ATOM     23  C   UNL     1       9.428   2.007  -6.037  0.00  0.00    -0.040 C 
BRANCH  23  24
ATOM     24  C   UNL     1      10.427   3.132  -5.964  0.00  0.00    -0.026 A 
ATOM     25  C   UNL     1      10.015   4.400  -5.600  0.00  0.00    +0.005 A 
ATOM     26  C   UNL     1      10.931   5.433  -5.532  0.00  0.00    +0.003 A 
ATOM     27  C   UNL     1      12.261   5.200  -5.829  0.00  0.00    +0.041 A 
ATOM     28  C   UNL     1      12.677   3.932  -6.194  0.00  0.00    +0.159 A 
ATOM     29  C   UNL     1      11.759   2.894  -6.256  0.00  0.00    +0.160 A 
ATOM     30  F   UNL     1      12.163   1.654  -6.607  0.00  0.00    -0.202 F 
ATOM     31  F   UNL     1      13.976   3.704  -6.485  0.00  0.00    -0.202 F 
ENDBRANCH  23  24
ENDBRANCH  11  23
TORSDOF 5
