REMARK  Name = ZINC03164396
REMARK  6 active torsions:
REMARK  status: ('A' for Active; 'I' for Inactive)
REMARK    1  A    between atoms: C_1  and  C_2
REMARK    2  A    between atoms: C_12  and  C_14
REMARK    3  A    between atoms: C_19  and  N_20
REMARK    4  A    between atoms: N_20  and  C_21
REMARK    5  A    between atoms: C_24  and  S_27
REMARK    6  A    between atoms: S_27  and  C_28
REMARK                            x       y       z     vdW  Elec       q    Type
REMARK                         _______ _______ _______ _____ _____    ______ ____
ROOT
ATOM      1  C   UNL     1       0.968   2.227   0.313  0.00  0.00    +0.058 A 
ATOM      2  C   UNL     1       2.250   1.716   0.534  0.00  0.00    +0.015 A 
ATOM      3  C   UNL     1       2.476   0.361   0.435  0.00  0.00    +0.001 A 
ATOM      4  C   UNL     1       1.438  -0.501   0.117  0.00  0.00    +0.002 A 
ATOM      5  C   UNL     1       0.167  -0.013  -0.104  0.00  0.00    +0.024 A 
ATOM      6  C   UNL     1      -0.081   1.352  -0.009  0.00  0.00    +0.044 A 
ENDROOT
BRANCH   1  17
ATOM      7  C   UNL     1       0.597   2.728   3.332  0.00  0.00    +0.029 C 
ATOM      8  C   UNL     1      -0.549   3.365   2.543  0.00  0.00    +0.083 C 
ATOM      9  C   UNL     1      -1.313   4.363   3.429  0.00  0.00    +0.059 C 
ATOM     10  C   UNL     1      -1.160   5.692   2.723  0.00  0.00    -0.024 A 
ATOM     11  C   UNL     1      -1.634   6.949   3.046  0.00  0.00    +0.005 A 
ATOM     12  C   UNL     1      -1.357   8.027   2.227  0.00  0.00    +0.000 A 
ATOM     13  C   UNL     1      -0.601   7.845   1.083  0.00  0.00    +0.002 A 
ATOM     14  C   UNL     1      -0.126   6.593   0.757  0.00  0.00    +0.024 A 
ATOM     15  C   UNL     1      -0.403   5.499   1.579  0.00  0.00    +0.040 A 
ATOM     16  N   UNL     1      -0.021   4.162   1.433  0.00  0.00    -0.264 N 
ATOM     17  C   UNL     1       0.719   3.676   0.417  0.00  0.00    +0.253 C 
ATOM     18  O   UNL     1       1.182   4.434  -0.415  0.00  0.00    -0.270 OA
ENDBRANCH   1  17
BRANCH   6  19
ATOM     19  N   UNL     1      -1.359   1.847  -0.237  0.00  0.00    -0.314 N 
ATOM     20  H   UNL     1      -2.058   1.704   0.420  0.00  0.00    +0.152 HD
BRANCH  19  21
ATOM     21  C   UNL     1      -1.637   2.552  -1.414  0.00  0.00    +0.031 A 
ATOM     22  C   UNL     1      -0.642   2.733  -2.366  0.00  0.00    +0.024 A 
ATOM     23  C   UNL     1      -0.917   3.424  -3.529  0.00  0.00    +0.017 A 
ATOM     24  C   UNL     1      -2.186   3.948  -3.742  0.00  0.00    +0.013 A 
ATOM     25  C   UNL     1      -3.180   3.771  -2.787  0.00  0.00    +0.017 A 
ATOM     26  C   UNL     1      -2.906   3.075  -1.627  0.00  0.00    +0.024 A 
BRANCH  24  27
ATOM     27  S   UNL     1      -2.536   4.835  -5.223  0.00  0.00    -0.056 S 
BRANCH  27  28
ATOM     28  C   UNL     1      -0.968   4.803  -6.135  0.00  0.00    +0.404 C 
ATOM     29  F   UNL     1       0.028   5.422  -5.372  0.00  0.00    -0.197 F 
ATOM     30  F   UNL     1      -0.604   3.476  -6.389  0.00  0.00    -0.197 F 
ENDBRANCH  27  28
ENDBRANCH  24  27
ENDBRANCH  19  21
ENDBRANCH   6  19
TORSDOF 5
