REMARK  Name = ZINC36056790
REMARK  7 active torsions:
REMARK  status: ('A' for Active; 'I' for Inactive)
REMARK    1  A    between atoms: C_1  and  C_2
REMARK    2  A    between atoms: C_2  and  C_4
REMARK    3  A    between atoms: C_6  and  C_18
REMARK    4  A    between atoms: C_12  and  C_13
REMARK    5  A    between atoms: C_12  and  O_17
REMARK    6  A    between atoms: C_20  and  N_25
REMARK    7  A    between atoms: C_23  and  O_24
REMARK                            x       y       z     vdW  Elec       q    Type
REMARK                         _______ _______ _______ _____ _____    ______ ____
ROOT
ATOM      1  C   UNL     1      -1.196  -0.697   0.174  0.00  0.00    +0.139 C 
ATOM      2  C   UNL     1      -1.125  -2.116  -0.400  0.00  0.00    +0.123 C 
ATOM      3  N   UNL     1      -2.432  -2.759  -0.254  0.00  0.00    -0.292 N 
ATOM      4  C   UNL     1      -3.264  -2.430   0.746  0.00  0.00    +0.302 C 
ATOM      5  O   UNL     1      -4.333  -3.003   0.828  0.00  0.00    -0.253 OA
ATOM      6  N   UNL     1      -2.961  -1.496   1.660  0.00  0.00    -0.264 N 
ATOM      7  C   UNL     1      -1.687  -0.777   1.624  0.00  0.00    +0.243 C 
ATOM      8  H   UNL     1      -2.703  -3.435  -0.894  0.00  0.00    +0.151 HD
ATOM      9  H   UNL     1      -3.602  -1.291   2.359  0.00  0.00    +0.153 HD
ENDROOT
BRANCH   2  10
ATOM     10  C   UNL     1      -0.755  -2.051  -1.859  0.00  0.00    +0.017 A 
ATOM     11  C   UNL     1      -1.744  -2.028  -2.824  0.00  0.00    +0.041 A 
ATOM     12  C   UNL     1      -1.405  -1.968  -4.162  0.00  0.00    +0.127 A 
ATOM     13  C   UNL     1      -0.075  -1.931  -4.540  0.00  0.00    +0.036 A 
ATOM     14  C   UNL     1       0.918  -1.954  -3.580  0.00  0.00    +0.048 A 
ATOM     15  C   UNL     1       0.580  -2.008  -2.235  0.00  0.00    +0.122 A 
BRANCH  12  16
ATOM     16  N   UNL     1      -2.466  -1.944  -5.193  0.00  0.00    +0.056 N 
ATOM     17  O   UNL     1      -3.629  -1.977  -4.864  0.00  0.00    -0.126 OA
ATOM     18  O   UNL     1      -2.171  -1.892  -6.364  0.00  0.00    -0.126 OA
ENDBRANCH  12  16
BRANCH  15  19
ATOM     19  O   UNL     1       1.554  -2.025  -1.288  0.00  0.00    -0.506 OA
ATOM     20  H   UNL     1       1.855  -2.913  -1.049  0.00  0.00    +0.292 HD
ENDBRANCH  15  19
ENDBRANCH   2  10
BRANCH   7  21
ATOM     21  C   UNL     1      -1.877   0.637   2.178  0.00  0.00    +0.436 C 
ATOM     22  F   UNL     1      -2.770   1.341   1.364  0.00  0.00    -0.166 F 
ATOM     23  F   UNL     1      -2.389   0.563   3.478  0.00  0.00    -0.166 F 
ATOM     24  F   UNL     1      -0.644   1.299   2.199  0.00  0.00    -0.166 F 
ENDBRANCH   7  21
BRANCH   1  26
ATOM     25  C   UNL     1       0.536   0.880  -0.978  0.00  0.00    +0.086 C 
ATOM     26  C   UNL     1       0.172  -0.067   0.137  0.00  0.00    +0.140 C 
ATOM     27  O   UNL     1       0.978  -0.321   1.000  0.00  0.00    -0.297 OA
ENDBRANCH   1  26
BRANCH   7  28
ATOM     28  O   UNL     1      -0.724  -1.476   2.416  0.00  0.00    -0.364 OA
ATOM     29  H   UNL     1      -0.970  -1.564   3.347  0.00  0.00    +0.212 HD
ENDBRANCH   7  28
TORSDOF 6
