REMARK  Name = ZINC36152874
REMARK  7 active torsions:
REMARK  status: ('A' for Active; 'I' for Inactive)
REMARK    1  A    between atoms: C_1  and  C_2
REMARK    2  A    between atoms: C_2  and  C_3
REMARK    3  A    between atoms: C_3  and  C_4
REMARK    4  A    between atoms: C_4  and  C_5
REMARK    5  A    between atoms: C_11  and  C_15
REMARK    6  A    between atoms: C_18  and  C_22
REMARK    7  A    between atoms: C_19  and  C_21
REMARK                            x       y       z     vdW  Elec       q    Type
REMARK                         _______ _______ _______ _____ _____    ______ ____
ROOT
ATOM      1  C   UNL     1       1.492  -2.540   2.454  0.00  0.00    +0.151 A 
ATOM      2  N   UNL     1       2.772  -2.775   2.547  0.00  0.00    -0.132 NA
ATOM      3  N   UNL     1       3.064  -3.185   3.735  0.00  0.00    -0.121 NA
ATOM      4  C   UNL     1       1.982  -3.227   4.452  0.00  0.00    +0.209 A 
ATOM      5  N   UNL     1       0.935  -2.824   3.667  0.00  0.00    -0.225 N 
ATOM      6  N   UNL     1      -0.369  -2.750   4.033  0.00  0.00    -0.273 N 
ATOM      7  C   UNL     1      -0.596  -2.577   5.466  0.00  0.00    +0.128 C 
ATOM      8  C   UNL     1      -0.040  -3.770   6.259  0.00  0.00    +0.106 C 
ATOM      9  S   UNL     1       1.780  -3.691   6.146  0.00  0.00    -0.082 S 
ATOM     10  H   UNL     1      -0.854  -2.042   3.502  0.00  0.00    +0.167 HD
ENDROOT
BRANCH   7  11
ATOM     11  C   UNL     1      -2.077  -2.461   5.722  0.00  0.00    -0.025 A 
ATOM     12  C   UNL     1      -2.963  -3.265   5.031  0.00  0.00    +0.006 A 
ATOM     13  C   UNL     1      -4.321  -3.159   5.265  0.00  0.00    +0.004 A 
ATOM     14  C   UNL     1      -4.793  -2.248   6.192  0.00  0.00    -0.048 A 
ATOM     15  C   UNL     1      -3.906  -1.444   6.884  0.00  0.00    -0.047 A 
ATOM     16  C   UNL     1      -2.548  -1.554   6.653  0.00  0.00    +0.009 A 
ATOM     17  C   UNL     1      -4.421  -0.451   7.894  0.00  0.00    +0.044 C 
ATOM     18  C   UNL     1      -6.273  -2.131   6.448  0.00  0.00    +0.044 C 
ENDBRANCH   7  11
BRANCH   1  19
ATOM     19  C   UNL     1       0.763  -2.041   1.233  0.00  0.00    +0.078 C 
BRANCH  19  20
ATOM     20  C   UNL     1       0.742  -0.511   1.242  0.00  0.00    +0.007 C 
BRANCH  20  22
ATOM     21  C   UNL     1      -0.019   1.526   0.010  0.00  0.00    +0.004 C 
ATOM     22  C   UNL     1       0.002  -0.004   0.002  0.00  0.00    -0.003 C 
ENDBRANCH  20  22
ENDBRANCH  19  20
ENDBRANCH   1  19
TORSDOF 4
