REMARK  Name = ZINC09156661
REMARK  4 active torsions:
REMARK  status: ('A' for Active; 'I' for Inactive)
REMARK    1  A    between atoms: C_1  and  O_2
REMARK    2  A    between atoms: O_2  and  C_3
REMARK    3  A    between atoms: C_6  and  C_10
REMARK    4  A    between atoms: C_8  and  O_9
REMARK                            x       y       z     vdW  Elec       q    Type
REMARK                         _______ _______ _______ _____ _____    ______ ____
ROOT
ATOM      1  C   UNL     1       1.532   0.032   6.141  0.00  0.00    +0.209 C 
ATOM      2  N   UNL     1       2.055  -1.343   6.059  0.00  0.00    -0.293 N 
ATOM      3  C   UNL     1       3.300  -1.572   5.536  0.00  0.00    +0.183 C 
ATOM      4  N   UNL     1       4.263  -0.671   5.628  0.00  0.00    -0.183 NA
ATOM      5  C   UNL     1       3.973   0.526   6.190  0.00  0.00    +0.236 A 
ATOM      6  N   UNL     1       2.671   0.897   6.467  0.00  0.00    -0.285 N 
ATOM      7  C   UNL     1       2.706   2.142   7.051  0.00  0.00    +0.076 A 
ATOM      8  C   UNL     1       1.738   3.010   7.539  0.00  0.00    +0.077 A 
ATOM      9  C   UNL     1       2.114   4.226   8.078  0.00  0.00    +0.164 A 
ATOM     10  C   UNL     1       3.456   4.588   8.136  0.00  0.00    +0.164 A 
ATOM     11  C   UNL     1       4.431   3.737   7.657  0.00  0.00    +0.079 A 
ATOM     12  C   UNL     1       4.065   2.504   7.107  0.00  0.00    +0.095 A 
ATOM     13  N   UNL     1       4.783   1.482   6.566  0.00  0.00    -0.210 NA
ATOM     14  O   UNL     1       3.806   5.795   8.672  0.00  0.00    -0.488 OA
ATOM     15  C   UNL     1       3.595   5.939  10.078  0.00  0.00    +0.232 C 
ATOM     16  C   UNL     1       2.162   6.353  10.370  0.00  0.00    +0.082 C 
ATOM     17  C   UNL     1       1.158   5.283   9.971  0.00  0.00    +0.232 C 
ATOM     18  O   UNL     1       1.164   5.083   8.556  0.00  0.00    -0.488 OA
ATOM     19  N   UNL     1       3.553  -2.759   4.904  0.00  0.00    -0.331 N 
ATOM     20  H   UNL     1       1.518  -2.087   6.375  0.00  0.00    +0.151 HD
ATOM     21  H   UNL     1       4.431  -2.932   4.530  0.00  0.00    +0.145 HD
ATOM     22  H   UNL     1       2.854  -3.428   4.831  0.00  0.00    +0.145 HD
ENDROOT
BRANCH   1  26
ATOM     23  C   UNL     1      -0.148   1.182   2.380  0.00  0.00    +0.161 A 
ATOM     24  C   UNL     1       0.990   0.393   2.422  0.00  0.00    +0.050 A 
ATOM     25  C   UNL     1       1.534   0.028   3.639  0.00  0.00    +0.011 A 
ATOM     26  C   UNL     1       0.938   0.439   4.817  0.00  0.00    -0.003 A 
ATOM     27  C   UNL     1      -0.201   1.221   4.783  0.00  0.00    +0.056 A 
ATOM     28  C   UNL     1      -0.748   1.595   3.566  0.00  0.00    +0.159 A 
BRANCH  23  30
ATOM     29  C   UNL     1      -0.013   1.086   0.008  0.00  0.00    +0.277 C 
ATOM     30  O   UNL     1      -0.682   1.547   1.184  0.00  0.00    -0.491 OA
ENDBRANCH  23  30
BRANCH  28  31
ATOM     31  O   UNL     1      -1.869   2.365   3.531  0.00  0.00    -0.503 OA
ATOM     32  H   UNL     1      -2.693   1.859   3.521  0.00  0.00    +0.292 HD
ENDBRANCH  28  31
ENDBRANCH   1  26
TORSDOF 3
