REMARK  Name = ZINC11739898
REMARK  7 active torsions:
REMARK  status: ('A' for Active; 'I' for Inactive)
REMARK    1  A    between atoms: C_1  and  C_2
REMARK    2  A    between atoms: C_2  and  C_3
REMARK    3  A    between atoms: C_3  and  C_5
REMARK    4  A    between atoms: C_3  and  N_12
REMARK    5  A    between atoms: C_13  and  C_15
REMARK    6  A    between atoms: C_18  and  N_20
REMARK    7  A    between atoms: C_21  and  C_23
REMARK                            x       y       z     vdW  Elec       q    Type
REMARK                         _______ _______ _______ _____ _____    ______ ____
ROOT
ATOM      1  N   UNL     1      -3.471   1.633   0.915  0.00  0.00    -0.304 N 
ATOM      2  C   UNL     1      -4.466   0.918   1.476  0.00  0.00    +0.251 C 
ATOM      3  O   UNL     1      -4.570  -0.272   1.237  0.00  0.00    -0.270 OA
ATOM      4  H   UNL     1      -3.388   2.580   1.105  0.00  0.00    +0.150 HD
ENDROOT
BRANCH   2   5
ATOM      5  C   UNL     1      -5.421   1.570   2.369  0.00  0.00    +0.076 A 
ATOM      6  C   UNL     1      -6.504   1.020   3.040  0.00  0.00    +0.022 A 
ATOM      7  C   UNL     1      -7.248   1.859   3.825  0.00  0.00    +0.032 A 
ATOM      8  C   UNL     1      -6.886   3.187   3.907  0.00  0.00    +0.072 A 
ATOM      9  S   UNL     1      -5.489   3.277   2.885  0.00  0.00    -0.069 S 
BRANCH   8  10
ATOM     10  N   UNL     1      -7.491   4.204   4.635  0.00  0.00    -0.280 N 
ATOM     11  C   UNL     1      -6.989   5.454   4.590  0.00  0.00    +0.221 C 
ATOM     12  O   UNL     1      -6.010   5.691   3.915  0.00  0.00    -0.275 OA
ATOM     13  H   UNL     1      -8.274   4.015   5.175  0.00  0.00    +0.155 HD
BRANCH  11  14
ATOM     14  C   UNL     1      -7.646   6.558   5.380  0.00  0.00    +0.075 C 
ATOM     15  C   UNL     1      -8.361   7.659   4.594  0.00  0.00    +0.013 C 
ATOM     16  C   UNL     1      -7.029   7.955   5.287  0.00  0.00    +0.013 C 
ENDBRANCH  11  14
ENDBRANCH   8  10
ENDBRANCH   2   5
BRANCH   1  17
ATOM     17  C   UNL     1      -2.514   0.979   0.019  0.00  0.00    +0.103 C 
BRANCH  17  18
ATOM     18  C   UNL     1      -1.219   1.750   0.017  0.00  0.00    -0.027 A 
ATOM     19  C   UNL     1      -0.013   1.076   0.008  0.00  0.00    +0.007 A 
ATOM     20  C   UNL     1       1.175   1.783   0.000  0.00  0.00    +0.020 A 
ATOM     21  C   UNL     1       1.156   3.166   0.008  0.00  0.00    +0.041 A 
ATOM     22  C   UNL     1      -0.052   3.841   0.022  0.00  0.00    +0.020 A 
ATOM     23  C   UNL     1      -1.239   3.133   0.030  0.00  0.00    +0.007 A 
ATOM     24 CL   UNL     1       2.647   4.055  -0.001  0.00  0.00    -0.084 Cl
ENDBRANCH  17  18
BRANCH  17  26
ATOM     25  C   UNL     1      -4.333   0.054  -1.421  0.00  0.00    +0.006 C 
ATOM     26  C   UNL     1      -3.087   0.941  -1.399  0.00  0.00    +0.024 C 
ENDBRANCH  17  26
ENDBRANCH   1  17
TORSDOF 6
