REMARK  Name = ZINC39688686
REMARK  9 active torsions:
REMARK  status: ('A' for Active; 'I' for Inactive)
REMARK    1  A    between atoms: C_1  and  C_2
REMARK    2  A    between atoms: C_4  and  C_7
REMARK    3  A    between atoms: C_8  and  C_13
REMARK    4  A    between atoms: C_9  and  C_12
REMARK    5  A    between atoms: C_17  and  C_26
REMARK    6  A    between atoms: N_28  and  C_29
REMARK    7  A    between atoms: C_29  and  C_31
REMARK    8  A    between atoms: C_29  and  C_32
REMARK    9  A    between atoms: C_32  and  C_33
REMARK                            x       y       z     vdW  Elec       q    Type
REMARK                         _______ _______ _______ _____ _____    ______ ____
ROOT
ATOM      1  C   UNL     1       0.369  -5.134  -0.015  0.00  0.00    +0.252 C 
ATOM      2  O   UNL     1       0.952  -5.321   1.036  0.00  0.00    -0.270 OA
ATOM      3  N   UNL     1       1.006  -5.336  -1.185  0.00  0.00    -0.296 N 
ATOM      4  C   UNL     1       0.469  -5.156  -2.555  0.00  0.00    +0.121 C 
ATOM      5  C   UNL     1       1.638  -4.536  -3.354  0.00  0.00    +0.100 C 
ATOM      6  C   UNL     1       2.903  -4.956  -2.587  0.00  0.00    -0.004 C 
ATOM      7  C   UNL     1       2.405  -5.782  -1.393  0.00  0.00    +0.115 C 
ATOM      8  C   UNL     1       3.654  -3.724  -2.092  0.00  0.00    -0.010 C 
ATOM      9  C   UNL     1       4.938  -4.165  -1.383  0.00  0.00    -0.082 C 
ATOM     10  N   UNL     1       5.775  -4.931  -2.315  0.00  0.00    +0.379 N 
ATOM     11  C   UNL     1       5.082  -6.162  -2.714  0.00  0.00    -0.082 C 
ATOM     12  C   UNL     1       3.804  -5.806  -3.479  0.00  0.00    -0.010 C 
ATOM     13  H   UNL     1       5.963  -4.372  -3.133  0.00  0.00    -0.086 HD
ATOM     14  H   UNL     1       6.646  -5.168  -1.865  0.00  0.00    -0.086 HD
ENDROOT
BRANCH   1  16
ATOM     15  C   UNL     1      -1.478  -3.372  -0.004  0.00  0.00    +0.201 A 
ATOM     16  C   UNL     1      -1.034  -4.686  -0.008  0.00  0.00    +0.108 A 
ATOM     17  C   UNL     1      -2.182  -5.518  -0.006  0.00  0.00    +0.093 A 
ATOM     18  N   UNL     1      -3.234  -4.755  -0.001  0.00  0.00    -0.082 NA
ATOM     19  O   UNL     1      -2.821  -3.403   0.007  0.00  0.00    -0.352 OA
ATOM     20  C   UNL     1      -2.181  -7.024  -0.011  0.00  0.00    +0.070 C 
BRANCH  15  24
ATOM     21  C   UNL     1      -0.042   1.495   0.013  0.00  0.00    +0.089 C 
ATOM     22  C   UNL     1      -0.014  -0.012   0.005  0.00  0.00    +0.135 A 
ATOM     23  C   UNL     1      -1.089  -0.819   0.007  0.00  0.00    +0.079 A 
ATOM     24  C   UNL     1      -0.630  -2.160  -0.003  0.00  0.00    +0.152 A 
ATOM     25  N   UNL     1       0.682  -2.134  -0.012  0.00  0.00    -0.075 NA
ATOM     26  O   UNL     1       1.088  -0.777  -0.012  0.00  0.00    -0.359 OA
ENDBRANCH  15  24
ENDBRANCH   1  16
BRANCH   5  27
ATOM     27  C   UNL     1       1.664  -5.087  -4.756  0.00  0.00    +0.218 C 
ATOM     28  O   UNL     1       1.342  -6.238  -4.963  0.00  0.00    -0.275 OA
ATOM     29  N   UNL     1       2.045  -4.299  -5.782  0.00  0.00    -0.312 N 
ATOM     30  H   UNL     1       2.302  -3.379  -5.617  0.00  0.00    +0.149 HD
BRANCH  29  31
ATOM     31  C   UNL     1       2.071  -4.834  -7.146  0.00  0.00    +0.074 C 
ATOM     32  C   UNL     1       0.677  -4.717  -7.766  0.00  0.00    +0.028 C 
BRANCH  31  33
ATOM     33  C   UNL     1       3.072  -4.039  -7.986  0.00  0.00    +0.057 C 
BRANCH  33  34
ATOM     34  C   UNL     1       4.463  -4.254  -7.448  0.00  0.00    -0.045 A 
ATOM     35  C   UNL     1       4.961  -3.414  -6.469  0.00  0.00    +0.006 A 
ATOM     36  C   UNL     1       6.237  -3.610  -5.974  0.00  0.00    +0.038 A 
ATOM     37  C   UNL     1       7.015  -4.648  -6.459  0.00  0.00    +0.123 A 
ATOM     38  C   UNL     1       6.514  -5.488  -7.439  0.00  0.00    +0.038 A 
ATOM     39  C   UNL     1       5.237  -5.293  -7.928  0.00  0.00    +0.006 A 
ATOM     40  F   UNL     1       8.262  -4.840  -5.976  0.00  0.00    -0.205 F 
ENDBRANCH  33  34
ENDBRANCH  31  33
ENDBRANCH  29  31
ENDBRANCH   5  27
TORSDOF 6
