REMARK  Name = ZINC01457682
REMARK  4 active torsions:
REMARK  status: ('A' for Active; 'I' for Inactive)
REMARK    1  A    between atoms: C_4  and  C_7
REMARK    2  A    between atoms: C_7  and  C_8
REMARK    3  A    between atoms: C_13  and  N_56
REMARK    4  A    between atoms: N_18  and  C_21
REMARK                            x       y       z     vdW  Elec       q    Type
REMARK                         _______ _______ _______ _____ _____    ______ ____
ROOT
ATOM      1  C   UNL     1       5.376  -3.203  -4.903  0.00  0.00    +0.029 C 
ATOM      2  C   UNL     1       5.409  -1.994  -5.859  0.00  0.00    +0.090 C 
ATOM      3  C   UNL     1       4.396  -2.355  -6.923  0.00  0.00    +0.225 C 
ATOM      4  O   UNL     1       4.106  -1.668  -7.879  0.00  0.00    -0.275 OA
ATOM      5  N   UNL     1       3.869  -3.553  -6.641  0.00  0.00    -0.211 N 
ATOM      6  C   UNL     1       4.349  -4.124  -5.525  0.00  0.00    +0.213 C 
ATOM      7  O   UNL     1       4.016  -5.203  -5.085  0.00  0.00    -0.277 OA
ENDROOT
BRANCH   5   8
ATOM      8  C   UNL     1       2.897  -4.161  -7.443  0.00  0.00    +0.052 A 
ATOM      9  C   UNL     1       3.271  -4.985  -8.482  0.00  0.00    +0.024 A 
ATOM     10  C   UNL     1       2.313  -5.600  -9.283  0.00  0.00    +0.002 A 
ATOM     11  C   UNL     1       0.984  -5.396  -9.071  0.00  0.00    +0.008 A 
ATOM     12  C   UNL     1       0.561  -4.558  -8.025  0.00  0.00    -0.016 A 
ATOM     13  C   UNL     1       1.527  -3.931  -7.200  0.00  0.00    +0.004 A 
ATOM     14  C   UNL     1       1.103  -3.095  -6.155  0.00  0.00    +0.010 A 
ATOM     15  C   UNL     1      -0.228  -2.896  -5.949  0.00  0.00    +0.001 A 
ATOM     16  C   UNL     1      -1.179  -3.511  -6.760  0.00  0.00    +0.001 A 
ATOM     17  C   UNL     1      -0.804  -4.329  -7.782  0.00  0.00    +0.008 A 
ENDBRANCH   5   8
BRANCH   1  23
ATOM     18  C   UNL     1       4.164  -0.946  -1.480  0.00  0.00    -0.010 C 
ATOM     19  C   UNL     1       3.155  -1.867  -2.171  0.00  0.00    -0.015 C 
ATOM     20  C   UNL     1       3.628  -2.154  -3.598  0.00  0.00    -0.077 C 
ATOM     21  C   UNL     1       5.947  -1.902  -2.943  0.00  0.00    -0.077 C 
ATOM     22  C   UNL     1       5.544  -1.608  -1.496  0.00  0.00    -0.015 C 
ATOM     23  N   UNL     1       4.950  -2.814  -3.543  0.00  0.00    +0.388 N 
ATOM     24  H   UNL     1       4.877  -3.657  -2.962  0.00  0.00    -0.081 HD
BRANCH  18  25
ATOM     25  C   UNL     1       3.729  -0.705  -0.033  0.00  0.00    +0.038 C 
BRANCH  25  29
ATOM     26  C   UNL     1       0.039   1.446   0.006  0.00  0.00    +0.000 A 
ATOM     27  C   UNL     1       1.239   2.132   0.009  0.00  0.00    +0.000 A 
ATOM     28  C   UNL     1       2.433   1.436  -0.004  0.00  0.00    +0.003 A 
ATOM     29  C   UNL     1       2.427   0.054  -0.019  0.00  0.00    -0.047 A 
ATOM     30  C   UNL     1       1.227  -0.632  -0.022  0.00  0.00    +0.003 A 
ATOM     31  C   UNL     1       0.033   0.064  -0.009  0.00  0.00    +0.000 A 
ENDBRANCH  25  29
ENDBRANCH  18  25
ENDBRANCH   1  23
TORSDOF 4
