REMARK  Name = ZINC35694982
REMARK  16 active torsions:
REMARK  status: ('A' for Active; 'I' for Inactive)
REMARK    1  A    between atoms: C_1  and  C_2
REMARK    2  A    between atoms: C_5  and  C_8
REMARK    3  A    between atoms: N_10  and  C_30
REMARK    4  A    between atoms: N_13  and  C_14
REMARK    5  A    between atoms: C_14  and  C_16
REMARK    6  A    between atoms: C_16  and  N_17
REMARK    7  A    between atoms: N_17  and  C_18
REMARK    8  A    between atoms: C_18  and  C_19
REMARK    9  A    between atoms: C_19  and  N_20
REMARK   10  A    between atoms: N_20  and  C_21
REMARK   11  A    between atoms: N_20  and  C_22
REMARK   12  A    between atoms: N_25  and  C_26
REMARK   13  A    between atoms: C_26  and  C_27
REMARK   14  A    between atoms: C_26  and  C_28
REMARK   15  A    between atoms: C_26  and  C_29
REMARK   16  A    between atoms: C_33  and  C_36
REMARK                            x       y       z     vdW  Elec       q    Type
REMARK                         _______ _______ _______ _____ _____    ______ ____
ROOT
ATOM      1  C   UNL     1       0.058  -4.252  -0.021  0.00  0.00    +0.066 A 
ATOM      2  C   UNL     1       0.069  -5.050   1.061  0.00  0.00    +0.120 A 
ATOM      3  N   UNL     1       0.086  -6.360   0.628  0.00  0.00    -0.287 N 
ATOM      4  C   UNL     1       0.085  -6.356  -0.732  0.00  0.00    +0.205 A 
ATOM      5  N   UNL     1       0.062  -5.064  -1.149  0.00  0.00    -0.326 N 
ATOM      6  N   UNL     1       0.099  -7.433  -1.518  0.00  0.00    -0.145 NA
ATOM      7  H   UNL     1       0.053  -4.761  -2.071  0.00  0.00    +0.169 HD
ENDROOT
BRANCH   1  12
ATOM      8  C   UNL     1      -0.018   1.503   0.010  0.00  0.00    +0.044 C 
ATOM      9  C   UNL     1       0.002  -0.004   0.002  0.00  0.00    -0.050 A 
ATOM     10  C   UNL     1       0.006  -0.686  -1.202  0.00  0.00    +0.004 A 
ATOM     11  C   UNL     1       0.024  -2.066  -1.216  0.00  0.00    +0.010 A 
ATOM     12  C   UNL     1       0.039  -2.773  -0.013  0.00  0.00    -0.000 A 
ATOM     13  C   UNL     1       0.036  -2.079   1.197  0.00  0.00    +0.010 A 
ATOM     14  C   UNL     1       0.023  -0.699   1.198  0.00  0.00    +0.004 A 
ENDBRANCH   1  12
BRANCH   3  15
ATOM     15  C   UNL     1       0.101  -7.496   1.447  0.00  0.00    +0.049 A 
ATOM     16  C   UNL     1       0.123  -8.763   0.879  0.00  0.00    +0.026 A 
ATOM     17  C   UNL     1       0.139  -9.881   1.689  0.00  0.00    +0.005 A 
ATOM     18  C   UNL     1       0.132  -9.740   3.064  0.00  0.00    -0.050 A 
ATOM     19  C   UNL     1       0.109  -8.480   3.633  0.00  0.00    +0.005 A 
ATOM     20  C   UNL     1       0.099  -7.358   2.829  0.00  0.00    +0.026 A 
ATOM     21  C   UNL     1       0.148 -10.963   3.945  0.00  0.00    +0.044 C 
ENDBRANCH   3  15
BRANCH   6  22
ATOM     22  C   UNL     1       0.097  -7.291  -2.838  0.00  0.00    +0.257 C 
ATOM     23  O   UNL     1       0.083  -6.179  -3.331  0.00  0.00    -0.272 OA
BRANCH  22  24
ATOM     24  C   UNL     1       0.113  -8.508  -3.727  0.00  0.00    +0.207 C 
BRANCH  24  25
ATOM     25  N   UNL     1       0.107  -8.088  -5.130  0.00  0.00    -0.279 N 
ATOM     26  C   UNL     1      -1.063  -7.910  -5.776  0.00  0.00    +0.303 C 
ATOM     27  O   UNL     1      -2.113  -8.098  -5.193  0.00  0.00    -0.253 OA
ATOM     28  N   UNL     1      -1.068  -7.524  -7.067  0.00  0.00    -0.294 N 
ATOM     29  H   UNL     1      -0.230  -7.374  -7.532  0.00  0.00    +0.151 HD
BRANCH  28  30
ATOM     30  C   UNL     1      -2.339  -7.330  -7.769  0.00  0.00    +0.028 C 
ATOM     31  C   UNL     1      -3.155  -6.250  -7.056  0.00  0.00    +0.031 C 
ATOM     32  C   UNL     1      -2.066  -6.895  -9.210  0.00  0.00    +0.031 C 
ATOM     33  C   UNL     1      -3.125  -8.643  -7.772  0.00  0.00    +0.031 C 
ENDBRANCH  28  30
BRANCH  25  34
ATOM     34  C   UNL     1       1.373  -7.862  -5.832  0.00  0.00    +0.091 C 
BRANCH  34  35
ATOM     35  C   UNL     1       1.831  -9.165  -6.490  0.00  0.00    -0.060 C 
BRANCH  35  36
ATOM     36  N   UNL     1       3.100  -8.938  -7.194  0.00  0.00    +0.377 N 
ATOM     37  C   UNL     1       3.601 -10.213  -7.724  0.00  0.00    -0.097 C 
ATOM     38  C   UNL     1       2.885  -7.998  -8.302  0.00  0.00    -0.097 C 
ATOM     39  H   UNL     1       3.777  -8.552  -6.552  0.00  0.00    -0.083 HD
ENDBRANCH  35  36
ENDBRANCH  34  35
ENDBRANCH  25  34
ENDBRANCH  24  25
ENDBRANCH  22  24
ENDBRANCH   6  22
TORSDOF 9
