REMARK  Name = ZINC04864265
REMARK  6 active torsions:
REMARK  status: ('A' for Active; 'I' for Inactive)
REMARK    1  A    between atoms: C_1  and  C_2
REMARK    2  A    between atoms: C_7  and  C_22
REMARK    3  A    between atoms: C_10  and  C_12
REMARK    4  A    between atoms: C_12  and  S_13
REMARK    5  A    between atoms: S_13  and  C_14
REMARK    6  A    between atoms: C_16  and  N_21
REMARK                            x       y       z     vdW  Elec       q    Type
REMARK                         _______ _______ _______ _____ _____    ______ ____
ROOT
ATOM      1  S   UNL     1       1.010   3.830  -4.676  0.00  0.00    -0.078 S 
ENDROOT
BRANCH   1   2
ATOM      2  C   UNL     1       1.743   2.677  -5.787  0.00  0.00    +0.171 A 
ATOM      3  N   UNL     1       2.346   3.126  -6.879  0.00  0.00    -0.209 NA
ATOM      4  C   UNL     1       2.911   2.283  -7.740  0.00  0.00    +0.124 A 
ATOM      5  C   UNL     1       2.862   0.915  -7.480  0.00  0.00    +0.113 A 
ATOM      6  C   UNL     1       2.222   0.483  -6.325  0.00  0.00    +0.254 A 
ATOM      7  N   UNL     1       1.684   1.383  -5.508  0.00  0.00    -0.302 N 
ATOM      8  O   UNL     1       2.151  -0.838  -6.033  0.00  0.00    -0.268 OA
ATOM      9  H   UNL     1       1.184   1.042  -4.589  0.00  0.00    +0.171 HD
BRANCH   4  10
ATOM     10  N   UNL     1       3.538   2.760  -8.880  0.00  0.00    -0.343 N 
ATOM     11  H   UNL     1       4.003   2.056  -9.586  0.00  0.00    +0.144 HD
ATOM     12  H   UNL     1       3.572   3.841  -9.078  0.00  0.00    +0.144 HD
ENDBRANCH   4  10
ENDBRANCH   1   2
BRANCH   1  13
ATOM     13  C   UNL     1       0.365   2.694  -3.424  0.00  0.00    +0.173 C 
BRANCH  13  21
ATOM     14  C   UNL     1      -2.188   0.834  -1.147  0.00  0.00    +0.028 C 
ATOM     15  C   UNL     1      -0.760   1.384  -1.153  0.00  0.00    +0.073 C 
ATOM     16  C   UNL     1      -0.053   0.990   0.148  0.00  0.00    +0.022 C 
ATOM     17  C   UNL     1      -0.743   1.677   1.329  0.00  0.00    +0.004 C 
ATOM     18  C   UNL     1      -0.645   3.196   1.165  0.00  0.00    +0.022 C 
ATOM     19  C   UNL     1      -1.359   3.615  -0.124  0.00  0.00    +0.073 C 
ATOM     20  N   UNL     1      -0.797   2.849  -1.246  0.00  0.00    -0.295 N 
ATOM     21  C   UNL     1      -0.325   3.480  -2.339  0.00  0.00    +0.226 C 
ATOM     22  O   UNL     1      -0.457   4.681  -2.451  0.00  0.00    -0.275 OA
ATOM     23  C   UNL     1      -1.146   5.110  -0.366  0.00  0.00    +0.028 C 
ENDBRANCH  13  21
ENDBRANCH   1  13
TORSDOF 4
