REMARK  Name = ZINC21140219
REMARK  7 active torsions:
REMARK  status: ('A' for Active; 'I' for Inactive)
REMARK    1  A    between atoms: C_1  and  C_2
REMARK    2  A    between atoms: C_2  and  C_4
REMARK    3  A    between atoms: C_2  and  S_22
REMARK    4  A    between atoms: N_6  and  C_7
REMARK    5  A    between atoms: C_10  and  S_13
REMARK    6  A    between atoms: S_13  and  N_16
REMARK    7  A    between atoms: S_22  and  C_23
REMARK                            x       y       z     vdW  Elec       q    Type
REMARK                         _______ _______ _______ _____ _____    ______ ____
ROOT
ATOM      1  C   UNL     1      -6.308   7.033   1.456  0.00  0.00    +0.230 C 
ATOM      2  O   UNL     1      -6.906   7.663   2.303  0.00  0.00    -0.274 OA
ATOM      3  N   UNL     1      -6.976   6.192   0.643  0.00  0.00    -0.285 N 
ATOM      4  H   UNL     1      -6.447   5.679  -0.173  0.00  0.00    +0.155 HD
ENDROOT
BRANCH   3   5
ATOM      5  C   UNL     1      -8.345   5.971   0.837  0.00  0.00    +0.034 A 
ATOM      6  C   UNL     1      -8.890   4.719   0.588  0.00  0.00    +0.025 A 
ATOM      7  C   UNL     1     -10.239   4.503   0.786  0.00  0.00    +0.030 A 
ATOM      8  C   UNL     1     -11.050   5.535   1.221  0.00  0.00    +0.106 A 
ATOM      9  C   UNL     1     -10.511   6.786   1.464  0.00  0.00    +0.030 A 
ATOM     10  C   UNL     1      -9.161   7.007   1.273  0.00  0.00    +0.025 A 
BRANCH   8  11
ATOM     11  S   UNL     1     -12.772   5.258   1.466  0.00  0.00    +0.061 S 
ATOM     12  O   UNL     1     -12.931   3.864   1.693  0.00  0.00    -0.153 OA
ATOM     13  O   UNL     1     -13.213   6.237   2.397  0.00  0.00    -0.153 OA
BRANCH  11  14
ATOM     14  N   UNL     1     -13.531   5.592   0.032  0.00  0.00    -0.177 NA
ATOM     15  C   UNL     1     -14.023   6.947  -0.256  0.00  0.00    +0.109 C 
ATOM     16  C   UNL     1     -13.441   7.401  -1.604  0.00  0.00    +0.017 C 
ATOM     17  C   UNL     1     -13.787   6.365  -2.677  0.00  0.00    +0.003 C 
ATOM     18  C   UNL     1     -13.157   5.019  -2.310  0.00  0.00    +0.017 C 
ATOM     19  C   UNL     1     -13.730   4.539  -0.973  0.00  0.00    +0.109 C 
ENDBRANCH  11  14
ENDBRANCH   8  11
ENDBRANCH   3   5
BRANCH   1  21
ATOM     20  C   UNL     1      -4.111   6.023   2.006  0.00  0.00    +0.029 C 
ATOM     21  C   UNL     1      -4.816   7.191   1.314  0.00  0.00    +0.137 C 
BRANCH  21  22
ATOM     22  S   UNL     1      -4.297   8.750   2.083  0.00  0.00    -0.073 S 
BRANCH  22  23
ATOM     23  C   UNL     1      -2.579   8.859   1.708  0.00  0.00    +0.197 A 
ATOM     24  N   UNL     1      -1.874   7.986   1.025  0.00  0.00    -0.122 NA
ATOM     25  N   UNL     1      -0.649   8.371   0.936  0.00  0.00    -0.129 NA
ATOM     26  C   UNL     1      -0.500   9.524   1.563  0.00  0.00    +0.162 A 
ATOM     27  N   UNL     1      -1.734   9.865   2.074  0.00  0.00    -0.278 N 
ATOM     28  C   UNL     1      -1.892  11.021   2.787  0.00  0.00    +0.095 A 
ATOM     29  C   UNL     1      -0.846  11.847   2.991  0.00  0.00    +0.018 A 
ATOM     30  C   UNL     1       0.426  11.524   2.482  0.00  0.00    +0.005 A 
ATOM     31  C   UNL     1       0.602  10.377   1.776  0.00  0.00    +0.049 A 
ENDBRANCH  22  23
ENDBRANCH  21  22
ENDBRANCH   1  21
TORSDOF 6
