REMARK  Name = ZINC02223818
REMARK  8 active torsions:
REMARK  status: ('A' for Active; 'I' for Inactive)
REMARK    1  A    between atoms: C_1  and  C_2
REMARK    2  A    between atoms: C_2  and  C_3
REMARK    3  A    between atoms: C_3  and  C_4
REMARK    4  A    between atoms: C_12  and  N_30
REMARK    5  A    between atoms: C_14  and  S_16
REMARK    6  A    between atoms: S_16  and  C_17
REMARK    7  A    between atoms: C_17  and  C_18
REMARK    8  A    between atoms: C_18  and  N_19
REMARK                            x       y       z     vdW  Elec       q    Type
REMARK                         _______ _______ _______ _____ _____    ______ ____
ROOT
ATOM      1  C   UNL     1       5.339   3.689  -0.884  0.00  0.00    +0.123 C 
ATOM      2  C   UNL     1       3.944   3.462  -0.294  0.00  0.00    +0.068 C 
ATOM      3  C   UNL     1       3.681   1.958  -0.268  0.00  0.00    -0.020 A 
ATOM      4  C   UNL     1       4.716   1.098  -0.377  0.00  0.00    +0.021 A 
ATOM      5  S   UNL     1       3.988  -0.514  -0.303  0.00  0.00    -0.071 S 
ATOM      6  C   UNL     1       2.290  -0.031  -0.124  0.00  0.00    +0.115 A 
ATOM      7  C   UNL     1       2.346   1.378  -0.129  0.00  0.00    +0.051 A 
ATOM      8  C   UNL     1       1.094   2.042   0.003  0.00  0.00    +0.129 A 
ATOM      9  N   UNL     1      -0.010   1.323   0.117  0.00  0.00    -0.207 NA
ATOM     10  C   UNL     1       0.008  -0.004   0.113  0.00  0.00    +0.191 A 
ATOM     11  N   UNL     1       1.146  -0.676  -0.006  0.00  0.00    -0.215 NA
ATOM     12  C   UNL     1       6.160   1.466  -0.527  0.00  0.00    +0.203 C 
ATOM     13  O   UNL     1       6.296   2.862  -0.218  0.00  0.00    -0.371 OA
ENDROOT
BRANCH   8  14
ATOM     14  N   UNL     1       1.033   3.423   0.010  0.00  0.00    -0.343 N 
ATOM     15  H   UNL     1       0.175   3.871  -0.052  0.00  0.00    +0.144 HD
ATOM     16  H   UNL     1       1.849   3.944   0.079  0.00  0.00    +0.144 HD
ENDBRANCH   8  14
BRANCH   1  17
ATOM     17  C   UNL     1       5.728   5.158  -0.708  0.00  0.00    +0.031 C 
BRANCH  17  19
ATOM     18  C   UNL     1       7.446   6.892  -1.241  0.00  0.00    +0.004 C 
ATOM     19  C   UNL     1       7.057   5.423  -1.418  0.00  0.00    -0.001 C 
ENDBRANCH  17  19
ENDBRANCH   1  17
BRANCH  10  20
ATOM     20  S   UNL     1      -1.507  -0.890   0.269  0.00  0.00    -0.084 S 
BRANCH  20  21
ATOM     21  C   UNL     1      -2.668   0.493   0.391  0.00  0.00    +0.097 C 
BRANCH  21  22
ATOM     22  C   UNL     1      -4.092  -0.049   0.538  0.00  0.00    +0.128 C 
BRANCH  22  23
ATOM     23  N   UNL     1      -5.032   1.071   0.636  0.00  0.00    -0.233 N 
ATOM     24  C   UNL     1      -5.410   1.647   1.791  0.00  0.00    +0.254 C 
ATOM     25  O   UNL     1      -5.033   1.327   2.900  0.00  0.00    -0.270 OA
ATOM     26  C   UNL     1      -6.361   2.737   1.485  0.00  0.00    +0.049 A 
ATOM     27  C   UNL     1      -7.062   3.654   2.251  0.00  0.00    +0.014 A 
ATOM     28  C   UNL     1      -7.902   4.567   1.633  0.00  0.00    +0.001 A 
ATOM     29  C   UNL     1      -8.044   4.569   0.258  0.00  0.00    +0.001 A 
ATOM     30  C   UNL     1      -7.349   3.658  -0.522  0.00  0.00    +0.014 A 
ATOM     31  C   UNL     1      -6.506   2.739   0.083  0.00  0.00    +0.049 A 
ATOM     32  C   UNL     1      -5.635   1.654  -0.416  0.00  0.00    +0.254 C 
ATOM     33  O   UNL     1      -5.487   1.341  -1.580  0.00  0.00    -0.270 OA
ENDBRANCH  22  23
ENDBRANCH  21  22
ENDBRANCH  20  21
ENDBRANCH  10  20
TORSDOF 7
