REMARK  Name = ZINC38597765
REMARK  8 active torsions:
REMARK  status: ('A' for Active; 'I' for Inactive)
REMARK    1  A    between atoms: C_1  and  C_2
REMARK    2  A    between atoms: C_4  and  S_9
REMARK    3  A    between atoms: S_9  and  N_12
REMARK    4  A    between atoms: N_12  and  C_13
REMARK    5  A    between atoms: C_13  and  C_14
REMARK    6  A    between atoms: C_14  and  C_16
REMARK    7  A    between atoms: C_14  and  N_21
REMARK    8  A    between atoms: N_24  and  C_27
REMARK                            x       y       z     vdW  Elec       q    Type
REMARK                         _______ _______ _______ _____ _____    ______ ____
ROOT
ATOM      1  C   UNL     1       3.702  -4.443  -3.181  0.00  0.00    +0.015 C 
ENDROOT
BRANCH   1   2
ATOM      2  N   UNL     1       3.516  -4.897  -4.566  0.00  0.00    +0.389 N 
ATOM      3  C   UNL     1       2.879  -6.220  -4.564  0.00  0.00    -0.059 C 
ATOM      4  C   UNL     1       2.580  -6.643  -6.006  0.00  0.00    +0.086 C 
ATOM      5  N   UNL     1       3.829  -6.572  -6.781  0.00  0.00    -0.333 N 
ATOM      6  C   UNL     1       4.620  -5.333  -6.709  0.00  0.00    +0.086 C 
ATOM      7  C   UNL     1       4.822  -4.972  -5.234  0.00  0.00    -0.059 C 
ATOM      8  H   UNL     1       2.926  -4.242  -5.056  0.00  0.00    -0.081 HD
BRANCH   5   9
ATOM      9  C   UNL     1       4.251  -7.650  -7.565  0.00  0.00    +0.030 A 
ATOM     10  C   UNL     1       3.434  -8.763  -7.715  0.00  0.00    +0.026 A 
ATOM     11  C   UNL     1       3.853  -9.826  -8.490  0.00  0.00    +0.040 A 
ATOM     12  C   UNL     1       5.087  -9.784  -9.117  0.00  0.00    +0.124 A 
ATOM     13  C   UNL     1       5.904  -8.676  -8.968  0.00  0.00    +0.040 A 
ATOM     14  C   UNL     1       5.486  -7.607  -8.198  0.00  0.00    +0.026 A 
ATOM     15  F   UNL     1       5.496 -10.826  -9.873  0.00  0.00    -0.205 F 
ENDBRANCH   5   9
ENDBRANCH   1   2
BRANCH   1  16
ATOM     16  C   UNL     1       4.658  -5.369  -2.473  0.00  0.00    +0.093 A 
ATOM     17  C   UNL     1       5.716  -4.992  -1.733  0.00  0.00    +0.043 A 
ATOM     18  C   UNL     1       6.329  -6.175  -1.261  0.00  0.00    +0.041 A 
ATOM     19  C   UNL     1       5.609  -7.205  -1.741  0.00  0.00    +0.195 A 
ATOM     20  O   UNL     1       4.595  -6.711  -2.470  0.00  0.00    -0.469 OA
ENDBRANCH   1  16
BRANCH   1  21
ATOM     21  C   UNL     1       2.355  -4.451  -2.457  0.00  0.00    +0.098 C 
BRANCH  21  22
ATOM     22  N   UNL     1       1.403  -3.609  -3.186  0.00  0.00    -0.191 NA
ATOM     23  H   UNL     1       1.720  -3.003  -3.874  0.00  0.00    +0.148 HD
BRANCH  22  24
ATOM     24  S   UNL     1      -0.213  -3.691  -2.837  0.00  0.00    +0.058 S 
ATOM     25  O   UNL     1      -0.557  -5.070  -2.829  0.00  0.00    -0.153 OA
ATOM     26  O   UNL     1      -0.860  -2.750  -3.681  0.00  0.00    -0.153 OA
BRANCH  24  30
ATOM     27  C   UNL     1      -1.054   0.151   0.605  0.00  0.00    +0.047 C 
ATOM     28  C   UNL     1      -0.807  -1.313   0.347  0.00  0.00    -0.013 A 
ATOM     29  C   UNL     1      -0.645  -1.769  -0.948  0.00  0.00    +0.034 A 
ATOM     30  C   UNL     1      -0.419  -3.112  -1.185  0.00  0.00    +0.106 A 
ATOM     31  C   UNL     1      -0.355  -4.000  -0.128  0.00  0.00    +0.031 A 
ATOM     32  C   UNL     1      -0.516  -3.547   1.167  0.00  0.00    +0.040 A 
ATOM     33  C   UNL     1      -0.738  -2.201   1.406  0.00  0.00    +0.126 A 
ATOM     34  F   UNL     1      -0.891  -1.756   2.673  0.00  0.00    -0.205 F 
ENDBRANCH  24  30
ENDBRANCH  22  24
ENDBRANCH  21  22
ENDBRANCH   1  21
TORSDOF 7
