REMARK  Name = ZINC64197276
REMARK  7 active torsions:
REMARK  status: ('A' for Active; 'I' for Inactive)
REMARK    1  A    between atoms: C_1  and  C_2
REMARK    2  A    between atoms: C_2  and  C_4
REMARK    3  A    between atoms: C_2  and  O_18
REMARK    4  A    between atoms: N_6  and  C_7
REMARK    5  A    between atoms: C_7  and  C_8
REMARK    6  A    between atoms: C_8  and  C_9
REMARK    7  A    between atoms: O_18  and  C_19
REMARK                            x       y       z     vdW  Elec       q    Type
REMARK                         _______ _______ _______ _____ _____    ______ ____
ROOT
ATOM      1  C   UNL     1       0.198   1.499  -0.140  0.00  0.00    +0.062 C 
ATOM      2  C   UNL     1       0.000  -0.012   0.000  0.00  0.00    +0.255 C 
ENDROOT
BRANCH   2   3
ATOM      3  C   UNL     1      -1.469  -0.316   0.137  0.00  0.00    +0.254 C 
ATOM      4  O   UNL     1      -1.896  -0.793   1.167  0.00  0.00    -0.272 OA
ATOM      5  N   UNL     1      -2.309  -0.057  -0.885  0.00  0.00    -0.312 N 
ATOM      6  H   UNL     1      -1.968   0.325  -1.708  0.00  0.00    +0.149 HD
BRANCH   5   7
ATOM      7  C   UNL     1      -3.738  -0.353  -0.751  0.00  0.00    +0.108 C 
BRANCH   7   8
ATOM      8  C   UNL     1      -4.461   0.032  -2.044  0.00  0.00    +0.052 C 
BRANCH   8   9
ATOM      9  C   UNL     1      -5.931  -0.272  -1.907  0.00  0.00    -0.040 C 
ATOM     10  C   UNL     1      -6.908   0.587  -1.536  0.00  0.00    -0.001 A 
ATOM     11  C   UNL     1      -6.895   2.006  -1.163  0.00  0.00    +0.010 A 
ATOM     12  C   UNL     1      -8.060   2.608  -0.832  0.00  0.00    +0.001 A 
ATOM     13  C   UNL     1      -9.277   1.912  -0.836  0.00  0.00    +0.002 A 
ATOM     14  C   UNL     1      -9.368   0.606  -1.167  0.00  0.00    +0.026 A 
ATOM     15  C   UNL     1      -8.205  -0.126  -1.533  0.00  0.00    +0.043 A 
ATOM     16  N   UNL     1      -8.037  -1.377  -1.887  0.00  0.00    -0.380 N 
ATOM     17  C   UNL     1      -6.612  -1.597  -2.162  0.00  0.00    +0.144 C 
ATOM     18  H   UNL     1      -8.737  -2.044  -1.960  0.00  0.00    +0.160 HD
ENDBRANCH   8   9
ENDBRANCH   7   8
ENDBRANCH   5   7
ENDBRANCH   2   3
BRANCH   2  19
ATOM     19  O   UNL     1       0.693  -0.477   1.160  0.00  0.00    -0.480 OA
BRANCH  19  20
ATOM     20  C   UNL     1       2.013  -0.764   1.016  0.00  0.00    +0.125 A 
ATOM     21  C   UNL     1       2.716  -1.332   2.073  0.00  0.00    +0.046 A 
ATOM     22  C   UNL     1       4.056  -1.622   1.937  0.00  0.00    +0.016 A 
ATOM     23  C   UNL     1       4.706  -1.345   0.736  0.00  0.00    +0.026 A 
ATOM     24  C   UNL     1       6.144  -1.626   0.564  0.00  0.00    -0.000 A 
ATOM     25  C   UNL     1       6.874  -2.396   1.458  0.00  0.00    +0.009 A 
ATOM     26  C   UNL     1       8.219  -2.612   1.228  0.00  0.00    +0.001 A 
ATOM     27  C   UNL     1       8.844  -2.068   0.116  0.00  0.00    +0.001 A 
ATOM     28  C   UNL     1       8.135  -1.300  -0.785  0.00  0.00    +0.015 A 
ATOM     29  C   UNL     1       6.781  -1.074  -0.572  0.00  0.00    +0.067 A 
ATOM     30  C   UNL     1       5.952  -0.271  -1.488  0.00  0.00    +0.345 A 
ATOM     31  O   UNL     1       6.446   0.584  -2.198  0.00  0.00    -0.245 OA
ATOM     32  O   UNL     1       4.622  -0.521  -1.512  0.00  0.00    -0.422 OA
ATOM     33  C   UNL     1       3.997  -0.779  -0.336  0.00  0.00    +0.143 A 
ATOM     34  C   UNL     1       2.649  -0.494  -0.185  0.00  0.00    +0.092 A 
ENDBRANCH  19  20
ENDBRANCH   2  19
TORSDOF 6
