REMARK  Name = ZINC60275232
REMARK  9 active torsions:
REMARK  status: ('A' for Active; 'I' for Inactive)
REMARK    1  A    between atoms: C_1  and  C_2
REMARK    2  A    between atoms: N_5  and  C_8
REMARK    3  A    between atoms: C_8  and  C_9
REMARK    4  A    between atoms: C_16  and  C_18
REMARK    5  A    between atoms: C_25  and  O_27
REMARK    6  A    between atoms: O_27  and  C_28
REMARK    7  A    between atoms: C_28  and  C_29
REMARK    8  A    between atoms: C_28  and  C_30
REMARK    9  A    between atoms: C_28  and  C_31
REMARK                            x       y       z     vdW  Elec       q    Type
REMARK                         _______ _______ _______ _____ _____    ______ ____
ROOT
ATOM      1  C   UNL     1       1.639  -4.395   2.102  0.00  0.00    -0.010 C 
ATOM      2  C   UNL     1       1.694  -3.245   3.110  0.00  0.00    +0.005 C 
ATOM      3  C   UNL     1       2.273  -3.752   4.433  0.00  0.00    +0.019 C 
ATOM      4  C   UNL     1       1.363  -4.847   4.998  0.00  0.00    +0.108 C 
ATOM      5  N   UNL     1       1.188  -5.890   3.978  0.00  0.00    -0.300 N 
ATOM      6  C   UNL     1       0.723  -5.498   2.640  0.00  0.00    +0.109 C 
ATOM      7  C   UNL     1       1.450  -7.181   4.262  0.00  0.00    +0.236 C 
ATOM      8  O   UNL     1       1.302  -8.032   3.411  0.00  0.00    -0.274 OA
ENDROOT
BRANCH   7   9
ATOM      9  C   UNL     1       1.928  -7.566   5.639  0.00  0.00    +0.165 C 
ATOM     10  C   UNL     1       0.985  -8.617   6.234  0.00  0.00    +0.032 C 
ATOM     11  C   UNL     1       1.550  -9.106   7.569  0.00  0.00    +0.004 C 
ATOM     12  C   UNL     1       2.915  -9.758   7.339  0.00  0.00    +0.019 C 
ATOM     13  C   UNL     1       3.880  -8.721   6.756  0.00  0.00    +0.112 C 
ATOM     14  N   UNL     1       3.279  -8.137   5.549  0.00  0.00    -0.256 N 
ATOM     15  C   UNL     1       3.952  -8.127   4.382  0.00  0.00    +0.404 C 
ATOM     16  O   UNL     1       3.490  -7.549   3.418  0.00  0.00    -0.226 OA
BRANCH  15  17
ATOM     17  O   UNL     1       5.137  -8.759   4.283  0.00  0.00    -0.445 OA
BRANCH  17  18
ATOM     18  C   UNL     1       5.796  -8.709   3.016  0.00  0.00    +0.107 C 
ATOM     19  C   UNL     1       6.075  -7.251   2.644  0.00  0.00    +0.055 C 
ATOM     20  C   UNL     1       7.117  -9.476   3.097  0.00  0.00    +0.055 C 
ATOM     21  C   UNL     1       4.901  -9.345   1.950  0.00  0.00    +0.055 C 
ENDBRANCH  17  18
ENDBRANCH  15  17
ENDBRANCH   7   9
BRANCH   1  22
ATOM     22  C   UNL     1       1.091  -3.880   0.769  0.00  0.00    -0.074 C 
BRANCH  22  27
ATOM     23  C   UNL     1       4.711  -0.809  -2.391  0.00  0.00    +0.007 C 
ATOM     24  C   UNL     1       3.741  -1.890  -1.909  0.00  0.00    -0.018 C 
ATOM     25  C   UNL     1       2.389  -1.254  -1.576  0.00  0.00    -0.016 C 
ATOM     26  C   UNL     1       1.450  -2.326  -1.020  0.00  0.00    -0.079 C 
ATOM     27  N   UNL     1       2.031  -2.908   0.196  0.00  0.00    +0.380 N 
ATOM     28  C   UNL     1       3.293  -3.582  -0.129  0.00  0.00    -0.079 C 
ATOM     29  C   UNL     1       4.303  -2.558  -0.650  0.00  0.00    -0.016 C 
ATOM     30  H   UNL     1       2.205  -2.175   0.868  0.00  0.00    -0.082 HD
ENDBRANCH  22  27
ENDBRANCH   1  22
TORSDOF 5
