REMARK  Name = ZINC38904510
REMARK  8 active torsions:
REMARK  status: ('A' for Active; 'I' for Inactive)
REMARK    1  A    between atoms: C_1  and  C_2
REMARK    2  A    between atoms: C_2  and  O_3
REMARK    3  A    between atoms: O_3  and  C_4
REMARK    4  A    between atoms: C_4  and  C_6
REMARK    5  A    between atoms: C_12  and  C_14
REMARK    6  A    between atoms: N_19  and  C_21
REMARK    7  A    between atoms: C_21  and  C_22
REMARK    8  A    between atoms: C_24  and  C_27
REMARK                            x       y       z     vdW  Elec       q    Type
REMARK                         _______ _______ _______ _____ _____    ______ ____
ROOT
ATOM      1  C   UNL     1       4.404  -6.155  -3.895  0.00  0.00    +0.059 C 
ATOM      2  C   UNL     1       3.718  -6.521  -2.576  0.00  0.00    +0.009 C 
ATOM      3  C   UNL     1       3.645  -8.046  -2.456  0.00  0.00    -0.018 C 
ATOM      4  C   UNL     1       5.056  -8.628  -2.557  0.00  0.00    -0.078 C 
ATOM      5  N   UNL     1       5.648  -8.265  -3.851  0.00  0.00    +0.386 N 
ATOM      6  C   UNL     1       5.787  -6.807  -3.944  0.00  0.00    -0.065 C 
ATOM      7  H   UNL     1       5.051  -8.593  -4.596  0.00  0.00    -0.081 HD
ENDROOT
BRANCH   1  14
ATOM      8  C   UNL     1       1.883  -2.468  -6.216  0.00  0.00    +0.101 C 
ATOM      9  C   UNL     1       1.930  -3.997  -6.259  0.00  0.00    +0.033 C 
ATOM     10  C   UNL     1       2.268  -4.533  -4.864  0.00  0.00    +0.108 C 
ATOM     11  N   UNL     1       3.514  -3.904  -4.405  0.00  0.00    -0.301 N 
ATOM     12  C   UNL     1       3.608  -2.438  -4.410  0.00  0.00    +0.108 C 
ATOM     13  C   UNL     1       3.255  -1.925  -5.809  0.00  0.00    +0.033 C 
ATOM     14  C   UNL     1       4.550  -4.658  -3.987  0.00  0.00    +0.217 C 
ATOM     15  O   UNL     1       5.600  -4.131  -3.686  0.00  0.00    -0.275 OA
BRANCH   8  16
ATOM     16  C   UNL     1       1.518  -1.938  -7.579  0.00  0.00    +0.310 C 
ATOM     17  O   UNL     1       2.276  -1.202  -8.164  0.00  0.00    -0.251 OA
BRANCH  16  18
ATOM     18  O   UNL     1       0.349  -2.283  -8.142  0.00  0.00    -0.465 OA
BRANCH  18  20
ATOM     19  C   UNL     1      -1.298  -2.246  -9.910  0.00  0.00    +0.048 C 
ATOM     20  C   UNL     1       0.067  -1.744  -9.435  0.00  0.00    +0.229 C 
ENDBRANCH  18  20
ENDBRANCH  16  18
ENDBRANCH   8  16
ENDBRANCH   1  14
BRANCH   5  21
ATOM     21  C   UNL     1       6.971  -8.891  -3.976  0.00  0.00    +0.022 C 
BRANCH  21  22
ATOM     22  C   UNL     1       6.816 -10.390  -4.014  0.00  0.00    +0.211 A 
ATOM     23  N   UNL     1       6.661 -11.112  -5.086  0.00  0.00    -0.193 NA
ATOM     24  C   UNL     1       6.556 -12.411  -4.756  0.00  0.00    +0.202 A 
ATOM     25  N   UNL     1       6.645 -12.520  -3.453  0.00  0.00    -0.056 NA
ATOM     26  O   UNL     1       6.822 -11.204  -2.950  0.00  0.00    -0.340 OA
BRANCH  24  27
ATOM     27  C   UNL     1       6.369 -13.535  -5.707  0.00  0.00    +0.023 A 
ATOM     28  C   UNL     1       6.294 -13.286  -7.077  0.00  0.00    +0.012 A 
ATOM     29  C   UNL     1       6.120 -14.333  -7.958  0.00  0.00    +0.002 A 
ATOM     30  C   UNL     1       6.020 -15.629  -7.484  0.00  0.00    +0.015 A 
ATOM     31  C   UNL     1       6.094 -15.883  -6.126  0.00  0.00    +0.019 A 
ATOM     32  C   UNL     1       6.274 -14.842  -5.236  0.00  0.00    +0.027 A 
ATOM     33 BR   UNL     1       5.955 -17.657  -5.488  0.00  0.00    -0.050 Br
ENDBRANCH  24  27
ENDBRANCH  21  22
ENDBRANCH   5  21
TORSDOF 7
