REMARK  Name = ZINC30978762
REMARK  7 active torsions:
REMARK  status: ('A' for Active; 'I' for Inactive)
REMARK    1  A    between atoms: C_1  and  C_2
REMARK    2  A    between atoms: C_2  and  C_35
REMARK    3  A    between atoms: C_4  and  N_13
REMARK    4  A    between atoms: C_14  and  C_16
REMARK    5  A    between atoms: N_19  and  C_22
REMARK    6  A    between atoms: C_22  and  C_23
REMARK    7  A    between atoms: C_25  and  C_28
REMARK                            x       y       z     vdW  Elec       q    Type
REMARK                         _______ _______ _______ _____ _____    ______ ____
ROOT
ATOM      1  C   UNL     1       6.288   7.886   3.747  0.00  0.00    +0.071 C 
ATOM      2  C   UNL     1       5.702   8.991   2.864  0.00  0.00    -0.006 C 
ATOM      3  C   UNL     1       5.602   8.486   1.423  0.00  0.00    -0.077 C 
ATOM      4  N   UNL     1       4.746   7.294   1.379  0.00  0.00    +0.386 N 
ATOM      5  C   UNL     1       5.312   6.203   2.182  0.00  0.00    -0.077 C 
ATOM      6  C   UNL     1       5.404   6.640   3.646  0.00  0.00    -0.006 C 
ATOM      7  H   UNL     1       3.774   7.563   1.817  0.00  0.00    -0.081 HD
ENDROOT
BRANCH   1   9
ATOM      8  N   UNL     1       6.814   7.543   6.140  0.00  0.00    -0.308 N 
ATOM      9  C   UNL     1       6.333   8.356   5.178  0.00  0.00    +0.216 C 
ATOM     10  O   UNL     1       5.936   9.466   5.465  0.00  0.00    -0.276 OA
ATOM     11  H   UNL     1       7.174   6.537   5.880  0.00  0.00    +0.149 HD
BRANCH   8  15
ATOM     12  C   UNL     1       7.792   9.021  10.036  0.00  0.00    +0.055 C 
ATOM     13  C   UNL     1       7.786   7.512   9.783  0.00  0.00    +0.107 C 
ATOM     14  C   UNL     1       7.952   7.238   8.283  0.00  0.00    +0.074 C 
ATOM     15  C   UNL     1       6.858   8.000   7.531  0.00  0.00    +0.110 C 
ATOM     16  C   UNL     1       5.523   7.747   8.184  0.00  0.00    +0.015 A 
ATOM     17  C   UNL     1       4.369   8.023   7.470  0.00  0.00    +0.009 A 
ATOM     18  C   UNL     1       3.129   7.806   8.039  0.00  0.00    +0.001 A 
ATOM     19  C   UNL     1       3.036   7.312   9.327  0.00  0.00    +0.004 A 
ATOM     20  C   UNL     1       4.183   7.036  10.043  0.00  0.00    +0.046 A 
ATOM     21  C   UNL     1       5.434   7.251   9.473  0.00  0.00    +0.126 A 
ATOM     22  O   UNL     1       6.539   6.959  10.206  0.00  0.00    -0.486 OA
ATOM     23  C   UNL     1       8.931   6.855  10.557  0.00  0.00    +0.055 C 
ENDBRANCH   8  15
ENDBRANCH   1   9
BRANCH   4  24
ATOM     24  C   UNL     1       4.515   6.863  -0.006  0.00  0.00    +0.022 C 
BRANCH  24  25
ATOM     25  C   UNL     1       3.846   5.513  -0.007  0.00  0.00    +0.211 A 
ATOM     26  N   UNL     1       2.557   5.283  -0.001  0.00  0.00    -0.193 NA
ATOM     27  C   UNL     1       2.427   3.937  -0.001  0.00  0.00    +0.202 A 
ATOM     28  N   UNL     1       3.634   3.433  -0.016  0.00  0.00    -0.056 NA
ATOM     29  O   UNL     1       4.457   4.324  -0.019  0.00  0.00    -0.340 OA
BRANCH  27  30
ATOM     30  C   UNL     1       1.154   3.174   0.008  0.00  0.00    +0.023 A 
ATOM     31  C   UNL     1       1.174   1.781   0.000  0.00  0.00    +0.012 A 
ATOM     32  C   UNL     1      -0.013   1.076   0.008  0.00  0.00    +0.002 A 
ATOM     33  C   UNL     1      -1.220   1.750   0.017  0.00  0.00    +0.015 A 
ATOM     34  C   UNL     1      -1.246   3.133   0.030  0.00  0.00    +0.019 A 
ATOM     35  C   UNL     1      -0.065   3.848   0.022  0.00  0.00    +0.027 A 
ATOM     36 BR   UNL     1      -2.902   4.046   0.049  0.00  0.00    -0.050 Br
ENDBRANCH  27  30
ENDBRANCH  24  25
ENDBRANCH   4  24
TORSDOF 5
