REMARK  Name = ZINC09184332
REMARK  7 active torsions:
REMARK  status: ('A' for Active; 'I' for Inactive)
REMARK    1  A    between atoms: C_1  and  C_2
REMARK    2  A    between atoms: C_2  and  C_4
REMARK    3  A    between atoms: C_2  and  N_12
REMARK    4  A    between atoms: N_6  and  C_7
REMARK    5  A    between atoms: C_13  and  C_15
REMARK    6  A    between atoms: N_20  and  S_22
REMARK    7  A    between atoms: S_22  and  C_25
REMARK                            x       y       z     vdW  Elec       q    Type
REMARK                         _______ _______ _______ _____ _____    ______ ____
ROOT
ATOM      1  C   UNL     1      -0.759   1.596  -1.228  0.00  0.00    +0.091 C 
ATOM      2  C   UNL     1      -0.898   3.118  -1.144  0.00  0.00    +0.015 C 
ATOM      3  C   UNL     1      -1.711   3.490   0.099  0.00  0.00    +0.018 C 
ATOM      4  C   UNL     1      -0.975   3.001   1.350  0.00  0.00    +0.109 C 
ATOM      5  N   UNL     1      -0.706   1.562   1.213  0.00  0.00    -0.176 NA
ATOM      6  C   UNL     1      -0.013   1.086   0.008  0.00  0.00    +0.122 C 
ENDROOT
BRANCH   1   8
ATOM      7  N   UNL     1      -0.456   1.579  -3.683  0.00  0.00    -0.304 N 
ATOM      8  C   UNL     1       0.013   1.230  -2.469  0.00  0.00    +0.218 C 
ATOM      9  O   UNL     1       1.058   0.621  -2.376  0.00  0.00    -0.275 OA
ATOM     10  H   UNL     1      -1.292   2.066  -3.759  0.00  0.00    +0.149 HD
BRANCH   7  12
ATOM     11  C   UNL     1      -0.073  -0.199  -5.318  0.00  0.00    +0.038 C 
ATOM     12  C   UNL     1       0.295   1.222  -4.890  0.00  0.00    +0.156 C 
BRANCH  12  13
ATOM     13  C   UNL     1      -0.048   2.185  -5.997  0.00  0.00    +0.233 C 
ATOM     14  O   UNL     1      -0.841   3.081  -5.798  0.00  0.00    -0.274 OA
ATOM     15  N   UNL     1       0.528   2.051  -7.209  0.00  0.00    -0.311 N 
ATOM     16  H   UNL     1       1.162   1.335  -7.367  0.00  0.00    +0.149 HD
BRANCH  15  17
ATOM     17  C   UNL     1       0.195   2.987  -8.285  0.00  0.00    +0.073 C 
ATOM     18  C   UNL     1      -1.042   2.486  -9.059  0.00  0.00    +0.022 C 
ATOM     19  C   UNL     1      -0.746   2.860 -10.532  0.00  0.00    +0.002 C 
ATOM     20  C   UNL     1       0.774   2.593 -10.654  0.00  0.00    +0.002 C 
ATOM     21  C   UNL     1       1.350   3.056  -9.300  0.00  0.00    +0.022 C 
ENDBRANCH  15  17
ENDBRANCH  12  13
ENDBRANCH   7  12
ENDBRANCH   1   8
BRANCH   5  22
ATOM     22  S   UNL     1      -1.179   0.499   2.390  0.00  0.00    +0.061 S 
ATOM     23  O   UNL     1      -2.252   1.116   3.088  0.00  0.00    -0.153 OA
ATOM     24  O   UNL     1      -1.308  -0.770   1.764  0.00  0.00    -0.153 OA
BRANCH  22  25
ATOM     25  C   UNL     1       0.154   0.362   3.535  0.00  0.00    +0.106 A 
ATOM     26  C   UNL     1       1.127  -0.602   3.350  0.00  0.00    +0.031 A 
ATOM     27  C   UNL     1       2.176  -0.706   4.244  0.00  0.00    +0.040 A 
ATOM     28  C   UNL     1       2.245   0.148   5.332  0.00  0.00    +0.124 A 
ATOM     29  C   UNL     1       1.266   1.109   5.519  0.00  0.00    +0.040 A 
ATOM     30  C   UNL     1       0.222   1.216   4.620  0.00  0.00    +0.031 A 
ATOM     31  F   UNL     1       3.266   0.043   6.210  0.00  0.00    -0.205 F 
ENDBRANCH  22  25
ENDBRANCH   5  22
TORSDOF 6
