REMARK  Name = ZINC38711681
REMARK  6 active torsions:
REMARK  status: ('A' for Active; 'I' for Inactive)
REMARK    1  A    between atoms: C_5  and  C_7
REMARK    2  A    between atoms: C_7  and  C_9
REMARK    3  A    between atoms: C_11  and  N_34
REMARK    4  A    between atoms: C_14  and  N_15
REMARK    5  A    between atoms: C_16  and  C_18
REMARK    6  A    between atoms: C_24  and  C_26
REMARK                            x       y       z     vdW  Elec       q    Type
REMARK                         _______ _______ _______ _____ _____    ______ ____
ROOT
ATOM      1  C   UNL     1      -0.927  -4.537   1.921  0.00  0.00    +0.046 A 
ATOM      2  C   UNL     1      -2.163  -3.905   1.756  0.00  0.00    +0.046 A 
ATOM      3  C   UNL     1      -2.973  -4.247   0.695  0.00  0.00    +0.127 A 
ATOM      4  C   UNL     1      -2.570  -5.216  -0.210  0.00  0.00    +0.034 A 
ATOM      5  C   UNL     1      -1.352  -5.849  -0.061  0.00  0.00    +0.026 A 
ATOM      6  C   UNL     1      -0.520  -5.514   0.999  0.00  0.00    +0.044 A 
ENDROOT
BRANCH   6   7
ATOM      7  N   UNL     1       0.711  -6.148   1.149  0.00  0.00    -0.285 N 
ATOM      8  C   UNL     1       1.439  -6.473   0.062  0.00  0.00    +0.221 C 
ATOM      9  O   UNL     1       0.984  -6.293  -1.048  0.00  0.00    -0.275 OA
ATOM     10  H   UNL     1       1.045  -6.356   2.036  0.00  0.00    +0.155 HD
BRANCH   8  11
ATOM     11  C   UNL     1       2.817  -7.060   0.226  0.00  0.00    +0.091 C 
ATOM     12  C   UNL     1       3.733  -6.539  -0.883  0.00  0.00    +0.040 C 
ATOM     13  C   UNL     1       3.337  -7.132  -2.203  0.00  0.00    -0.030 C 
ATOM     14  C   UNL     1       2.590  -8.181  -2.332  0.00  0.00    -0.030 C 
ATOM     15  C   UNL     1       2.008  -8.945  -1.179  0.00  0.00    +0.040 C 
ATOM     16  C   UNL     1       2.741  -8.589   0.120  0.00  0.00    +0.091 C 
BRANCH  16  17
ATOM     17  C   UNL     1       1.990  -9.142   1.303  0.00  0.00    +0.220 C 
ATOM     18  O   UNL     1       0.792  -9.318   1.233  0.00  0.00    -0.275 OA
ATOM     19  N   UNL     1       2.650  -9.442   2.440  0.00  0.00    -0.297 N 
ATOM     20  C   UNL     1       4.079  -9.128   2.592  0.00  0.00    +0.136 C 
ATOM     21  C   UNL     1       4.271  -8.376   3.914  0.00  0.00    +0.179 C 
ATOM     22  O   UNL     1       3.670  -9.125   4.973  0.00  0.00    -0.377 OA
ATOM     23  C   UNL     1       2.256  -9.295   4.840  0.00  0.00    +0.179 C 
ATOM     24  C   UNL     1       1.960 -10.089   3.568  0.00  0.00    +0.136 C 
ENDBRANCH  16  17
ENDBRANCH   8  11
ENDBRANCH   6   7
BRANCH   3  25
ATOM     25  N   UNL     1      -4.282  -3.577   0.522  0.00  0.00    +0.056 N 
ATOM     26  O   UNL     1      -4.637  -2.732   1.310  0.00  0.00    -0.126 OA
ATOM     27  O   UNL     1      -4.995  -3.874  -0.408  0.00  0.00    -0.126 OA
ENDBRANCH   3  25
BRANCH   1  28
ATOM     28  C   UNL     1      -0.055  -4.176   3.053  0.00  0.00    +0.196 C 
ATOM     29  O   UNL     1       0.580  -3.140   3.025  0.00  0.00    -0.287 OA
BRANCH  28  34
ATOM     30  C   UNL     1      -0.667  -7.038   5.406  0.00  0.00    +0.001 A 
ATOM     31  C   UNL     1       0.236  -6.755   6.416  0.00  0.00    +0.001 A 
ATOM     32  C   UNL     1       1.045  -5.636   6.336  0.00  0.00    +0.021 A 
ATOM     33  C   UNL     1       0.956  -4.793   5.246  0.00  0.00    +0.052 A 
ATOM     34  C   UNL     1       0.046  -5.073   4.223  0.00  0.00    +0.041 A 
ATOM     35  C   UNL     1      -0.767  -6.206   4.311  0.00  0.00    +0.013 A 
ATOM     36 CL   UNL     1       1.971  -3.388   5.147  0.00  0.00    -0.083 Cl
ENDBRANCH  28  34
ENDBRANCH   1  28
TORSDOF 6
