REMARK  Name = ZINC13155370
REMARK  9 active torsions:
REMARK  status: ('A' for Active; 'I' for Inactive)
REMARK    1  A    between atoms: C_1  and  C_2
REMARK    2  A    between atoms: C_2  and  N_3
REMARK    3  A    between atoms: C_4  and  C_20
REMARK    4  A    between atoms: C_7  and  S_8
REMARK    5  A    between atoms: S_8  and  C_9
REMARK    6  A    between atoms: C_9  and  C_10
REMARK    7  A    between atoms: C_16  and  C_19
REMARK    8  A    between atoms: C_24  and  S_26
REMARK    9  A    between atoms: S_26  and  N_29
REMARK                            x       y       z     vdW  Elec       q    Type
REMARK                         _______ _______ _______ _____ _____    ______ ____
ROOT
ATOM      1  N   UNL     1      -0.823   4.356   9.497  0.00  0.00    -0.302 N 
ATOM      2  C   UNL     1      -1.988   4.400  10.228  0.00  0.00    +0.165 A 
ATOM      3  N   UNL     1      -2.898   3.749   9.542  0.00  0.00    -0.128 NA
ATOM      4  N   UNL     1      -2.392   3.312   8.444  0.00  0.00    -0.122 NA
ATOM      5  C   UNL     1      -1.123   3.649   8.367  0.00  0.00    +0.192 A 
ENDROOT
BRANCH   2   6
ATOM      6  C   UNL     1      -2.178   5.057  11.538  0.00  0.00    +0.021 A 
ATOM      7  C   UNL     1      -1.279   6.034  11.970  0.00  0.00    +0.012 A 
ATOM      8  C   UNL     1      -1.465   6.646  13.192  0.00  0.00    +0.003 A 
ATOM      9  C   UNL     1      -2.534   6.287  13.994  0.00  0.00    +0.028 A 
ATOM     10  C   UNL     1      -3.426   5.316  13.574  0.00  0.00    +0.106 A 
ATOM     11  C   UNL     1      -3.255   4.700  12.352  0.00  0.00    +0.040 A 
BRANCH  10  12
ATOM     12  S   UNL     1      -4.784   4.866  14.603  0.00  0.00    +0.061 S 
ATOM     13  O   UNL     1      -5.033   5.976  15.455  0.00  0.00    -0.153 OA
ATOM     14  O   UNL     1      -5.780   4.325  13.746  0.00  0.00    -0.153 OA
BRANCH  12  15
ATOM     15  N   UNL     1      -4.272   3.628  15.575  0.00  0.00    -0.177 NA
ATOM     16  C   UNL     1      -4.371   2.195  15.262  0.00  0.00    +0.109 C 
ATOM     17  C   UNL     1      -3.792   1.421  16.465  0.00  0.00    +0.018 C 
ATOM     18  C   UNL     1      -3.927   2.440  17.628  0.00  0.00    +0.018 C 
ATOM     19  C   UNL     1      -3.646   3.779  16.902  0.00  0.00    +0.109 C 
ENDBRANCH  12  15
ENDBRANCH  10  12
ENDBRANCH   2   6
BRANCH   1  21
ATOM     20  C   UNL     1       0.579   6.344   9.245  0.00  0.00    +0.027 C 
ATOM     21  C   UNL     1       0.469   4.945   9.855  0.00  0.00    +0.122 C 
ENDBRANCH   1  21
BRANCH   5  22
ATOM     22  S   UNL     1      -0.019   3.267   7.049  0.00  0.00    -0.077 S 
BRANCH  22  23
ATOM     23  C   UNL     1      -1.132   2.337   5.966  0.00  0.00    +0.173 C 
BRANCH  23  24
ATOM     24  C   UNL     1      -0.382   1.895   4.736  0.00  0.00    +0.226 C 
ATOM     25  O   UNL     1       0.789   2.180   4.604  0.00  0.00    -0.275 OA
ATOM     26  N   UNL     1      -1.014   1.183   3.781  0.00  0.00    -0.301 N 
ATOM     27  C   UNL     1      -2.433   0.830   3.926  0.00  0.00    +0.108 C 
ATOM     28  C   UNL     1      -3.187   1.295   2.677  0.00  0.00    +0.019 C 
ATOM     29  C   UNL     1      -2.517   0.707   1.433  0.00  0.00    +0.006 C 
ATOM     30  C   UNL     1      -1.074   1.211   1.342  0.00  0.00    +0.003 C 
ATOM     31  C   UNL     1      -0.296   0.744   2.577  0.00  0.00    +0.111 C 
ATOM     32  C   UNL     1      -0.416   0.648   0.081  0.00  0.00    +0.009 C 
ENDBRANCH  23  24
ENDBRANCH  22  23
ENDBRANCH   5  22
TORSDOF 7
