REMARK  Name = ZINC04818171
REMARK  6 active torsions:
REMARK  status: ('A' for Active; 'I' for Inactive)
REMARK    1  A    between atoms: C_1  and  C_2
REMARK    2  A    between atoms: C_5  and  N_8
REMARK    3  A    between atoms: C_20  and  C_22
REMARK    4  A    between atoms: C_22  and  S_23
REMARK    5  A    between atoms: S_23  and  C_24
REMARK    6  A    between atoms: C_27  and  C_29
REMARK                            x       y       z     vdW  Elec       q    Type
REMARK                         _______ _______ _______ _____ _____    ______ ____
ROOT
ATOM      1  N   UNL     1      -3.659  -1.578  -1.077  0.00  0.00    -0.327 N 
ATOM      2  C   UNL     1      -3.626  -0.576  -0.002  0.00  0.00    +0.124 C 
ATOM      3  C   UNL     1      -2.325   0.224  -0.094  0.00  0.00    +0.127 C 
ATOM      4  N   UNL     1      -1.181  -0.693   0.010  0.00  0.00    -0.298 N 
ATOM      5  C   UNL     1      -1.214  -1.695  -1.065  0.00  0.00    +0.127 C 
ATOM      6  C   UNL     1      -2.515  -2.495  -0.973  0.00  0.00    +0.124 C 
ATOM      7  C   UNL     1       0.002  -0.004   0.002  0.00  0.00    +0.199 A 
ATOM      8  N   UNL     1       1.176  -0.692  -0.012  0.00  0.00    -0.295 N 
ATOM      9  H   UNL     1       1.171  -1.692  -0.017  0.00  0.00    +0.172 HD
ATOM     10  C   UNL     1       2.347  -0.019  -0.020  0.00  0.00    +0.253 A 
ATOM     11  O   UNL     1       3.409  -0.620  -0.033  0.00  0.00    -0.268 OA
ATOM     12  C   UNL     1       2.319   1.387  -0.013  0.00  0.00    +0.094 A 
ATOM     13  C   UNL     1       1.111   2.022   0.002  0.00  0.00    +0.060 A 
ATOM     14  N   UNL     1      -0.016   1.314   0.009  0.00  0.00    -0.220 NA
ENDROOT
BRANCH   1  19
ATOM     15  C   UNL     1      -8.559  -4.432  -1.044  0.00  0.00    +0.044 C 
ATOM     16  C   UNL     1      -7.257  -3.674  -1.053  0.00  0.00    -0.050 A 
ATOM     17  C   UNL     1      -6.292  -3.970  -1.998  0.00  0.00    +0.005 A 
ATOM     18  C   UNL     1      -5.098  -3.277  -2.009  0.00  0.00    +0.023 A 
ATOM     19  C   UNL     1      -4.866  -2.281  -1.069  0.00  0.00    +0.030 A 
ATOM     20  C   UNL     1      -5.835  -1.989  -0.117  0.00  0.00    +0.023 A 
ATOM     21  C   UNL     1      -7.030  -2.683  -0.116  0.00  0.00    +0.005 A 
ENDBRANCH   1  19
BRANCH  13  22
ATOM     22  C   UNL     1       1.054   3.528   0.010  0.00  0.00    +0.132 C 
BRANCH  22  23
ATOM     23  S   UNL     1       0.574   4.122  -1.631  0.00  0.00    -0.091 S 
BRANCH  23  24
ATOM     24  C   UNL     1       0.585   5.860  -1.342  0.00  0.00    +0.159 A 
ATOM     25  N   UNL     1       0.866   6.541  -0.237  0.00  0.00    -0.135 NA
ATOM     26  N   UNL     1       0.825   7.801  -0.205  0.00  0.00    -0.146 NA
ATOM     27  C   UNL     1       0.502   8.521  -1.261  0.00  0.00    +0.100 A 
ATOM     28  S   UNL     1       0.229   7.216  -2.456  0.00  0.00    -0.044 S 
ATOM     29  C   UNL     1       0.399  10.016  -1.418  0.00  0.00    +0.075 C 
ENDBRANCH  23  24
ENDBRANCH  22  23
ENDBRANCH  13  22
TORSDOF 4
