REMARK  Name = ZINC20764361
REMARK  12 active torsions:
REMARK  status: ('A' for Active; 'I' for Inactive)
REMARK    1  A    between atoms: C_1  and  C_2
REMARK    2  A    between atoms: C_2  and  O_3
REMARK    3  A    between atoms: O_3  and  C_4
REMARK    4  A    between atoms: C_8  and  C_11
REMARK    5  A    between atoms: C_9  and  O_10
REMARK    6  A    between atoms: C_14  and  C_29
REMARK    7  A    between atoms: C_16  and  C_19
REMARK    8  A    between atoms: C_22  and  C_25
REMARK    9  A    between atoms: C_25  and  O_27
REMARK   10  A    between atoms: O_27  and  C_28
REMARK   11  A    between atoms: C_33  and  O_35
REMARK   12  A    between atoms: O_35  and  C_36
REMARK                            x       y       z     vdW  Elec       q    Type
REMARK                         _______ _______ _______ _____ _____    ______ ____
ROOT
ATOM      1  C   UNL     1      -0.777   1.529  -1.137  0.00  0.00    -0.028 C 
ATOM      2  C   UNL     1      -0.172   0.953  -2.421  0.00  0.00    +0.044 C 
ATOM      3  C   UNL     1       1.324   1.102  -2.381  0.00  0.00    +0.040 C 
ATOM      4  N   UNL     1       1.972   1.360  -1.308  0.00  0.00    -0.299 NA
ATOM      5  C   UNL     1       1.351   1.549  -0.003  0.00  0.00    +0.081 C 
ATOM      6  N   UNL     1      -0.012   1.005   0.008  0.00  0.00    +0.401 N 
ATOM      7  H   UNL     1      -0.508   1.295   0.945  0.00  0.00    -0.081 HD
ATOM      8  H   UNL     1       0.038  -0.092  -0.056  0.00  0.00    -0.081 HD
ENDROOT
BRANCH   1  13
ATOM      9  C   UNL     1      -4.531   1.399  -1.607  0.00  0.00    +0.162 A 
ATOM     10  C   UNL     1      -4.868   0.323  -0.802  0.00  0.00    +0.049 A 
ATOM     11  C   UNL     1      -3.884  -0.358  -0.110  0.00  0.00    +0.004 A 
ATOM     12  C   UNL     1      -2.561   0.029  -0.224  0.00  0.00    +0.006 A 
ATOM     13  C   UNL     1      -2.219   1.106  -1.020  0.00  0.00    -0.016 A 
ATOM     14  C   UNL     1      -3.201   1.792  -1.717  0.00  0.00    +0.160 A 
BRANCH  14  15
ATOM     15  O   UNL     1      -2.865   2.848  -2.506  0.00  0.00    -0.503 OA
ATOM     16  H   UNL     1      -1.813   3.157  -2.592  0.00  0.00    +0.292 HD
ENDBRANCH  14  15
BRANCH   9  17
ATOM     17  O   UNL     1      -5.498   2.070  -2.288  0.00  0.00    -0.489 OA
BRANCH  17  19
ATOM     18  C   UNL     1      -7.782   2.481  -2.964  0.00  0.00    +0.048 C 
ATOM     19  C   UNL     1      -6.842   1.610  -2.128  0.00  0.00    +0.226 C 
ENDBRANCH  17  19
ENDBRANCH   9  17
ENDBRANCH   1  13
BRANCH   5  20
ATOM     20  C   UNL     1       2.175   0.846   1.046  0.00  0.00    -0.040 A 
ATOM     21  C   UNL     1       1.566   0.365   2.191  0.00  0.00    +0.004 A 
ATOM     22  C   UNL     1       2.313  -0.283   3.153  0.00  0.00    +0.015 A 
ATOM     23  C   UNL     1       3.688  -0.445   2.973  0.00  0.00    +0.059 A 
ATOM     24  C   UNL     1       4.297   0.048   1.816  0.00  0.00    +0.015 A 
ATOM     25  C   UNL     1       3.537   0.690   0.861  0.00  0.00    +0.004 A 
BRANCH  23  26
ATOM     26  C   UNL     1       4.495  -1.134   4.000  0.00  0.00    +0.339 C 
ATOM     27  O   UNL     1       5.691  -1.274   3.840  0.00  0.00    -0.245 OA
BRANCH  26  28
ATOM     28  O   UNL     1       3.905  -1.608   5.114  0.00  0.00    -0.464 OA
ATOM     29  C   UNL     1       4.759  -2.274   6.081  0.00  0.00    +0.280 C 
ENDBRANCH  26  28
ENDBRANCH  23  26
ENDBRANCH   5  20
BRANCH   3  30
ATOM     30  C   UNL     1       2.081   0.945  -3.638  0.00  0.00    -0.001 A 
ATOM     31  C   UNL     1       1.409   0.658  -4.829  0.00  0.00    +0.010 A 
ATOM     32  C   UNL     1       2.119   0.516  -6.003  0.00  0.00    +0.004 A 
ATOM     33  C   UNL     1       3.496   0.647  -6.004  0.00  0.00    +0.045 A 
ATOM     34  C   UNL     1       4.173   0.927  -4.825  0.00  0.00    +0.121 A 
ATOM     35  C   UNL     1       3.470   1.076  -3.641  0.00  0.00    +0.055 A 
BRANCH  34  36
ATOM     36  O   UNL     1       5.526   1.054  -4.832  0.00  0.00    -0.495 OA
ATOM     37  C   UNL     1       6.186   0.887  -6.088  0.00  0.00    +0.277 C 
ENDBRANCH  34  36
ENDBRANCH   3  30
TORSDOF 9
