REMARK  Name = ZINC09229470
REMARK  8 active torsions:
REMARK  status: ('A' for Active; 'I' for Inactive)
REMARK    1  A    between atoms: C_1  and  C_2
REMARK    2  A    between atoms: C_5  and  O_9
REMARK    3  A    between atoms: O_9  and  C_10
REMARK    4  A    between atoms: C_10  and  C_11
REMARK    5  A    between atoms: N_13  and  N_14
REMARK    6  A    between atoms: C_15  and  C_17
REMARK    7  A    between atoms: C_18  and  C_19
REMARK    8  A    between atoms: C_22  and  N_25
REMARK                            x       y       z     vdW  Elec       q    Type
REMARK                         _______ _______ _______ _____ _____    ______ ____
ROOT
ATOM      1  N   UNL     1       1.885   5.734   0.015  0.00  0.00    -0.231 N 
ATOM      2  C   UNL     1       2.943   6.569   0.009  0.00  0.00    +0.253 C 
ATOM      3  O   UNL     1       4.074   6.120  -0.004  0.00  0.00    -0.269 OA
ATOM      4  H   UNL     1       0.984   6.092   0.025  0.00  0.00    +0.173 HD
ENDROOT
BRANCH   1   7
ATOM      5  C   UNL     1       1.030   3.512   0.011  0.00  0.00    +0.267 C 
ATOM      6  O   UNL     1      -0.097   3.960   0.024  0.00  0.00    -0.271 OA
ATOM      7  N   UNL     1       2.088   4.348   0.005  0.00  0.00    -0.231 N 
ATOM      8  H   UNL     1       2.989   3.989  -0.005  0.00  0.00    +0.173 HD
BRANCH   5   9
ATOM      9  C   UNL     1       1.248   2.021   0.001  0.00  0.00    +0.326 C 
BRANCH   9  10
ATOM     10  O   UNL     1      -0.016   1.355   0.009  0.00  0.00    -0.482 OA
BRANCH  10  15
ATOM     11  C   UNL     1       0.061  -4.278  -0.019  0.00  0.00    +0.044 C 
ATOM     12  C   UNL     1       0.040  -2.771  -0.012  0.00  0.00    -0.049 A 
ATOM     13  C   UNL     1       1.228  -2.064  -0.020  0.00  0.00    +0.007 A 
ATOM     14  C   UNL     1       1.212  -0.682  -0.013  0.00  0.00    +0.047 A 
ATOM     15  C   UNL     1       0.002  -0.004   0.002  0.00  0.00    +0.135 A 
ATOM     16  C   UNL     1      -1.190  -0.716   0.015  0.00  0.00    +0.060 A 
ATOM     17  C   UNL     1      -1.168  -2.098   0.004  0.00  0.00    +0.022 A 
ATOM     18 BR   UNL     1      -2.841   0.205   0.043  0.00  0.00    -0.047 Br
ENDBRANCH  10  15
ENDBRANCH   9  10
ENDBRANCH   5   9
ENDBRANCH   1   7
BRANCH   2  19
ATOM     19  C   UNL     1       2.732   8.018   0.019  0.00  0.00    +0.069 C 
ATOM     20  C   UNL     1       3.789   8.854   0.013  0.00  0.00    +0.013 C 
BRANCH  20  21
ATOM     21  C   UNL     1       3.577  10.310   0.023  0.00  0.00    -0.025 A 
ATOM     22  C   UNL     1       2.279  10.831   0.033  0.00  0.00    +0.010 A 
ATOM     23  C   UNL     1       2.088  12.197   0.048  0.00  0.00    +0.033 A 
ATOM     24  C   UNL     1       3.176  13.051   0.042  0.00  0.00    +0.126 A 
ATOM     25  C   UNL     1       4.464  12.544   0.027  0.00  0.00    +0.033 A 
ATOM     26  C   UNL     1       4.671  11.181   0.018  0.00  0.00    +0.010 A 
BRANCH  24  27
ATOM     27  N   UNL     1       2.963  14.516   0.052  0.00  0.00    +0.056 N 
ATOM     28  O   UNL     1       3.918  15.271   0.047  0.00  0.00    -0.126 OA
ATOM     29  O   UNL     1       1.831  14.966   0.066  0.00  0.00    -0.126 OA
ENDBRANCH  24  27
ENDBRANCH  20  21
ENDBRANCH   2  19
TORSDOF 7
