REMARK  Name = ZINC02415335
REMARK  9 active torsions:
REMARK  status: ('A' for Active; 'I' for Inactive)
REMARK    1  A    between atoms: C_1  and  N_2
REMARK    2  A    between atoms: N_2  and  C_3
REMARK    3  A    between atoms: N_2  and  C_4
REMARK    4  A    between atoms: C_7  and  C_10
REMARK    5  A    between atoms: N_11  and  N_12
REMARK    6  A    between atoms: C_13  and  N_34
REMARK    7  A    between atoms: C_14  and  C_25
REMARK    8  A    between atoms: N_27  and  C_28
REMARK    9  A    between atoms: C_28  and  C_29
REMARK                            x       y       z     vdW  Elec       q    Type
REMARK                         _______ _______ _______ _____ _____    ______ ____
ROOT
ATOM      1  N   UNL     1      -4.837   0.929   0.031  0.00  0.00    -0.198 N 
ATOM      2  C   UNL     1      -5.512   0.545  -1.089  0.00  0.00    +0.134 A 
ATOM      3  C   UNL     1      -6.668  -0.148  -0.745  0.00  0.00    +0.105 A 
ATOM      4  C   UNL     1      -6.711  -0.186   0.726  0.00  0.00    +0.124 A 
ATOM      5  C   UNL     1      -5.507   0.523   1.169  0.00  0.00    +0.183 A 
ATOM      6  N   UNL     1      -5.269   0.653   2.457  0.00  0.00    -0.224 NA
ATOM      7  C   UNL     1      -6.126   0.140   3.348  0.00  0.00    +0.092 A 
ATOM      8  C   UNL     1      -5.880   0.275   4.727  0.00  0.00    +0.030 A 
ATOM      9  C   UNL     1      -6.756  -0.251   5.626  0.00  0.00    +0.002 A 
ATOM     10  C   UNL     1      -7.900  -0.924   5.202  0.00  0.00    +0.002 A 
ATOM     11  C   UNL     1      -8.172  -1.075   3.878  0.00  0.00    +0.030 A 
ATOM     12  C   UNL     1      -7.290  -0.546   2.918  0.00  0.00    +0.090 A 
ATOM     13  N   UNL     1      -7.547  -0.688   1.612  0.00  0.00    -0.241 NA
ENDROOT
BRANCH   3  14
ATOM     14  C   UNL     1      -7.620  -0.704  -1.637  0.00  0.00    +0.250 C 
ATOM     15  O   UNL     1      -8.566  -0.035  -2.012  0.00  0.00    -0.270 OA
ATOM     16  N   UNL     1      -7.479  -1.973  -2.069  0.00  0.00    -0.307 N 
ATOM     17  H   UNL     1      -6.726  -2.506  -1.770  0.00  0.00    +0.149 HD
BRANCH  16  18
ATOM     18  C   UNL     1      -8.463  -2.547  -2.989  0.00  0.00    +0.147 C 
BRANCH  18  19
ATOM     19  C   UNL     1      -8.077  -3.967  -3.315  0.00  0.00    +0.007 A 
ATOM     20  C   UNL     1      -8.421  -5.113  -2.678  0.00  0.00    +0.013 A 
ATOM     21  C   UNL     1      -7.947  -6.318  -3.163  0.00  0.00    +0.008 A 
ATOM     22  C   UNL     1      -7.144  -6.317  -4.255  0.00  0.00    +0.045 A 
ATOM     23  S   UNL     1      -7.043  -4.576  -4.637  0.00  0.00    -0.100 S 
ENDBRANCH  18  19
ENDBRANCH  16  18
ENDBRANCH   3  14
BRANCH   2  24
ATOM     24  N   UNL     1      -5.106   0.802  -2.374  0.00  0.00    -0.342 N 
ATOM     25  H   UNL     1      -4.284   1.291  -2.534  0.00  0.00    +0.144 HD
ATOM     26  H   UNL     1      -5.643   0.496  -3.122  0.00  0.00    +0.144 HD
ENDBRANCH   2  24
BRANCH   1  28
ATOM     27  C   UNL     1      -2.500   1.008   0.020  0.00  0.00    +0.141 C 
ATOM     28  N   UNL     1      -3.631   1.644   0.029  0.00  0.00    -0.171 NA
BRANCH  27  32
ATOM     29  C   UNL     1       1.152   3.172   0.008  0.00  0.00    +0.029 A 
ATOM     30  C   UNL     1       1.170   1.782   0.001  0.00  0.00    +0.024 A 
ATOM     31  C   UNL     1      -0.013   1.076   0.008  0.00  0.00    +0.011 A 
ATOM     32  C   UNL     1      -1.232   1.759   0.017  0.00  0.00    -0.005 A 
ATOM     33  C   UNL     1      -1.246   3.157   0.029  0.00  0.00    +0.011 A 
ATOM     34  C   UNL     1      -0.059   3.856   0.022  0.00  0.00    +0.024 A 
BRANCH  29  36
ATOM     35  C   UNL     1       3.629   3.166  -0.016  0.00  0.00    +0.129 C 
ATOM     36  N   UNL     1       2.352   3.883   0.000  0.00  0.00    -0.336 N 
ATOM     37  C   UNL     1       2.335   5.348   0.007  0.00  0.00    +0.129 C 
ENDBRANCH  29  36
ENDBRANCH  27  32
ENDBRANCH   1  28
TORSDOF 7
