REMARK  Name = ZINC37443518
REMARK  9 active torsions:
REMARK  status: ('A' for Active; 'I' for Inactive)
REMARK    1  A    between atoms: C_1  and  C_2
REMARK    2  A    between atoms: C_7  and  N_12
REMARK    3  A    between atoms: C_9  and  C_11
REMARK    4  A    between atoms: C_13  and  C_15
REMARK    5  A    between atoms: C_15  and  C_37
REMARK    6  A    between atoms: N_27  and  C_28
REMARK    7  A    between atoms: C_28  and  C_29
REMARK    8  A    between atoms: C_32  and  O_35
REMARK    9  A    between atoms: O_35  and  C_36
REMARK                            x       y       z     vdW  Elec       q    Type
REMARK                         _______ _______ _______ _____ _____    ______ ____
ROOT
ATOM      1  C   UNL     1      -2.764  -3.794   2.336  0.00  0.00    +0.129 C 
ATOM      2  C   UNL     1      -2.982  -5.224   2.829  0.00  0.00    +0.157 C 
ATOM      3  N   UNL     1      -2.811  -6.152   1.707  0.00  0.00    -0.331 N 
ATOM      4  C   UNL     1      -2.387  -7.446   1.698  0.00  0.00    +0.088 A 
ATOM      5  C   UNL     1      -1.923  -8.535   2.475  0.00  0.00    +0.067 A 
ATOM      6  C   UNL     1      -1.704  -9.561   1.635  0.00  0.00    +0.198 A 
ATOM      7  O   UNL     1      -2.001  -9.183   0.380  0.00  0.00    -0.461 OA
ATOM      8  C   UNL     1      -2.418  -7.899   0.379  0.00  0.00    +0.153 A 
ATOM      9  C   UNL     1      -2.868  -6.839  -0.422  0.00  0.00    +0.079 A 
ATOM     10  C   UNL     1      -3.098  -5.774   0.398  0.00  0.00    +0.109 A 
ATOM     11  C   UNL     1      -3.554  -4.413   0.091  0.00  0.00    +0.264 C 
ATOM     12  O   UNL     1      -3.973  -4.110  -1.011  0.00  0.00    -0.268 OA
ATOM     13  N   UNL     1      -3.483  -3.512   1.099  0.00  0.00    -0.276 N 
ATOM     14  C   UNL     1      -3.242  -2.822   3.417  0.00  0.00    +0.043 C 
ENDROOT
BRANCH   1  16
ATOM     15  N   UNL     1      -0.745  -3.884   0.911  0.00  0.00    -0.310 N 
ATOM     16  C   UNL     1      -1.291  -3.577   2.104  0.00  0.00    +0.238 C 
ATOM     17  O   UNL     1      -0.597  -3.128   2.991  0.00  0.00    -0.273 OA
ATOM     18  H   UNL     1      -1.283  -4.312   0.227  0.00  0.00    +0.149 HD
BRANCH  15  24
ATOM     19  C   UNL     1       0.817  -4.915  -2.958  0.00  0.00    +0.008 C 
ATOM     20  C   UNL     1       0.572  -4.929  -1.448  0.00  0.00    -0.009 C 
ATOM     21  C   UNL     1       1.463  -5.989  -0.797  0.00  0.00    +0.003 C 
ATOM     22  C   UNL     1       1.219  -6.003   0.714  0.00  0.00    +0.002 C 
ATOM     23  C   UNL     1       1.552  -4.629   1.297  0.00  0.00    +0.022 C 
ATOM     24  C   UNL     1       0.661  -3.569   0.646  0.00  0.00    +0.076 C 
ATOM     25  C   UNL     1       0.906  -3.555  -0.864  0.00  0.00    +0.009 C 
ATOM     26  C   UNL     1       0.015  -2.494  -1.515  0.00  0.00    +0.009 C 
ENDBRANCH  15  24
ENDBRANCH   1  16
BRANCH  13  27
ATOM     27  C   UNL     1      -4.147  -2.216   0.942  0.00  0.00    +0.144 C 
BRANCH  27  28
ATOM     28  C   UNL     1      -3.234  -1.269   0.207  0.00  0.00    -0.030 A 
ATOM     29  C   UNL     1      -2.272  -0.560   0.901  0.00  0.00    +0.009 A 
ATOM     30  C   UNL     1      -1.434   0.309   0.230  0.00  0.00    +0.046 A 
ATOM     31  C   UNL     1      -1.558   0.470  -1.142  0.00  0.00    +0.120 A 
ATOM     32  C   UNL     1      -2.524  -0.243  -1.837  0.00  0.00    +0.046 A 
ATOM     33  C   UNL     1      -3.357  -1.115  -1.162  0.00  0.00    +0.009 A 
BRANCH  31  34
ATOM     34  O   UNL     1      -0.735   1.325  -1.805  0.00  0.00    -0.495 OA
ATOM     35  C   UNL     1      -0.992   1.525  -3.196  0.00  0.00    +0.277 C 
ENDBRANCH  31  34
ENDBRANCH  27  28
ENDBRANCH  13  27
TORSDOF 5
