REMARK  Name = ZINC04064983
REMARK  9 active torsions:
REMARK  status: ('A' for Active; 'I' for Inactive)
REMARK    1  A    between atoms: C_1  and  C_2
REMARK    2  A    between atoms: C_3  and  C_30
REMARK    3  A    between atoms: C_11  and  O_13
REMARK    4  A    between atoms: O_13  and  C_14
REMARK    5  A    between atoms: C_16  and  O_29
REMARK    6  A    between atoms: C_18  and  O_28
REMARK    7  A    between atoms: C_20  and  O_27
REMARK    8  A    between atoms: C_22  and  C_25
REMARK    9  A    between atoms: C_25  and  O_26
REMARK                            x       y       z     vdW  Elec       q    Type
REMARK                         _______ _______ _______ _____ _____    ______ ____
ROOT
ATOM      1  C   UNL     1       0.087  -2.206   5.972  0.00  0.00    +0.339 C 
ATOM      2  C   UNL     1      -0.014  -3.171   7.156  0.00  0.00    +0.214 C 
ATOM      3  C   UNL     1       0.048  -2.373   8.462  0.00  0.00    +0.180 C 
ATOM      4  C   UNL     1       1.344  -1.556   8.487  0.00  0.00    +0.177 C 
ATOM      5  C   UNL     1       1.392  -0.653   7.251  0.00  0.00    +0.179 C 
ATOM      6  O   UNL     1       1.299  -1.455   6.072  0.00  0.00    -0.331 OA
ENDROOT
BRANCH   4   7
ATOM      7  O   UNL     1       2.466  -2.440   8.478  0.00  0.00    -0.386 OA
ATOM      8  H   UNL     1       2.497  -3.045   9.232  0.00  0.00    +0.210 HD
ENDBRANCH   4   7
BRANCH   3   9
ATOM      9  O   UNL     1       0.027  -3.272   9.573  0.00  0.00    -0.386 OA
ATOM     10  H   UNL     1      -0.765  -3.826   9.615  0.00  0.00    +0.210 HD
ENDBRANCH   3   9
BRANCH   2  11
ATOM     11  O   UNL     1      -1.251  -3.882   7.088  0.00  0.00    -0.383 OA
ATOM     12  H   UNL     1      -1.360  -4.407   6.283  0.00  0.00    +0.210 HD
ENDBRANCH   2  11
BRANCH   1  13
ATOM     13  O   UNL     1       0.086  -2.948   4.751  0.00  0.00    -0.461 OA
BRANCH  13  24
ATOM     14  C   UNL     1      -0.018   1.503   0.010  0.00  0.00    +0.045 C 
ATOM     15  C   UNL     1       0.002  -0.004   0.002  0.00  0.00    -0.030 A 
ATOM     16  C   UNL     1       0.006  -0.695  -1.167  0.00  0.00    +0.037 A 
ATOM     17  C   UNL     1       0.026  -2.105  -1.149  0.00  0.00    +0.340 A 
ATOM     18  O   UNL     1       0.030  -2.712  -2.204  0.00  0.00    -0.245 OA
ATOM     19  O   UNL     1       0.041  -2.795   0.003  0.00  0.00    -0.422 OA
ATOM     20  C   UNL     1       0.038  -2.169   1.199  0.00  0.00    +0.143 A 
ATOM     21  C   UNL     1       0.024  -0.763   1.254  0.00  0.00    +0.021 A 
ATOM     22  C   UNL     1       0.026  -0.111   2.492  0.00  0.00    +0.015 A 
ATOM     23  C   UNL     1       0.046  -0.842   3.644  0.00  0.00    +0.046 A 
ATOM     24  C   UNL     1       0.066  -2.234   3.596  0.00  0.00    +0.128 A 
ATOM     25  C   UNL     1       0.053  -2.897   2.379  0.00  0.00    +0.092 A 
ATOM     26  C   UNL     1      -0.011   0.043  -2.481  0.00  0.00    +0.051 C 
ENDBRANCH  13  24
ENDBRANCH   1  13
BRANCH   5  27
ATOM     27  C   UNL     1       2.711   0.123   7.238  0.00  0.00    +0.190 C 
BRANCH  27  28
ATOM     28  O   UNL     1       2.707   1.050   6.150  0.00  0.00    -0.392 OA
ATOM     29  H   UNL     1       3.514   1.578   6.080  0.00  0.00    +0.210 HD
ENDBRANCH  27  28
ENDBRANCH   5  27
TORSDOF 7
