REMARK  Name = ZINC36586628
REMARK  20 active torsions:
REMARK  status: ('A' for Active; 'I' for Inactive)
REMARK    1  A    between atoms: C_1  and  C_2
REMARK    2  A    between atoms: C_2  and  C_3
REMARK    3  A    between atoms: C_2  and  C_4
REMARK    4  A    between atoms: C_2  and  C_5
REMARK    5  A    between atoms: C_5  and  C_6
REMARK    6  A    between atoms: C_6  and  C_7
REMARK    7  A    between atoms: C_6  and  C_8
REMARK    8  A    between atoms: C_6  and  N_9
REMARK    9  A    between atoms: C_10  and  C_12
REMARK   10  A    between atoms: C_12  and  C_14
REMARK   11  A    between atoms: C_12  and  N_22
REMARK   12  A    between atoms: C_18  and  O_20
REMARK   13  A    between atoms: O_20  and  C_21
REMARK   14  A    between atoms: N_22  and  C_33
REMARK   15  A    between atoms: C_23  and  C_25
REMARK   16  A    between atoms: C_26  and  O_32
REMARK   17  A    between atoms: C_30  and  O_31
REMARK   18  A    between atoms: C_33  and  C_34
REMARK   19  A    between atoms: C_33  and  C_35
REMARK   20  A    between atoms: C_33  and  C_36
REMARK                            x       y       z     vdW  Elec       q    Type
REMARK                         _______ _______ _______ _____ _____    ______ ____
ROOT
ATOM      1  C   UNL     1       4.957   0.497  -4.467  0.00  0.00    +0.193 C 
ENDROOT
BRANCH   1   2
ATOM      2  C   UNL     1       4.993  -0.717  -5.360  0.00  0.00    -0.015 A 
ATOM      3  C   UNL     1       5.912  -1.722  -5.122  0.00  0.00    +0.006 A 
ATOM      4  C   UNL     1       5.948  -2.837  -5.939  0.00  0.00    +0.004 A 
ATOM      5  C   UNL     1       5.065  -2.948  -6.996  0.00  0.00    +0.045 A 
ATOM      6  C   UNL     1       4.143  -1.941  -7.237  0.00  0.00    +0.120 A 
ATOM      7  C   UNL     1       4.105  -0.826  -6.412  0.00  0.00    +0.051 A 
BRANCH   6   8
ATOM      8  O   UNL     1       3.273  -2.048  -8.276  0.00  0.00    -0.495 OA
ATOM      9  C   UNL     1       3.366  -3.226  -9.080  0.00  0.00    +0.277 C 
ENDBRANCH   6   8
ENDBRANCH   1   2
BRANCH   1  11
ATOM     10  N   UNL     1       2.885  -0.265  -3.351  0.00  0.00    -0.308 N 
ATOM     11  C   UNL     1       4.149   0.189  -3.233  0.00  0.00    +0.239 C 
ATOM     12  O   UNL     1       4.636   0.349  -2.134  0.00  0.00    -0.273 OA
ATOM     13  H   UNL     1       2.496  -0.393  -4.230  0.00  0.00    +0.149 HD
BRANCH  10  14
ATOM     14  C   UNL     1       2.100  -0.564  -2.151  0.00  0.00    +0.030 C 
ATOM     15  C   UNL     1       2.201   0.606  -1.170  0.00  0.00    +0.031 C 
ATOM     16  C   UNL     1       2.642  -1.833  -1.490  0.00  0.00    +0.031 C 
BRANCH  14  17
ATOM     17  C   UNL     1       0.636  -0.778  -2.540  0.00  0.00    +0.031 C 
BRANCH  17  19
ATOM     18  C   UNL     1       0.691  -0.097  -4.944  0.00  0.00    +0.010 C 
ATOM     19  C   UNL     1       0.213   0.296  -3.544  0.00  0.00    -0.036 C 
ATOM     20  C   UNL     1       0.836   1.636  -3.150  0.00  0.00    +0.010 C 
ATOM     21  C   UNL     1      -1.312   0.423  -3.543  0.00  0.00    +0.010 C 
ENDBRANCH  17  19
ENDBRANCH  14  17
ENDBRANCH  10  14
ENDBRANCH   1  11
BRANCH   1  22
ATOM     22  N   UNL     1       6.323   0.858  -4.079  0.00  0.00    -0.277 N 
ATOM     23  C   UNL     1       7.005   0.082  -3.214  0.00  0.00    +0.255 C 
ATOM     24  O   UNL     1       6.480  -0.907  -2.740  0.00  0.00    -0.270 OA
BRANCH  23  25
ATOM     25  C   UNL     1       8.387   0.431  -2.843  0.00  0.00    +0.119 A 
ATOM     26  C   UNL     1       8.635   1.235  -1.721  0.00  0.00    +0.133 A 
ATOM     27  C   UNL     1       9.939   1.557  -1.381  0.00  0.00    +0.046 A 
ATOM     28  C   UNL     1      10.993   1.090  -2.143  0.00  0.00    +0.007 A 
ATOM     29  C   UNL     1      10.760   0.298  -3.252  0.00  0.00    +0.046 A 
ATOM     30  C   UNL     1       9.464  -0.041  -3.607  0.00  0.00    +0.133 A 
BRANCH  30  31
ATOM     31  O   UNL     1       9.238  -0.824  -4.692  0.00  0.00    -0.506 OA
ATOM     32  H   UNL     1       9.127  -0.330  -5.516  0.00  0.00    +0.292 HD
ENDBRANCH  30  31
BRANCH  26  33
ATOM     33  O   UNL     1       7.603   1.695  -0.971  0.00  0.00    -0.506 OA
ATOM     34  H   UNL     1       7.349   1.106  -0.247  0.00  0.00    +0.292 HD
ENDBRANCH  26  33
ENDBRANCH  23  25
BRANCH  22  35
ATOM     35  C   UNL     1       6.947   2.064  -4.631  0.00  0.00    +0.030 C 
ATOM     36  C   UNL     1       6.021   2.682  -5.680  0.00  0.00    +0.031 C 
ATOM     37  C   UNL     1       7.189   3.073  -3.506  0.00  0.00    +0.031 C 
ATOM     38  C   UNL     1       8.281   1.695  -5.281  0.00  0.00    +0.031 C 
ENDBRANCH  22  35
ENDBRANCH   1  22
TORSDOF 11
