REMARK  Name = ZINC64539164
REMARK  7 active torsions:
REMARK  status: ('A' for Active; 'I' for Inactive)
REMARK    1  A    between atoms: C_1  and  C_2
REMARK    2  A    between atoms: C_2  and  N_3
REMARK    3  A    between atoms: C_4  and  C_30
REMARK    4  A    between atoms: C_5  and  S_9
REMARK    5  A    between atoms: C_6  and  C_8
REMARK    6  A    between atoms: S_9  and  N_12
REMARK    7  A    between atoms: C_18  and  C_20
REMARK                            x       y       z     vdW  Elec       q    Type
REMARK                         _______ _______ _______ _____ _____    ______ ____
ROOT
ATOM      1  N   UNL     1      -5.571  -0.382   2.026  0.00  0.00    -0.173 NA
ATOM      2  C   UNL     1      -5.281   0.483   3.178  0.00  0.00    +0.128 C 
ATOM      3  C   UNL     1      -5.077   1.917   2.674  0.00  0.00    +0.125 C 
ATOM      4  N   UNL     1      -6.195   2.268   1.788  0.00  0.00    -0.297 N 
ATOM      5  C   UNL     1      -6.485   1.403   0.636  0.00  0.00    +0.125 C 
ATOM      6  C   UNL     1      -6.686  -0.029   1.137  0.00  0.00    +0.128 C 
ATOM      7  C   UNL     1      -6.943   3.364   2.028  0.00  0.00    +0.242 C 
ATOM      8  O   UNL     1      -6.695   4.070   2.982  0.00  0.00    -0.273 OA
ENDROOT
BRANCH   7   9
ATOM      9  C   UNL     1      -8.087   3.711   1.110  0.00  0.00    +0.190 C 
ATOM     10  C   UNL     1      -7.571   3.988  -0.284  0.00  0.00    +0.016 C 
ATOM     11  C   UNL     1      -7.912   5.267  -0.562  0.00  0.00    -0.004 A 
ATOM     12  C   UNL     1      -7.701   6.119  -1.738  0.00  0.00    +0.010 A 
ATOM     13  C   UNL     1      -8.168   7.388  -1.722  0.00  0.00    +0.001 A 
ATOM     14  C   UNL     1      -8.848   7.909  -0.612  0.00  0.00    +0.002 A 
ATOM     15  C   UNL     1      -9.080   7.187   0.505  0.00  0.00    +0.026 A 
ATOM     16  C   UNL     1      -8.633   5.840   0.597  0.00  0.00    +0.043 A 
ATOM     17  N   UNL     1      -8.734   4.950   1.556  0.00  0.00    -0.370 N 
ATOM     18  H   UNL     1      -9.165   5.087   2.414  0.00  0.00    +0.161 HD
ENDBRANCH   7   9
BRANCH   1  19
ATOM     19  S   UNL     1      -4.652  -1.728   1.731  0.00  0.00    +0.064 S 
ATOM     20  O   UNL     1      -5.458  -2.610   0.962  0.00  0.00    -0.153 OA
ATOM     21  O   UNL     1      -4.079  -2.109   2.975  0.00  0.00    -0.153 OA
BRANCH  19  24
ATOM     22  N   UNL     1      -1.372  -0.511   0.012  0.00  0.00    -0.267 N 
ATOM     23  C   UNL     1      -2.109  -0.787   1.109  0.00  0.00    +0.063 A 
ATOM     24  C   UNL     1      -3.317  -1.231   0.694  0.00  0.00    +0.148 A 
ATOM     25  C   UNL     1      -3.320  -1.227  -0.705  0.00  0.00    +0.087 A 
ATOM     26  N   UNL     1      -2.156  -0.790  -1.114  0.00  0.00    -0.174 NA
ATOM     27  C   UNL     1      -4.467  -1.647  -1.588  0.00  0.00    +0.069 C 
ATOM     28  C   UNL     1      -1.664  -0.628   2.541  0.00  0.00    +0.067 C 
BRANCH  22  30
ATOM     29  C   UNL     1      -0.019   1.526   0.010  0.00  0.00    +0.029 C 
ATOM     30  C   UNL     1       0.002  -0.004   0.002  0.00  0.00    +0.140 C 
ENDBRANCH  22  30
ENDBRANCH  19  24
ENDBRANCH   1  19
TORSDOF 4
