REMARK  Name = ZINC11840863
REMARK  13 active torsions:
REMARK  status: ('A' for Active; 'I' for Inactive)
REMARK    1  A    between atoms: C_1  and  N_2
REMARK    2  A    between atoms: C_5  and  C_7
REMARK    3  A    between atoms: N_9  and  C_10
REMARK    4  A    between atoms: N_9  and  C_11
REMARK    5  A    between atoms: C_11  and  C_13
REMARK    6  A    between atoms: C_11  and  C_20
REMARK    7  A    between atoms: C_13  and  C_14
REMARK    8  A    between atoms: C_25  and  C_26
REMARK    9  A    between atoms: C_25  and  N_72
REMARK   10  A    between atoms: C_27  and  C_28
REMARK   11  A    between atoms: C_31  and  O_36
REMARK   12  A    between atoms: C_32  and  O_34
REMARK   13  A    between atoms: O_34  and  C_35
REMARK                            x       y       z     vdW  Elec       q    Type
REMARK                         _______ _______ _______ _____ _____    ______ ____
ROOT
ATOM      1  C   UNL     1      -1.421   3.069  -0.469  0.00  0.00    +0.006 C 
ATOM      2  C   UNL     1      -2.796   3.701  -0.234  0.00  0.00    -0.013 C 
ATOM      3  C   UNL     1      -2.980   4.881  -1.190  0.00  0.00    -0.078 C 
ATOM      4  C   UNL     1      -1.539   3.843  -2.840  0.00  0.00    -0.078 C 
ATOM      5  C   UNL     1      -1.312   2.632  -1.932  0.00  0.00    -0.013 C 
ATOM      6  N   UNL     1      -2.888   4.390  -2.582  0.00  0.00    +0.382 N 
ATOM      7  H   UNL     1      -3.581   3.644  -2.718  0.00  0.00    -0.081 HD
ENDROOT
BRANCH   1   8
ATOM      8  C   UNL     1      -1.256   1.851   0.442  0.00  0.00    +0.083 C 
BRANCH   8  11
ATOM      9  C   UNL     1       0.143  -0.034  -0.211  0.00  0.00    +0.267 C 
ATOM     10  O   UNL     1      -0.861  -0.715  -0.298  0.00  0.00    -0.268 OA
ATOM     11  N   UNL     1       0.057   1.243   0.211  0.00  0.00    -0.296 N 
ATOM     12  C   UNL     1       1.276   2.025   0.433  0.00  0.00    +0.132 C 
BRANCH   9  17
ATOM     13  C   UNL     1       4.954  -0.390  -1.122  0.00  0.00    +0.172 C 
ATOM     14  N   UNL     1       3.547  -0.767  -0.964  0.00  0.00    -0.274 N 
ATOM     15  C   UNL     1       3.053  -2.009  -1.157  0.00  0.00    +0.109 A 
ATOM     16  C   UNL     1       1.724  -1.954  -0.909  0.00  0.00    +0.054 A 
ATOM     17  C   UNL     1       1.457  -0.608  -0.567  0.00  0.00    +0.147 A 
ATOM     18  N   UNL     1       2.606   0.037  -0.620  0.00  0.00    -0.167 NA
ENDBRANCH   9  17
ENDBRANCH   8  11
BRANCH   8  19
ATOM     19  C   UNL     1      -1.364   2.289   1.904  0.00  0.00    +0.058 C 
BRANCH  19  20
ATOM     20  C   UNL     1      -1.324   1.075   2.797  0.00  0.00    -0.046 A 
ATOM     21  C   UNL     1      -2.499   0.436   3.147  0.00  0.00    +0.004 A 
ATOM     22  C   UNL     1      -2.462  -0.680   3.962  0.00  0.00    +0.000 A 
ATOM     23  C   UNL     1      -1.251  -1.151   4.434  0.00  0.00    +0.000 A 
ATOM     24  C   UNL     1      -0.077  -0.509   4.088  0.00  0.00    +0.000 A 
ATOM     25  C   UNL     1      -0.114   0.604   3.269  0.00  0.00    +0.004 A 
ENDBRANCH  19  20
ENDBRANCH   8  19
ENDBRANCH   1   8
BRANCH   6  26
ATOM     26  C   UNL     1      -3.176   5.490  -3.525  0.00  0.00    -0.051 C 
BRANCH  26  27
ATOM     27  C   UNL     1      -4.424   6.208  -3.080  0.00  0.00    -0.045 C 
ATOM     28  C   UNL     1      -4.403   7.521  -2.897  0.00  0.00    +0.002 C 
BRANCH  28  29
ATOM     29  C   UNL     1      -5.627   8.226  -2.461  0.00  0.00    -0.022 A 
ATOM     30  C   UNL     1      -6.805   7.510  -2.242  0.00  0.00    +0.012 A 
ATOM     31  C   UNL     1      -7.947   8.169  -1.835  0.00  0.00    +0.050 A 
ATOM     32  C   UNL     1      -7.927   9.543  -1.642  0.00  0.00    +0.158 A 
ATOM     33  C   UNL     1      -6.755  10.262  -1.860  0.00  0.00    +0.162 A 
ATOM     34  C   UNL     1      -5.606   9.607  -2.263  0.00  0.00    +0.057 A 
BRANCH  33  35
ATOM     35  O   UNL     1      -6.738  11.609  -1.670  0.00  0.00    -0.491 OA
ATOM     36  C   UNL     1      -5.502  12.283  -1.912  0.00  0.00    +0.277 C 
ENDBRANCH  33  35
BRANCH  32  37
ATOM     37  O   UNL     1      -9.054  10.187  -1.240  0.00  0.00    -0.503 OA
ATOM     38  H   UNL     1      -9.149  10.252  -0.280  0.00  0.00    +0.292 HD
ENDBRANCH  32  37
ENDBRANCH  28  29
ENDBRANCH  26  27
ENDBRANCH   6  26
TORSDOF 10
