REMARK  Name = ZINC21259876
REMARK  3 active torsions:
REMARK  status: ('A' for Active; 'I' for Inactive)
REMARK    1  A    between atoms: C_8  and  C_24
REMARK    2  A    between atoms: C_14  and  C_19
REMARK    3  A    between atoms: C_29  and  O_30
REMARK                            x       y       z     vdW  Elec       q    Type
REMARK                         _______ _______ _______ _____ _____    ______ ____
ROOT
ATOM      1  C   UNL     1       0.089  -2.276   2.853  0.00  0.00    +0.002 A 
ATOM      2  C   UNL     1       1.431  -2.180   3.177  0.00  0.00    +0.002 A 
ATOM      3  C   UNL     1       2.278  -1.394   2.415  0.00  0.00    +0.025 A 
ATOM      4  C   UNL     1       1.770  -0.706   1.327  0.00  0.00    +0.052 A 
ATOM      5  C   UNL     1       0.418  -0.769   1.026  0.00  0.00    +0.049 A 
ATOM      6  C   UNL     1      -0.424  -1.570   1.779  0.00  0.00    +0.025 A 
ATOM      7  N   UNL     1      -0.061  -0.003  -0.036  0.00  0.00    -0.331 N 
ATOM      8  C   UNL     1      -0.018   1.443   0.010  0.00  0.00    +0.139 C 
ATOM      9  C   UNL     1       1.373   2.029   0.039  0.00  0.00    +0.037 C 
ATOM     10  C   UNL     1       2.513   1.347   0.245  0.00  0.00    +0.017 C 
ATOM     11  N   UNL     1       2.583   0.007   0.454  0.00  0.00    -0.316 N 
ATOM     12  C   UNL     1       3.854   2.062   0.237  0.00  0.00    +0.060 C 
ATOM     13  C   UNL     1       3.688   3.488   0.758  0.00  0.00    +0.039 C 
ATOM     14  C   UNL     1       2.691   4.207  -0.158  0.00  0.00    +0.088 C 
ATOM     15  C   UNL     1       1.410   3.428  -0.173  0.00  0.00    +0.163 C 
ATOM     16  O   UNL     1       0.367   4.018  -0.374  0.00  0.00    -0.292 OA
ATOM     17  H   UNL     1      -0.476  -0.513  -0.918  0.00  0.00    +0.147 HD
ATOM     18  H   UNL     1       3.354  -0.516  -0.131  0.00  0.00    +0.152 HD
ENDROOT
BRANCH   8  19
ATOM     19  C   UNL     1      -0.755   1.904   1.241  0.00  0.00    +0.020 A 
ATOM     20  C   UNL     1      -0.051   2.323   2.353  0.00  0.00    +0.029 A 
ATOM     21  C   UNL     1      -0.728   2.746   3.483  0.00  0.00    +0.042 A 
ATOM     22  C   UNL     1      -2.111   2.749   3.502  0.00  0.00    +0.023 A 
ATOM     23  C   UNL     1      -2.819   2.330   2.392  0.00  0.00    +0.047 A 
ATOM     24  C   UNL     1      -2.142   1.912   1.256  0.00  0.00    +0.122 A 
ATOM     25 CL   UNL     1       0.160   3.273   4.878  0.00  0.00    -0.084 Cl
BRANCH  24  26
ATOM     26  O   UNL     1      -2.837   1.505   0.161  0.00  0.00    -0.506 OA
ATOM     27  H   UNL     1      -3.937   1.512   0.173  0.00  0.00    +0.292 HD
ENDBRANCH  24  26
ENDBRANCH   8  19
BRANCH  13  28
ATOM     28  C   UNL     1       5.015   4.201   0.728  0.00  0.00    -0.006 A 
ATOM     29  C   UNL     1       5.697   4.780   1.747  0.00  0.00    +0.011 A 
ATOM     30  C   UNL     1       6.913   5.381   1.484  0.00  0.00    +0.008 A 
ATOM     31  C   UNL     1       7.384   5.383   0.213  0.00  0.00    +0.045 A 
ATOM     32  S   UNL     1       6.095   4.510  -0.660  0.00  0.00    -0.101 S 
ENDBRANCH  13  28
TORSDOF 3
