REMARK  Name = ZINC35779153
REMARK  17 active torsions:
REMARK  status: ('A' for Active; 'I' for Inactive)
REMARK    1  A    between atoms: C_1  and  C_2
REMARK    2  A    between atoms: C_5  and  O_9
REMARK    3  A    between atoms: C_6  and  C_8
REMARK    4  A    between atoms: O_9  and  C_10
REMARK    5  A    between atoms: C_10  and  C_11
REMARK    6  A    between atoms: C_21  and  C_23
REMARK    7  A    between atoms: C_23  and  N_24
REMARK    8  A    between atoms: N_24  and  C_25
REMARK    9  A    between atoms: N_24  and  C_29
REMARK   10  A    between atoms: C_25  and  C_26
REMARK   11  A    between atoms: C_26  and  O_27
REMARK   12  A    between atoms: O_27  and  C_28
REMARK   13  A    between atoms: C_29  and  C_30
REMARK   14  A    between atoms: C_30  and  C_32
REMARK   15  A    between atoms: C_30  and  O_36
REMARK   16  A    between atoms: C_32  and  C_33
REMARK   17  A    between atoms: C_33  and  C_34
REMARK                            x       y       z     vdW  Elec       q    Type
REMARK                         _______ _______ _______ _____ _____    ______ ____
ROOT
ATOM      1  C   UNL     1      -0.193  -7.652  -2.364  0.00  0.00    +0.144 C 
ATOM      2  C   UNL     1      -1.380  -8.219  -1.587  0.00  0.00    -0.014 A 
ATOM      3  C   UNL     1      -2.560  -8.641  -2.197  0.00  0.00    +0.013 A 
ATOM      4  C   UNL     1      -3.573  -9.130  -1.446  0.00  0.00    +0.046 A 
ATOM      5  S   UNL     1      -2.896  -9.016   0.204  0.00  0.00    -0.101 S 
ATOM      6  C   UNL     1      -1.319  -8.332  -0.233  0.00  0.00    -0.004 A 
ATOM      7  C   UNL     1      -0.184  -7.966   0.669  0.00  0.00    +0.061 C 
ATOM      8  C   UNL     1       0.786  -7.058  -0.103  0.00  0.00    +0.113 C 
ATOM      9  N   UNL     1       0.961  -7.612  -1.455  0.00  0.00    -0.292 N 
ATOM     10  C   UNL     1       2.162  -8.076  -1.855  0.00  0.00    +0.200 C 
ATOM     11  O   UNL     1       2.295  -8.531  -2.971  0.00  0.00    -0.278 OA
ENDROOT
BRANCH   1  12
ATOM     12  C   UNL     1      -0.519  -6.239  -2.850  0.00  0.00    +0.256 C 
BRANCH  12  13
ATOM     13  O   UNL     1      -0.924  -5.435  -1.741  0.00  0.00    -0.490 OA
BRANCH  13  18
ATOM     14  C   UNL     1      -2.284  -0.078  -2.826  0.00  0.00    +0.044 C 
ATOM     15  C   UNL     1      -1.919  -1.511  -2.536  0.00  0.00    -0.050 A 
ATOM     16  C   UNL     1      -1.518  -2.343  -3.565  0.00  0.00    +0.007 A 
ATOM     17  C   UNL     1      -1.185  -3.657  -3.301  0.00  0.00    +0.046 A 
ATOM     18  C   UNL     1      -1.252  -4.142  -2.003  0.00  0.00    +0.124 A 
ATOM     19  C   UNL     1      -1.654  -3.305  -0.972  0.00  0.00    -0.009 A 
ATOM     20  C   UNL     1      -1.982  -1.990  -1.240  0.00  0.00    +0.010 A 
ATOM     21  C   UNL     1      -1.727  -3.828   0.439  0.00  0.00    +0.047 C 
ENDBRANCH  13  18
ENDBRANCH  12  13
ENDBRANCH   1  12
BRANCH  10  22
ATOM     22  C   UNL     1       3.338  -8.029  -0.914  0.00  0.00    +0.019 C 
BRANCH  22  23
ATOM     23  N   UNL     1       4.521  -8.589  -1.581  0.00  0.00    +0.389 N 
ATOM     24  H   UNL     1       4.300  -9.505  -1.945  0.00  0.00    -0.081 HD
BRANCH  23  25
ATOM     25  C   UNL     1       4.924  -7.708  -2.685  0.00  0.00    -0.050 C 
BRANCH  25  26
ATOM     26  C   UNL     1       6.090  -8.344  -3.446  0.00  0.00    +0.141 C 
BRANCH  26  27
ATOM     27  O   UNL     1       5.655  -9.563  -4.052  0.00  0.00    -0.385 OA
ATOM     28  C   UNL     1       6.673 -10.240  -4.791  0.00  0.00    +0.193 C 
ENDBRANCH  26  27
ENDBRANCH  25  26
ENDBRANCH  23  25
BRANCH  23  29
ATOM     29  C   UNL     1       5.622  -8.699  -0.615  0.00  0.00    -0.046 C 
BRANCH  29  30
ATOM     30  C   UNL     1       5.283  -9.769   0.425  0.00  0.00    +0.098 C 
BRANCH  30  31
ATOM     31  O   UNL     1       4.233  -9.295   1.270  0.00  0.00    -0.394 OA
ATOM     32  H   UNL     1       4.451  -8.487   1.753  0.00  0.00    +0.210 HD
ENDBRANCH  30  31
BRANCH  30  33
ATOM     33  C   UNL     1       6.523 -10.069   1.271  0.00  0.00    +0.033 C 
BRANCH  33  34
ATOM     34  C   UNL     1       6.220 -11.224   2.227  0.00  0.00    +0.029 C 
BRANCH  34  35
ATOM     35  C   UNL     1       7.441 -11.519   3.060  0.00  0.00    -0.034 C 
ATOM     36  C   UNL     1       7.358 -11.517   4.367  0.00  0.00    +0.004 C 
ENDBRANCH  34  35
ENDBRANCH  33  34
ENDBRANCH  30  33
ENDBRANCH  29  30
ENDBRANCH  23  29
ENDBRANCH  22  23
ENDBRANCH  10  22
TORSDOF 14
