REMARK  Name = ZINC60318257
REMARK  4 active torsions:
REMARK  status: ('A' for Active; 'I' for Inactive)
REMARK    1  A    between atoms: C_6  and  S_7
REMARK    2  A    between atoms: S_7  and  N_10
REMARK    3  A    between atoms: N_13  and  S_14
REMARK    4  A    between atoms: S_14  and  C_17
REMARK                            x       y       z     vdW  Elec       q    Type
REMARK                         _______ _______ _______ _____ _____    ______ ____
ROOT
ATOM      1  C   UNL     1      -0.017   1.378   0.010  0.00  0.00    +0.030 A 
ATOM      2  C   UNL     1       1.165   2.089   0.002  0.00  0.00    +0.027 A 
ATOM      3  C   UNL     1       2.390   1.418  -0.013  0.00  0.00    +0.055 A 
ATOM      4  C   UNL     1       2.397   0.032  -0.021  0.00  0.00    -0.021 A 
ATOM      5  C   UNL     1       1.211  -0.675  -0.014  0.00  0.00    +0.034 A 
ATOM      6  C   UNL     1       0.002  -0.004   0.002  0.00  0.00    +0.105 A 
ATOM      7  C   UNL     1       3.834  -0.441  -0.036  0.00  0.00    +0.058 C 
ATOM      8  C   UNL     1       4.665   0.852  -0.037  0.00  0.00    +0.136 C 
ATOM      9  N   UNL     1       3.684   1.940  -0.022  0.00  0.00    -0.202 N 
ENDROOT
BRANCH   6  10
ATOM     10  S   UNL     1      -1.510  -0.908   0.012  0.00  0.00    +0.056 S 
ATOM     11  O   UNL     1      -1.215  -2.188   0.553  0.00  0.00    -0.153 OA
ATOM     12  O   UNL     1      -2.493  -0.050   0.576  0.00  0.00    -0.153 OA
BRANCH  10  13
ATOM     13  N   UNL     1      -1.946  -1.151  -1.568  0.00  0.00    -0.204 NA
ATOM     14  H   UNL     1      -1.387  -0.809  -2.283  0.00  0.00    +0.144 HD
ATOM     15  H   UNL     1      -2.760  -1.635  -1.777  0.00  0.00    +0.144 HD
ENDBRANCH  10  13
ENDBRANCH   6  10
BRANCH   9  16
ATOM     16  S   UNL     1       4.056   3.554  -0.017  0.00  0.00    +0.077 S 
ATOM     17  O   UNL     1       5.356   3.672  -0.580  0.00  0.00    -0.150 OA
ATOM     18  O   UNL     1       2.929   4.232  -0.553  0.00  0.00    -0.150 OA
BRANCH  16  19
ATOM     19  C   UNL     1       4.190   4.052   1.668  0.00  0.00    +0.145 A 
ATOM     20  C   UNL     1       5.405   4.481   2.168  0.00  0.00    +0.047 A 
ATOM     21  C   UNL     1       5.510   4.872   3.490  0.00  0.00    +0.020 A 
ATOM     22  C   UNL     1       4.398   4.835   4.313  0.00  0.00    +0.018 A 
ATOM     23  C   UNL     1       3.183   4.406   3.815  0.00  0.00    +0.041 A 
ATOM     24  C   UNL     1       3.076   4.020   2.490  0.00  0.00    +0.150 A 
ATOM     25  F   UNL     1       1.887   3.606   2.000  0.00  0.00    -0.203 F 
ATOM     26 BR   UNL     1       7.173   5.458   4.173  0.00  0.00    -0.050 Br
ENDBRANCH  16  19
ENDBRANCH   9  16
TORSDOF 4
