REMARK  Name = ZINC63162941
REMARK  7 active torsions:
REMARK  status: ('A' for Active; 'I' for Inactive)
REMARK    1  A    between atoms: C_1  and  C_2
REMARK    2  A    between atoms: C_5  and  C_8
REMARK    3  A    between atoms: C_12  and  S_18
REMARK    4  A    between atoms: N_14  and  C_15
REMARK    5  A    between atoms: C_15  and  C_16
REMARK    6  A    between atoms: S_18  and  C_19
REMARK    7  A    between atoms: C_19  and  C_20
REMARK                            x       y       z     vdW  Elec       q    Type
REMARK                         _______ _______ _______ _____ _____    ______ ____
ROOT
ATOM      1  C   UNL     1      -0.013  -4.067   0.055  0.00  0.00    +0.172 C 
ATOM      2  N   UNL     1      -0.810  -4.580  -1.089  0.00  0.00    -0.233 NA
ATOM      3  N   UNL     1      -0.995  -6.004  -0.799  0.00  0.00    -0.229 NA
ATOM      4  C   UNL     1      -0.850  -6.165   0.662  0.00  0.00    +0.200 C 
ATOM      5  N   UNL     1      -0.569  -4.817   1.213  0.00  0.00    -0.254 NA
ATOM      6  H   UNL     1      -1.698  -4.105  -1.153  0.00  0.00    +0.143 HD
ATOM      7  H   UNL     1      -1.901  -6.322  -1.109  0.00  0.00    +0.143 HD
ENDROOT
BRANCH   1  12
ATOM      8  C   UNL     1      -0.816   1.617   0.722  0.00  0.00    +0.044 C 
ATOM      9  C   UNL     1      -0.606   0.135   0.548  0.00  0.00    -0.050 A 
ATOM     10  C   UNL     1       0.663  -0.362   0.319  0.00  0.00    +0.004 A 
ATOM     11  C   UNL     1       0.855  -1.721   0.160  0.00  0.00    +0.007 A 
ATOM     12  C   UNL     1      -0.222  -2.584   0.230  0.00  0.00    -0.015 A 
ATOM     13  C   UNL     1      -1.492  -2.088   0.460  0.00  0.00    +0.007 A 
ATOM     14  C   UNL     1      -1.683  -0.729   0.624  0.00  0.00    +0.004 A 
ENDBRANCH   1  12
BRANCH   5  15
ATOM     15  C   UNL     1       0.403  -4.885   2.312  0.00  0.00    +0.115 C 
BRANCH  15  16
ATOM     16  C   UNL     1      -0.296  -5.320   3.574  0.00  0.00    -0.019 C 
ATOM     17  C   UNL     1       0.139  -6.363   4.237  0.00  0.00    +0.005 C 
ENDBRANCH  15  16
ENDBRANCH   5  15
BRANCH   4  18
ATOM     18  S   UNL     1      -2.386  -6.822   1.371  0.00  0.00    -0.121 S 
BRANCH  18  19
ATOM     19  C   UNL     1      -3.641  -5.596   0.910  0.00  0.00    +0.118 C 
BRANCH  19  20
ATOM     20  C   UNL     1      -5.003  -6.032   1.452  0.00  0.00    +0.184 C 
ATOM     21  N   UNL     1      -4.932  -6.214   2.908  0.00  0.00    -0.363 N 
ATOM     22  C   UNL     1      -5.223  -7.457   3.161  0.00  0.00    +0.060 A 
ATOM     23  C   UNL     1      -5.315  -8.227   4.410  0.00  0.00    +0.027 A 
ATOM     24  C   UNL     1      -5.646  -9.533   4.362  0.00  0.00    +0.002 A 
ATOM     25  C   UNL     1      -5.910 -10.205   3.156  0.00  0.00    +0.002 A 
ATOM     26  C   UNL     1      -5.853  -9.594   1.956  0.00  0.00    +0.027 A 
ATOM     27  C   UNL     1      -5.503  -8.168   1.884  0.00  0.00    +0.060 A 
ATOM     28  N   UNL     1      -5.375  -7.337   0.890  0.00  0.00    -0.363 N 
ATOM     29  H   UNL     1      -4.709  -5.532   3.561  0.00  0.00    +0.162 HD
ATOM     30  H   UNL     1      -5.502  -7.542  -0.049  0.00  0.00    +0.162 HD
ENDBRANCH  19  20
ENDBRANCH  18  19
ENDBRANCH   4  18
TORSDOF 6
