REMARK  Name = ZINC33959521
REMARK  12 active torsions:
REMARK  status: ('A' for Active; 'I' for Inactive)
REMARK    1  A    between atoms: C_1  and  O_2
REMARK    2  A    between atoms: O_2  and  C_3
REMARK    3  A    between atoms: C_6  and  C_9
REMARK    4  A    between atoms: N_10  and  N_11
REMARK    5  A    between atoms: C_12  and  C_14
REMARK    6  A    between atoms: C_14  and  C_16
REMARK    7  A    between atoms: C_14  and  N_29
REMARK    8  A    between atoms: C_16  and  C_17
REMARK    9  A    between atoms: C_17  and  C_18
REMARK   10  A    between atoms: C_18  and  C_19
REMARK   11  A    between atoms: C_19  and  N_20
REMARK   12  A    between atoms: C_21  and  C_23
REMARK                            x       y       z     vdW  Elec       q    Type
REMARK                         _______ _______ _______ _____ _____    ______ ____
ROOT
ATOM      1  C   UNL     1       3.885  -6.438  -6.766  0.00  0.00    +0.021 C 
ENDROOT
BRANCH   1   2
ATOM      2  N   UNL     1       3.280  -7.775  -6.698  0.00  0.00    +0.387 N 
ATOM      3  C   UNL     1       3.945  -8.660  -7.662  0.00  0.00    -0.078 C 
ATOM      4  C   UNL     1       3.374 -10.074  -7.539  0.00  0.00    -0.019 C 
ATOM      5  C   UNL     1       1.870 -10.039  -7.828  0.00  0.00    -0.004 C 
ATOM      6  C   UNL     1       1.198  -9.057  -6.864  0.00  0.00    -0.019 C 
ATOM      7  C   UNL     1       1.850  -7.680  -7.012  0.00  0.00    -0.078 C 
ATOM      8  H   UNL     1       3.395  -8.148  -5.768  0.00  0.00    -0.081 HD
ENDBRANCH   1   2
BRANCH   1  10
ATOM      9  N   UNL     1       3.350  -4.214  -5.824  0.00  0.00    -0.208 N 
ATOM     10  C   UNL     1       3.270  -5.554  -5.711  0.00  0.00    +0.219 C 
ATOM     11  O   UNL     1       2.702  -6.050  -4.760  0.00  0.00    -0.276 OA
ATOM     12  H   UNL     1       3.805  -3.817  -6.584  0.00  0.00    +0.177 HD
BRANCH   9  14
ATOM     13  C   UNL     1       2.857  -2.102  -4.952  0.00  0.00    +0.138 C 
ATOM     14  N   UNL     1       2.779  -3.393  -4.843  0.00  0.00    -0.188 NA
BRANCH  13  18
ATOM     15  C   UNL     1       1.123   0.387  -1.981  0.00  0.00    +0.120 A 
ATOM     16  C   UNL     1       1.773   0.957  -3.068  0.00  0.00    +0.046 A 
ATOM     17  C   UNL     1       2.337   0.153  -4.035  0.00  0.00    +0.013 A 
ATOM     18  C   UNL     1       2.255  -1.238  -3.920  0.00  0.00    -0.005 A 
ATOM     19  C   UNL     1       1.600  -1.806  -2.825  0.00  0.00    +0.013 A 
ATOM     20  C   UNL     1       1.043  -0.994  -1.860  0.00  0.00    +0.046 A 
BRANCH  15  22
ATOM     21  C   UNL     1       0.687   2.595  -1.217  0.00  0.00    +0.277 C 
ATOM     22  O   UNL     1       0.569   1.183  -1.030  0.00  0.00    -0.495 OA
ENDBRANCH  15  22
ENDBRANCH  13  18
ENDBRANCH   9  14
ENDBRANCH   1  10
BRANCH   1  23
ATOM     23  C   UNL     1       5.392  -6.547  -6.524  0.00  0.00    -0.006 C 
BRANCH  23  24
ATOM     24  C   UNL     1       5.645  -7.222  -5.175  0.00  0.00    +0.000 C 
BRANCH  24  25
ATOM     25  C   UNL     1       7.147  -7.234  -4.884  0.00  0.00    +0.019 C 
BRANCH  25  26
ATOM     26  C   UNL     1       7.400  -7.910  -3.535  0.00  0.00    +0.104 C 
BRANCH  26  27
ATOM     27  N   UNL     1       8.838  -7.921  -3.257  0.00  0.00    -0.311 N 
ATOM     28  C   UNL     1       9.299  -8.470  -2.115  0.00  0.00    +0.244 C 
ATOM     29  O   UNL     1       8.522  -8.955  -1.317  0.00  0.00    -0.270 OA
ATOM     30  H   UNL     1       9.459  -7.534  -3.894  0.00  0.00    +0.149 HD
BRANCH  28  31
ATOM     31  C   UNL     1      10.751  -8.482  -1.835  0.00  0.00    +0.037 A 
ATOM     32  C   UNL     1      11.646  -7.920  -2.747  0.00  0.00    +0.013 A 
ATOM     33  C   UNL     1      12.999  -7.934  -2.478  0.00  0.00    +0.001 A 
ATOM     34  C   UNL     1      13.470  -8.503  -1.308  0.00  0.00    +0.000 A 
ATOM     35  C   UNL     1      12.588  -9.062  -0.400  0.00  0.00    +0.001 A 
ATOM     36  C   UNL     1      11.232  -9.049  -0.654  0.00  0.00    +0.013 A 
ENDBRANCH  28  31
ENDBRANCH  26  27
ENDBRANCH  25  26
ENDBRANCH  24  25
ENDBRANCH  23  24
ENDBRANCH   1  23
TORSDOF 11
