REMARK  Name = ZINC11451891
REMARK  6 active torsions:
REMARK  status: ('A' for Active; 'I' for Inactive)
REMARK    1  A    between atoms: C_1  and  C_2
REMARK    2  A    between atoms: C_3  and  C_14
REMARK    3  A    between atoms: C_5  and  C_7
REMARK    4  A    between atoms: C_19  and  N_22
REMARK    5  A    between atoms: N_22  and  S_23
REMARK    6  A    between atoms: S_23  and  C_26
REMARK                            x       y       z     vdW  Elec       q    Type
REMARK                         _______ _______ _______ _____ _____    ______ ____
ROOT
ATOM      1  C   UNL     1      -3.529   6.133  -3.340  0.00  0.00    +0.255 C 
ATOM      2  O   UNL     1      -4.109   6.898  -2.592  0.00  0.00    -0.269 OA
ATOM      3  N   UNL     1      -3.068   4.955  -2.874  0.00  0.00    -0.297 N 
ATOM      4  C   UNL     1      -2.479   3.967  -3.788  0.00  0.00    +0.109 C 
ATOM      5  C   UNL     1      -3.196   2.627  -3.594  0.00  0.00    +0.039 C 
ATOM      6  C   UNL     1      -3.138   2.231  -2.118  0.00  0.00    +0.080 C 
ATOM      7  C   UNL     1      -3.855   3.288  -1.275  0.00  0.00    +0.039 C 
ATOM      8  C   UNL     1      -3.145   4.635  -1.442  0.00  0.00    +0.109 C 
ENDROOT
BRANCH   1  11
ATOM      9  C   UNL     1      -5.462   7.790  -5.123  0.00  0.00    +0.067 C 
ATOM     10  C   UNL     1      -4.149   7.224  -5.599  0.00  0.00    +0.058 A 
ATOM     11  C   UNL     1      -3.332   6.491  -4.747  0.00  0.00    +0.097 A 
ATOM     12  S   UNL     1      -1.971   6.114  -5.842  0.00  0.00    -0.062 S 
ATOM     13  C   UNL     1      -2.588   6.913  -7.255  0.00  0.00    +0.109 A 
ATOM     14  N   UNL     1      -3.742   7.407  -6.826  0.00  0.00    -0.243 NA
BRANCH  13  15
ATOM     15  C   UNL     1      -1.978   7.022  -8.596  0.00  0.00    +0.007 A 
ATOM     16  C   UNL     1      -0.739   6.432  -8.853  0.00  0.00    +0.012 A 
ATOM     17  C   UNL     1      -0.177   6.533 -10.108  0.00  0.00    +0.020 A 
ATOM     18  C   UNL     1      -0.834   7.227 -11.110  0.00  0.00    +0.041 A 
ATOM     19  C   UNL     1      -2.060   7.820 -10.860  0.00  0.00    +0.020 A 
ATOM     20  C   UNL     1      -2.635   7.721  -9.611  0.00  0.00    +0.012 A 
ATOM     21 CL   UNL     1      -0.117   7.356 -12.686  0.00  0.00    -0.084 Cl
ENDBRANCH  13  15
ENDBRANCH   1  11
BRANCH   6  22
ATOM     22  N   UNL     1      -3.795   0.934  -1.934  0.00  0.00    -0.186 NA
ATOM     23  H   UNL     1      -4.569   0.702  -2.471  0.00  0.00    +0.148 HD
BRANCH  22  24
ATOM     24  S   UNL     1      -3.215  -0.136  -0.811  0.00  0.00    +0.065 S 
ATOM     25  O   UNL     1      -4.069  -1.272  -0.854  0.00  0.00    -0.153 OA
ATOM     26  O   UNL     1      -1.813  -0.229  -1.024  0.00  0.00    -0.153 OA
BRANCH  24  27
ATOM     27  C   UNL     1      -3.437   0.601   0.774  0.00  0.00    +0.142 A 
ATOM     28  C   UNL     1      -4.497   0.518   1.613  0.00  0.00    +0.036 A 
ATOM     29  C   UNL     1      -4.450   1.188   2.821  0.00  0.00    +0.010 A 
ATOM     30  C   UNL     1      -3.345   1.908   3.131  0.00  0.00    +0.047 A 
ATOM     31  S   UNL     1      -2.319   1.646   1.694  0.00  0.00    -0.077 S 
ENDBRANCH  24  27
ENDBRANCH  22  24
ENDBRANCH   6  22
TORSDOF 5
