REMARK  Name = ZINC11965640
REMARK  8 active torsions:
REMARK  status: ('A' for Active; 'I' for Inactive)
REMARK    1  A    between atoms: C_1  and  N_2
REMARK    2  A    between atoms: C_4  and  C_7
REMARK    3  A    between atoms: C_7  and  C_8
REMARK    4  A    between atoms: C_8  and  N_61
REMARK    5  A    between atoms: C_9  and  N_61
REMARK    6  A    between atoms: C_10  and  N_61
REMARK    7  A    between atoms: N_21  and  C_24
REMARK    8  A    between atoms: C_24  and  C_25
REMARK                            x       y       z     vdW  Elec       q    Type
REMARK                         _______ _______ _______ _____ _____    ______ ____
ROOT
ATOM      1  C   UNL     1      -6.732   3.388   6.222  0.00  0.00    -0.064 C 
ATOM      2  C   UNL     1      -7.180   3.549   4.767  0.00  0.00    -0.010 C 
ATOM      3  C   UNL     1      -6.151   2.912   3.832  0.00  0.00    +0.035 C 
ATOM      4  C   UNL     1      -5.894   1.478   4.287  0.00  0.00    -0.023 A 
ATOM      5  C   UNL     1      -6.224   1.081   5.534  0.00  0.00    -0.006 A 
ATOM      6  S   UNL     1      -5.753  -0.626   5.612  0.00  0.00    -0.073 S 
ATOM      7  C   UNL     1      -5.111  -0.800   3.966  0.00  0.00    +0.116 A 
ATOM      8  C   UNL     1      -5.286   0.477   3.411  0.00  0.00    +0.076 A 
ATOM      9  C   UNL     1      -4.845   0.631   2.056  0.00  0.00    +0.263 A 
ATOM     10  O   UNL     1      -4.954   1.702   1.486  0.00  0.00    -0.267 OA
ATOM     11  N   UNL     1      -4.307  -0.429   1.424  0.00  0.00    -0.294 N 
ATOM     12  C   UNL     1      -4.182  -1.632   2.041  0.00  0.00    +0.203 A 
ATOM     13  N   UNL     1      -4.570  -1.801   3.277  0.00  0.00    -0.230 NA
ATOM     14  C   UNL     1      -6.853   1.908   6.614  0.00  0.00    +0.027 C 
ENDROOT
BRANCH   1  16
ATOM     15  C   UNL     1      -7.571   5.611   6.687  0.00  0.00    -0.096 C 
ATOM     16  N   UNL     1      -7.617   4.190   7.092  0.00  0.00    +0.380 N 
ATOM     17  H   UNL     1      -8.580   3.847   6.995  0.00  0.00    -0.082 HD
BRANCH  16  18
ATOM     18  C   UNL     1      -7.199   4.053   8.503  0.00  0.00    -0.074 C 
BRANCH  18  19
ATOM     19  C   UNL     1      -8.255   4.705   9.397  0.00  0.00    +0.020 C 
BRANCH  19  23
ATOM     20  C   UNL     1      -6.226   5.551  13.901  0.00  0.00    +0.172 C 
ATOM     21  N   UNL     1      -6.967   4.929  12.801  0.00  0.00    -0.274 N 
ATOM     22  C   UNL     1      -7.099   5.424  11.553  0.00  0.00    +0.111 A 
ATOM     23  C   UNL     1      -7.853   4.554  10.842  0.00  0.00    -0.012 A 
ATOM     24  C   UNL     1      -8.199   3.494  11.686  0.00  0.00    +0.138 A 
ATOM     25  N   UNL     1      -7.663   3.714  12.859  0.00  0.00    -0.180 NA
ENDBRANCH  19  23
ENDBRANCH  18  19
ENDBRANCH  16  18
ENDBRANCH   1  16
BRANCH  11  26
ATOM     26  C   UNL     1      -3.852  -0.283   0.039  0.00  0.00    +0.168 C 
BRANCH  26  27
ATOM     27  C   UNL     1      -2.407   0.145   0.027  0.00  0.00    +0.011 A 
ATOM     28  C   UNL     1      -1.313  -0.629   0.012  0.00  0.00    +0.021 A 
ATOM     29  C   UNL     1       0.002  -0.004   0.002  0.00  0.00    -0.010 A 
ATOM     30  C   UNL     1       1.276  -0.621  -0.013  0.00  0.00    +0.009 A 
ATOM     31  C   UNL     1       2.410   0.128  -0.020  0.00  0.00    +0.001 A 
ATOM     32  C   UNL     1       2.364   1.516  -0.012  0.00  0.00    +0.001 A 
ATOM     33  C   UNL     1       1.141   2.156   0.003  0.00  0.00    +0.015 A 
ATOM     34  C   UNL     1      -0.017   1.407   0.010  0.00  0.00    +0.020 A 
ATOM     35  S   UNL     1      -1.747   1.801   0.036  0.00  0.00    -0.091 S 
ENDBRANCH  26  27
ENDBRANCH  11  26
TORSDOF 6
