REMARK  Name = ZINC00893748
REMARK  6 active torsions:
REMARK  status: ('A' for Active; 'I' for Inactive)
REMARK    1  A    between atoms: C_1  and  C_2
REMARK    2  A    between atoms: C_6  and  C_15
REMARK    3  A    between atoms: C_13  and  C_14
REMARK    4  A    between atoms: C_15  and  C_17
REMARK    5  A    between atoms: C_15  and  N_63
REMARK    6  A    between atoms: N_21  and  C_22
REMARK                            x       y       z     vdW  Elec       q    Type
REMARK                         _______ _______ _______ _____ _____    ______ ____
ROOT
ATOM      1  C   UNL     1      -4.986   3.843   0.045  0.00  0.00    +0.039 C 
ENDROOT
BRANCH   1   7
ATOM      2  C   UNL     1       2.374   3.868   1.252  0.00  0.00    +0.044 C 
ATOM      3  C   UNL     1       1.082   3.127   1.024  0.00  0.00    -0.047 A 
ATOM      4  C   UNL     1      -0.080   3.826   0.857  0.00  0.00    +0.013 A 
ATOM      5  C   UNL     1      -1.279   3.138   0.645  0.00  0.00    -0.001 A 
ATOM      6  C   UNL     1      -2.542   3.855   0.462  0.00  0.00    +0.017 A 
ATOM      7  C   UNL     1      -3.670   3.135   0.243  0.00  0.00    +0.011 A 
ATOM      8  C   UNL     1      -3.619   1.725   0.213  0.00  0.00    +0.251 A 
ATOM      9  O   UNL     1      -4.647   1.097   0.026  0.00  0.00    -0.268 OA
ATOM     10  N   UNL     1      -2.465   1.057   0.385  0.00  0.00    -0.322 N 
ATOM     11  H   UNL     1      -2.465   0.058   0.357  0.00  0.00    +0.169 HD
ATOM     12  C   UNL     1      -1.281   1.730   0.600  0.00  0.00    +0.049 A 
ATOM     13  C   UNL     1      -0.087   1.040   0.779  0.00  0.00    +0.030 A 
ATOM     14  C   UNL     1       1.083   1.739   0.986  0.00  0.00    -0.046 A 
ATOM     15  C   UNL     1       2.376   0.989   1.173  0.00  0.00    +0.044 C 
ENDBRANCH   1   7
BRANCH   1  22
ATOM     16  C   UNL     1      -7.330   3.826   0.689  0.00  0.00    -0.077 C 
ATOM     17  C   UNL     1      -8.323   3.532   1.779  0.00  0.00    -0.019 C 
ATOM     18  C   UNL     1      -8.378   4.744   2.733  0.00  0.00    -0.002 C 
ATOM     19  C   UNL     1      -7.250   4.768   3.658  0.00  0.00    -0.002 C 
ATOM     20  C   UNL     1      -5.896   4.873   2.923  0.00  0.00    -0.019 C 
ATOM     21  C   UNL     1      -5.536   3.513   2.390  0.00  0.00    -0.077 C 
ATOM     22  N   UNL     1      -5.968   3.258   0.973  0.00  0.00    +0.389 N 
ATOM     23  H   UNL     1      -6.002   2.243   0.822  0.00  0.00    -0.080 HD
ENDBRANCH   1  22
BRANCH   1  24
ATOM     24  C   UNL     1      -5.468   3.622  -1.365  0.00  0.00    +0.143 A 
ATOM     25  N   UNL     1      -6.024   2.534  -1.840  0.00  0.00    -0.115 NA
ATOM     26  N   UNL     1      -6.295   2.736  -3.083  0.00  0.00    -0.023 NA
ATOM     27  N   UNL     1      -5.927   3.925  -3.413  0.00  0.00    -0.044 NA
ATOM     28  N   UNL     1      -5.418   4.505  -2.380  0.00  0.00    -0.227 N 
BRANCH  28  29
ATOM     29  C   UNL     1      -4.881   5.867  -2.322  0.00  0.00    +0.111 C 
ATOM     30  C   UNL     1      -5.969   6.881  -2.732  0.00  0.00    +0.027 C 
ATOM     31  C   UNL     1      -5.198   7.961  -3.531  0.00  0.00    +0.002 C 
ATOM     32  C   UNL     1      -4.158   7.127  -4.320  0.00  0.00    +0.002 C 
ATOM     33  C   UNL     1      -3.730   6.023  -3.331  0.00  0.00    +0.027 C 
ENDBRANCH  28  29
ENDBRANCH   1  24
TORSDOF 4
