REMARK  Name = ZINC19993888
REMARK  8 active torsions:
REMARK  status: ('A' for Active; 'I' for Inactive)
REMARK    1  A    between atoms: C_1  and  C_2
REMARK    2  A    between atoms: C_2  and  C_3
REMARK    3  A    between atoms: C_3  and  C_4
REMARK    4  A    between atoms: C_4  and  C_5
REMARK    5  A    between atoms: C_8  and  C_11
REMARK    6  A    between atoms: N_13  and  C_14
REMARK    7  A    between atoms: C_15  and  C_25
REMARK    8  A    between atoms: C_20  and  C_24
REMARK                            x       y       z     vdW  Elec       q    Type
REMARK                         _______ _______ _______ _____ _____    ______ ____
ROOT
ATOM      1  C   UNL     1      -1.916   2.274   1.210  0.00  0.00    +0.084 A 
ATOM      2  C   UNL     1      -1.294   1.929   0.019  0.00  0.00    +0.068 A 
ATOM      3  C   UNL     1      -1.955   2.308  -1.218  0.00  0.00    -0.023 A 
ATOM      4  C   UNL     1      -3.129   2.959  -1.067  0.00  0.00    -0.004 A 
ATOM      5  S   UNL     1      -3.356   3.082   0.684  0.00  0.00    -0.077 S 
ATOM      6  C   UNL     1      -4.027   3.465  -2.154  0.00  0.00    +0.046 C 
ATOM      7  C   UNL     1      -3.241   3.461  -3.473  0.00  0.00    -0.009 C 
ATOM      8  C   UNL     1      -2.539   2.108  -3.624  0.00  0.00    +0.008 C 
ATOM      9  C   UNL     1      -1.404   1.994  -2.604  0.00  0.00    +0.037 C 
ATOM     10  C   UNL     1      -4.202   3.676  -4.643  0.00  0.00    +0.008 C 
ENDROOT
BRANCH   2  11
ATOM     11  C   UNL     1      -0.014   1.213   0.009  0.00  0.00    +0.244 C 
ATOM     12  O   UNL     1       0.002  -0.004   0.002  0.00  0.00    -0.270 OA
ATOM     13  N   UNL     1       1.143   1.903   0.001  0.00  0.00    -0.325 N 
ATOM     14  H   UNL     1       2.103   1.366  -0.006  0.00  0.00    +0.145 HD
ATOM     15  H   UNL     1       1.129   3.002   0.003  0.00  0.00    +0.145 HD
ENDBRANCH   2  11
BRANCH   1  18
ATOM     16  C   UNL     1      -2.235   2.446   3.550  0.00  0.00    +0.221 C 
ATOM     17  O   UNL     1      -3.279   3.031   3.355  0.00  0.00    -0.275 OA
ATOM     18  N   UNL     1      -1.489   2.031   2.507  0.00  0.00    -0.279 N 
ATOM     19  H   UNL     1      -0.542   1.500   2.684  0.00  0.00    +0.155 HD
BRANCH  16  23
ATOM     20  C   UNL     1      -4.012   0.572   5.942  0.00  0.00    -0.011 C 
ATOM     21  C   UNL     1      -4.147   2.080   5.723  0.00  0.00    +0.004 C 
ATOM     22  C   UNL     1      -2.791   2.752   5.947  0.00  0.00    +0.013 C 
ATOM     23  C   UNL     1      -1.770   2.183   4.960  0.00  0.00    +0.075 C 
ATOM     24  C   UNL     1      -1.635   0.674   5.178  0.00  0.00    +0.013 C 
ATOM     25  C   UNL     1      -2.991   0.003   4.954  0.00  0.00    +0.004 C 
BRANCH  20  26
ATOM     26  C   UNL     1      -5.368  -0.100   5.717  0.00  0.00    +0.003 C 
BRANCH  26  27
ATOM     27  C   UNL     1      -5.263  -1.588   6.057  0.00  0.00    +0.000 C 
BRANCH  27  29
ATOM     28  C   UNL     1      -6.513  -3.748   6.171  0.00  0.00    +0.004 C 
ATOM     29  C   UNL     1      -6.619  -2.260   5.832  0.00  0.00    -0.003 C 
ENDBRANCH  27  29
ENDBRANCH  26  27
ENDBRANCH  20  26
ENDBRANCH  16  23
ENDBRANCH   1  18
TORSDOF 6
