REMARK  Name = ZINC22933735
REMARK  6 active torsions:
REMARK  status: ('A' for Active; 'I' for Inactive)
REMARK    1  A    between atoms: C_1  and  C_2
REMARK    2  A    between atoms: C_7  and  C_33
REMARK    3  A    between atoms: N_12  and  C_16
REMARK    4  A    between atoms: C_16  and  N_17
REMARK    5  A    between atoms: N_20  and  C_23
REMARK    6  A    between atoms: C_23  and  C_24
REMARK                            x       y       z     vdW  Elec       q    Type
REMARK                         _______ _______ _______ _____ _____    ______ ____
ROOT
ATOM      1  C   UNL     1       3.436   1.482   2.825  0.00  0.00    +0.205 C 
ENDROOT
BRANCH   1  11
ATOM      2  C   UNL     1      -0.019   1.526   0.010  0.00  0.00    +0.010 C 
ATOM      3  C   UNL     1       0.002  -0.004   0.002  0.00  0.00    +0.019 C 
ATOM      4  C   UNL     1      -1.434  -0.534   0.012  0.00  0.00    +0.006 C 
ATOM      5  C   UNL     1      -1.412  -2.064   0.024  0.00  0.00    +0.001 C 
ATOM      6  C   UNL     1      -0.687  -2.556   1.279  0.00  0.00    +0.006 C 
ATOM      7  C   UNL     1       0.752  -2.033   1.273  0.00  0.00    +0.019 C 
ATOM      8  C   UNL     1       0.740  -0.509   1.237  0.00  0.00    +0.118 C 
ATOM      9  C   UNL     1       2.151   0.030   1.266  0.00  0.00    +0.248 C 
ATOM     10  O   UNL     1       3.026  -0.158   0.448  0.00  0.00    -0.273 OA
ATOM     11  N   UNL     1       2.233   0.767   2.394  0.00  0.00    -0.211 N 
ATOM     12  C   UNL     1       1.077   0.763   3.069  0.00  0.00    +0.310 C 
ATOM     13  O   UNL     1       0.904   1.356   4.116  0.00  0.00    -0.252 OA
ATOM     14  N   UNL     1       0.127   0.030   2.458  0.00  0.00    -0.284 N 
ATOM     15  C   UNL     1       1.471  -2.507   2.537  0.00  0.00    +0.010 C 
ATOM     16  H   UNL     1      -0.782  -0.114   2.764  0.00  0.00    +0.151 HD
ENDBRANCH   1  11
BRANCH   1  17
ATOM     17  N   UNL     1       3.425   2.841   2.268  0.00  0.00    -0.284 NA
ATOM     18  C   UNL     1       3.897   2.842   0.876  0.00  0.00    +0.101 C 
ATOM     19  C   UNL     1       3.795   4.260   0.307  0.00  0.00    +0.100 C 
ATOM     20  N   UNL     1       4.596   5.174   1.133  0.00  0.00    -0.296 NA
ATOM     21  C   UNL     1       4.125   5.172   2.525  0.00  0.00    +0.100 C 
ATOM     22  C   UNL     1       4.227   3.755   3.093  0.00  0.00    +0.101 C 
BRANCH  20  23
ATOM     23  C   UNL     1       4.586   6.533   0.575  0.00  0.00    +0.120 C 
BRANCH  23  24
ATOM     24  C   UNL     1       5.603   7.380   1.296  0.00  0.00    -0.019 A 
ATOM     25  C   UNL     1       5.219   8.219   2.268  0.00  0.00    +0.051 A 
ATOM     26  S   UNL     1       6.746   8.973   2.795  0.00  0.00    -0.096 S 
ATOM     27  C   UNL     1       7.859   8.139   1.694  0.00  0.00    +0.020 A 
ATOM     28  C   UNL     1       7.013   7.291   0.947  0.00  0.00    -0.006 A 
ATOM     29  C   UNL     1       7.634   6.479  -0.032  0.00  0.00    +0.009 A 
ATOM     30  C   UNL     1       8.979   6.527  -0.223  0.00  0.00    +0.001 A 
ATOM     31  C   UNL     1       9.790   7.367   0.528  0.00  0.00    +0.001 A 
ATOM     32  C   UNL     1       9.221   8.182   1.487  0.00  0.00    +0.015 A 
ENDBRANCH  23  24
ENDBRANCH  20  23
ENDBRANCH   1  17
TORSDOF 4
