REMARK  Name = ZINC64340414
REMARK  5 active torsions:
REMARK  status: ('A' for Active; 'I' for Inactive)
REMARK    1  A    between atoms: C_1  and  O_2
REMARK    2  A    between atoms: O_2  and  C_3
REMARK    3  A    between atoms: C_6  and  C_9
REMARK    4  A    between atoms: N_10  and  N_11
REMARK    5  A    between atoms: C_14  and  C_17
REMARK                            x       y       z     vdW  Elec       q    Type
REMARK                         _______ _______ _______ _____ _____    ______ ____
ROOT
ATOM      1  N   UNL     1      -6.230  -4.569   0.045  0.00  0.00    -0.215 N 
ATOM      2  C   UNL     1      -6.283  -5.919   0.044  0.00  0.00    +0.178 A 
ATOM      3  N   UNL     1      -7.351  -6.711   0.046  0.00  0.00    -0.224 NA
ATOM      4  C   UNL     1      -7.178  -8.011   0.044  0.00  0.00    +0.080 A 
ATOM      5  C   UNL     1      -5.844  -8.506   0.039  0.00  0.00    +0.077 A 
ATOM      6  S   UNL     1      -4.936  -7.089   0.031  0.00  0.00    -0.059 S 
ATOM      7  H   UNL     1      -7.051  -4.051   0.052  0.00  0.00    +0.176 HD
ENDROOT
BRANCH   4   8
ATOM      8  C   UNL     1      -8.322  -8.925   0.046  0.00  0.00    +0.003 A 
ATOM      9  C   UNL     1      -8.098 -10.321   0.050  0.00  0.00    +0.012 A 
ATOM     10  C   UNL     1      -9.129 -11.198   0.053  0.00  0.00    +0.026 A 
ATOM     11  C   UNL     1     -10.459 -10.721   0.052  0.00  0.00    +0.056 A 
ATOM     12  N   UNL     1     -11.656 -11.291   0.054  0.00  0.00    -0.268 N 
ATOM     13  C   UNL     1     -12.596 -10.329   0.052  0.00  0.00    +0.308 C 
ATOM     14  O   UNL     1     -13.802 -10.538   0.053  0.00  0.00    -0.252 OA
ATOM     15  N   UNL     1     -12.041  -9.119   0.049  0.00  0.00    -0.268 N 
ATOM     16  C   UNL     1     -10.703  -9.266   0.049  0.00  0.00    +0.057 A 
ATOM     17  C   UNL     1      -9.624  -8.402   0.051  0.00  0.00    +0.035 A 
ATOM     18  H   UNL     1     -11.826 -12.246   0.057  0.00  0.00    +0.156 HD
ATOM     19  H   UNL     1     -12.519  -8.275   0.047  0.00  0.00    +0.156 HD
ENDBRANCH   4   8
BRANCH   1  21
ATOM     20  C   UNL     1      -4.940  -2.608   0.037  0.00  0.00    +0.138 C 
ATOM     21  N   UNL     1      -4.991  -3.916   0.035  0.00  0.00    -0.188 NA
BRANCH  20  25
ATOM     22  C   UNL     1      -1.198  -0.636   0.010  0.00  0.00    +0.120 A 
ATOM     23  C   UNL     1      -2.374   0.108   0.020  0.00  0.00    +0.046 A 
ATOM     24  C   UNL     1      -3.585  -0.522   0.028  0.00  0.00    +0.013 A 
ATOM     25  C   UNL     1      -3.643  -1.924   0.027  0.00  0.00    -0.005 A 
ATOM     26  C   UNL     1      -2.454  -2.670   0.017  0.00  0.00    +0.013 A 
ATOM     27  C   UNL     1      -1.249  -2.027   0.003  0.00  0.00    +0.046 A 
BRANCH  22  29
ATOM     28  C   UNL     1      -0.017   1.425   0.010  0.00  0.00    +0.277 C 
ATOM     29  O   UNL     1       0.002  -0.004   0.002  0.00  0.00    -0.495 OA
ENDBRANCH  22  29
ENDBRANCH  20  25
ENDBRANCH   1  21
TORSDOF 4
