REMARK  Name = ZINC56316011
REMARK  15 active torsions:
REMARK  status: ('A' for Active; 'I' for Inactive)
REMARK    1  A    between atoms: C_1  and  C_2
REMARK    2  A    between atoms: C_2  and  O_3
REMARK    3  A    between atoms: O_3  and  C_4
REMARK    4  A    between atoms: C_7  and  O_10
REMARK    5  A    between atoms: O_10  and  C_11
REMARK    6  A    between atoms: C_11  and  C_12
REMARK    7  A    between atoms: C_12  and  C_14
REMARK    8  A    between atoms: C_12  and  O_30
REMARK    9  A    between atoms: C_14  and  N_15
REMARK   10  A    between atoms: C_19  and  N_22
REMARK   11  A    between atoms: C_23  and  O_25
REMARK   12  A    between atoms: O_25  and  C_26
REMARK   13  A    between atoms: C_26  and  C_27
REMARK   14  A    between atoms: C_26  and  C_28
REMARK   15  A    between atoms: C_26  and  C_29
REMARK                            x       y       z     vdW  Elec       q    Type
REMARK                         _______ _______ _______ _____ _____    ______ ____
ROOT
ATOM      1  N   UNL     1      -4.714  -9.971  -0.144  0.00  0.00    +0.383 N 
ATOM      2  C   UNL     1      -4.014 -10.442  -1.345  0.00  0.00    -0.079 C 
ATOM      3  C   UNL     1      -3.920 -11.969  -1.319  0.00  0.00    -0.017 C 
ATOM      4  C   UNL     1      -5.331 -12.562  -1.282  0.00  0.00    +0.019 C 
ATOM      5  C   UNL     1      -6.077 -12.005  -0.067  0.00  0.00    +0.060 C 
ATOM      6  C   UNL     1      -6.092 -10.477  -0.140  0.00  0.00    -0.056 C 
ATOM      7  H   UNL     1      -4.232 -10.304   0.676  0.00  0.00    -0.082 HD
ENDROOT
BRANCH   5   8
ATOM      8  N   UNL     1      -7.453 -12.509  -0.064  0.00  0.00    -0.280 N 
ATOM      9  C   UNL     1      -7.729 -13.711   0.480  0.00  0.00    +0.401 C 
ATOM     10  O   UNL     1      -6.837 -14.377   0.967  0.00  0.00    -0.226 OA
ATOM     11  H   UNL     1      -8.165 -11.978  -0.453  0.00  0.00    +0.152 HD
BRANCH   9  12
ATOM     12  O   UNL     1      -8.993 -14.174   0.482  0.00  0.00    -0.445 OA
BRANCH  12  13
ATOM     13  C   UNL     1      -9.214 -15.456   1.075  0.00  0.00    +0.107 C 
ATOM     14  C   UNL     1      -8.787 -15.419   2.543  0.00  0.00    +0.055 C 
ATOM     15  C   UNL     1     -10.699 -15.811   0.984  0.00  0.00    +0.055 C 
ATOM     16  C   UNL     1      -8.391 -16.510   0.331  0.00  0.00    +0.055 C 
ENDBRANCH  12  13
ENDBRANCH   9  12
ENDBRANCH   5   8
BRANCH   1  17
ATOM     17  C   UNL     1      -4.734  -8.502  -0.136  0.00  0.00    -0.044 C 
BRANCH  17  18
ATOM     18  C   UNL     1      -3.304  -7.973  -0.015  0.00  0.00    +0.135 C 
BRANCH  18  19
ATOM     19  O   UNL     1      -2.721  -8.448   1.200  0.00  0.00    -0.390 OA
ATOM     20  H   UNL     1      -3.195  -8.174   1.997  0.00  0.00    +0.210 HD
ENDBRANCH  18  19
BRANCH  18  21
ATOM     21  C   UNL     1      -3.324  -6.443  -0.007  0.00  0.00    +0.258 C 
BRANCH  21  22
ATOM     22  O   UNL     1      -1.984  -5.949  -0.011  0.00  0.00    -0.489 OA
BRANCH  22  26
ATOM     23  C   UNL     1      -1.498  -1.849   0.006  0.00  0.00    +0.121 A 
ATOM     24  C   UNL     1      -0.387  -2.679  -0.003  0.00  0.00    +0.049 A 
ATOM     25  C   UNL     1      -0.549  -4.051  -0.009  0.00  0.00    +0.049 A 
ATOM     26  C   UNL     1      -1.824  -4.598  -0.005  0.00  0.00    +0.121 A 
ATOM     27  C   UNL     1      -2.935  -3.768   0.005  0.00  0.00    +0.049 A 
ATOM     28  C   UNL     1      -2.773  -2.397   0.016  0.00  0.00    +0.049 A 
BRANCH  23  29
ATOM     29  O   UNL     1      -1.339  -0.499   0.012  0.00  0.00    -0.492 OA
BRANCH  29  31
ATOM     30  C   UNL     1      -0.019   1.526   0.010  0.00  0.00    +0.048 C 
ATOM     31  C   UNL     1       0.002  -0.004   0.002  0.00  0.00    +0.225 C 
ENDBRANCH  29  31
ENDBRANCH  23  29
ENDBRANCH  22  26
ENDBRANCH  21  22
ENDBRANCH  18  21
ENDBRANCH  17  18
ENDBRANCH   1  17
TORSDOF 11
