REMARK  Name = ZINC41378219
REMARK  4 active torsions:
REMARK  status: ('A' for Active; 'I' for Inactive)
REMARK    1  A    between atoms: C_3  and  N_22
REMARK    2  A    between atoms: C_6  and  N_7
REMARK    3  A    between atoms: C_8  and  C_10
REMARK    4  A    between atoms: C_16  and  C_18
REMARK                            x       y       z     vdW  Elec       q    Type
REMARK                         _______ _______ _______ _____ _____    ______ ____
ROOT
ATOM      1  N   UNL     1      -1.201  -0.721   0.010  0.00  0.00    -0.284 N 
ATOM      2  C   UNL     1      -1.186  -2.064  -0.099  0.00  0.00    +0.238 C 
ATOM      3  O   UNL     1      -0.130  -2.660  -0.113  0.00  0.00    -0.273 OA
ATOM      4  H   UNL     1      -2.046  -0.250   0.089  0.00  0.00    +0.155 HD
ENDROOT
BRANCH   2   5
ATOM      5  C   UNL     1      -2.482  -2.826  -0.204  0.00  0.00    +0.162 C 
ATOM      6  C   UNL     1      -3.105  -2.998   1.198  0.00  0.00    +0.033 C 
ATOM      7  C   UNL     1      -3.690  -4.434   1.145  0.00  0.00    +0.021 C 
ATOM      8  C   UNL     1      -2.639  -5.166   0.273  0.00  0.00    +0.109 C 
ATOM      9  N   UNL     1      -2.229  -4.171  -0.741  0.00  0.00    -0.283 N 
ATOM     10  C   UNL     1      -1.711  -4.448  -1.953  0.00  0.00    +0.320 C 
ATOM     11  O   UNL     1      -1.411  -3.545  -2.705  0.00  0.00    -0.266 OA
BRANCH  10  12
ATOM     12  C   UNL     1      -1.505  -5.880  -2.376  0.00  0.00    +0.470 C 
ATOM     13  F   UNL     1      -0.960  -5.913  -3.663  0.00  0.00    -0.162 F 
ATOM     14  F   UNL     1      -0.630  -6.508  -1.483  0.00  0.00    -0.162 F 
ATOM     15  F   UNL     1      -2.734  -6.549  -2.373  0.00  0.00    -0.162 F 
ENDBRANCH  10  12
ENDBRANCH   2   5
BRANCH   1  21
ATOM     16  C   UNL     1       0.065   1.248  -0.586  0.00  0.00    +0.025 A 
ATOM     17  C   UNL     1       1.252   1.954  -0.586  0.00  0.00    +0.025 A 
ATOM     18  C   UNL     1       2.382   1.411   0.011  0.00  0.00    +0.040 A 
ATOM     19  C   UNL     1       2.319   0.159   0.607  0.00  0.00    +0.025 A 
ATOM     20  C   UNL     1       1.133  -0.547   0.606  0.00  0.00    +0.025 A 
ATOM     21  C   UNL     1       0.003  -0.005   0.010  0.00  0.00    +0.034 A 
BRANCH  18  22
ATOM     22  N   UNL     1       3.586   2.128   0.011  0.00  0.00    -0.234 N 
ATOM     23  C   UNL     1       4.865   1.681   0.597  0.00  0.00    +0.158 C 
ATOM     24  C   UNL     1       5.876   2.669  -0.030  0.00  0.00    +0.253 C 
ATOM     25  O   UNL     1       5.037   3.798  -0.344  0.00  0.00    -0.448 OA
ATOM     26  C   UNL     1       3.786   3.345  -0.529  0.00  0.00    +0.407 C 
ATOM     27  O   UNL     1       2.925   3.968  -1.119  0.00  0.00    -0.226 OA
ENDBRANCH  18  22
ENDBRANCH   1  21
TORSDOF 4
