REMARK  Name = ZINC36555744
REMARK  20 active torsions:
REMARK  status: ('A' for Active; 'I' for Inactive)
REMARK    1  A    between atoms: C_1  and  C_2
REMARK    2  A    between atoms: C_5  and  C_7
REMARK    3  A    between atoms: C_7  and  N_8
REMARK    4  A    between atoms: N_8  and  C_9
REMARK    5  A    between atoms: C_9  and  C_11
REMARK    6  A    between atoms: C_9  and  C_20
REMARK    7  A    between atoms: C_14  and  O_19
REMARK    8  A    between atoms: C_15  and  O_17
REMARK    9  A    between atoms: O_17  and  C_18
REMARK   10  A    between atoms: N_22  and  C_23
REMARK   11  A    between atoms: C_23  and  C_24
REMARK   12  A    between atoms: C_23  and  C_25
REMARK   13  A    between atoms: C_23  and  C_26
REMARK   14  A    between atoms: C_26  and  C_27
REMARK   15  A    between atoms: C_27  and  C_28
REMARK   16  A    between atoms: C_27  and  C_29
REMARK   17  A    between atoms: C_27  and  C_30
REMARK   18  A    between atoms: C_31  and  C_33
REMARK   19  A    between atoms: C_38  and  O_39
REMARK   20  A    between atoms: O_39  and  C_40
REMARK                            x       y       z     vdW  Elec       q    Type
REMARK                         _______ _______ _______ _____ _____    ______ ____
ROOT
ATOM      1  C   UNL     1       2.670  -2.098  -3.174  0.00  0.00    +0.193 C 
ENDROOT
BRANCH   1   2
ATOM      2  C   UNL     1       2.929  -0.616  -3.249  0.00  0.00    -0.015 A 
ATOM      3  C   UNL     1       2.365   0.231  -2.313  0.00  0.00    +0.010 A 
ATOM      4  C   UNL     1       2.599   1.592  -2.378  0.00  0.00    +0.049 A 
ATOM      5  C   UNL     1       3.401   2.110  -3.382  0.00  0.00    +0.158 A 
ATOM      6  C   UNL     1       3.969   1.258  -4.324  0.00  0.00    +0.162 A 
ATOM      7  C   UNL     1       3.734  -0.106  -4.251  0.00  0.00    +0.055 A 
BRANCH   6   8
ATOM      8  O   UNL     1       4.757   1.761  -5.312  0.00  0.00    -0.491 OA
ATOM      9  C   UNL     1       5.206   0.846  -6.313  0.00  0.00    +0.277 C 
ENDBRANCH   6   8
BRANCH   5  10
ATOM     10  O   UNL     1       3.632   3.449  -3.448  0.00  0.00    -0.503 OA
ATOM     11  H   UNL     1       4.409   3.738  -2.950  0.00  0.00    +0.292 HD
ENDBRANCH   5  10
ENDBRANCH   1   2
BRANCH   1  12
ATOM     12  C   UNL     1       3.797  -2.768  -2.430  0.00  0.00    +0.239 C 
ATOM     13  O   UNL     1       3.562  -3.681  -1.667  0.00  0.00    -0.273 OA
ATOM     14  N   UNL     1       5.066  -2.352  -2.613  0.00  0.00    -0.308 N 
ATOM     15  H   UNL     1       5.248  -1.583  -3.176  0.00  0.00    +0.149 HD
BRANCH  14  16
ATOM     16  C   UNL     1       6.170  -3.059  -1.960  0.00  0.00    +0.030 C 
ATOM     17  C   UNL     1       6.151  -2.761  -0.459  0.00  0.00    +0.031 C 
ATOM     18  C   UNL     1       6.013  -4.565  -2.182  0.00  0.00    +0.031 C 
BRANCH  16  19
ATOM     19  C   UNL     1       7.499  -2.591  -2.556  0.00  0.00    +0.031 C 
BRANCH  19  20
ATOM     20  C   UNL     1       7.545  -2.950  -4.043  0.00  0.00    -0.036 C 
ATOM     21  C   UNL     1       6.258  -2.478  -4.721  0.00  0.00    +0.010 C 
ATOM     22  C   UNL     1       8.747  -2.264  -4.696  0.00  0.00    +0.010 C 
ATOM     23  C   UNL     1       7.678  -4.466  -4.198  0.00  0.00    +0.010 C 
ENDBRANCH  19  20
ENDBRANCH  16  19
ENDBRANCH  14  16
ENDBRANCH   1  12
BRANCH   1  24
ATOM     24  N   UNL     1       1.409  -2.339  -2.468  0.00  0.00    -0.275 N 
ATOM     25  C   UNL     1       0.345  -1.544  -2.700  0.00  0.00    +0.251 C 
ATOM     26  O   UNL     1      -0.646  -1.636  -2.001  0.00  0.00    -0.270 OA
BRANCH  25  27
ATOM     27  C   UNL     1       0.382  -0.565  -3.802  0.00  0.00    +0.078 A 
ATOM     28  C   UNL     1       1.385  -0.636  -4.772  0.00  0.00    +0.017 A 
ATOM     29  C   UNL     1       1.415   0.282  -5.799  0.00  0.00    +0.001 A 
ATOM     30  C   UNL     1       0.453   1.277  -5.875  0.00  0.00    +0.004 A 
ATOM     31  C   UNL     1      -0.544   1.359  -4.923  0.00  0.00    +0.046 A 
ATOM     32  C   UNL     1      -0.592   0.440  -3.886  0.00  0.00    +0.132 A 
BRANCH  32  33
ATOM     33  O   UNL     1      -1.573   0.516  -2.953  0.00  0.00    -0.494 OA
ATOM     34  C   UNL     1      -2.531   1.566  -3.103  0.00  0.00    +0.277 C 
ENDBRANCH  32  33
ENDBRANCH  25  27
BRANCH  24  35
ATOM     35  C   UNL     1       1.304  -3.442  -1.510  0.00  0.00    +0.183 C 
BRANCH  35  40
ATOM     36  C   UNL     1      -1.203  -7.002  -4.056  0.00  0.00    +0.086 C 
ATOM     37  C   UNL     1      -0.089  -6.269  -3.355  0.00  0.00    +0.102 A 
ATOM     38  C   UNL     1       1.173  -6.712  -3.207  0.00  0.00    +0.045 A 
ATOM     39  C   UNL     1       1.875  -5.714  -2.493  0.00  0.00    +0.046 A 
ATOM     40  C   UNL     1       1.001  -4.721  -2.249  0.00  0.00    +0.122 A 
ATOM     41  O   UNL     1      -0.185  -5.060  -2.778  0.00  0.00    -0.463 OA
ENDBRANCH  35  40
ENDBRANCH  24  35
ENDBRANCH   1  24
TORSDOF 12
