REMARK  Name = ZINC60355033
REMARK  9 active torsions:
REMARK  status: ('A' for Active; 'I' for Inactive)
REMARK    1  A    between atoms: C_1  and  C_2
REMARK    2  A    between atoms: C_5  and  C_7
REMARK    3  A    between atoms: C_7  and  C_9
REMARK    4  A    between atoms: C_7  and  N_27
REMARK    5  A    between atoms: C_9  and  N_10
REMARK    6  A    between atoms: C_11  and  C_13
REMARK    7  A    between atoms: C_16  and  N_19
REMARK    8  A    between atoms: C_20  and  C_26
REMARK    9  A    between atoms: C_22  and  C_24
REMARK                            x       y       z     vdW  Elec       q    Type
REMARK                         _______ _______ _______ _____ _____    ______ ____
ROOT
ATOM      1  N   UNL     1       3.139  -4.616  -1.417  0.00  0.00    -0.312 N 
ATOM      2  C   UNL     1       3.697  -5.031  -2.571  0.00  0.00    +0.244 C 
ATOM      3  O   UNL     1       3.299  -4.592  -3.632  0.00  0.00    -0.270 OA
ATOM      4  H   UNL     1       3.457  -4.966  -0.571  0.00  0.00    +0.149 HD
ENDROOT
BRANCH   2   5
ATOM      5  C   UNL     1       4.794  -6.020  -2.547  0.00  0.00    +0.037 A 
ATOM      6  C   UNL     1       5.249  -6.531  -1.329  0.00  0.00    +0.015 A 
ATOM      7  C   UNL     1       6.272  -7.453  -1.310  0.00  0.00    +0.028 A 
ATOM      8  C   UNL     1       6.851  -7.876  -2.501  0.00  0.00    +0.066 A 
ATOM      9  C   UNL     1       6.400  -7.371  -3.716  0.00  0.00    +0.028 A 
ATOM     10  C   UNL     1       5.374  -6.452  -3.742  0.00  0.00    +0.015 A 
BRANCH   8  11
ATOM     11  N   UNL     1       7.889  -8.813  -2.478  0.00  0.00    -0.236 N 
ATOM     12  C   UNL     1       8.114  -9.782  -3.404  0.00  0.00    +0.056 A 
ATOM     13  C   UNL     1       9.212 -10.471  -3.016  0.00  0.00    +0.062 A 
ATOM     14  C   UNL     1       9.674  -9.910  -1.820  0.00  0.00    +0.075 A 
ATOM     15  N   UNL     1       8.887  -8.915  -1.500  0.00  0.00    -0.170 NA
ATOM     16  C   UNL     1      10.876 -10.370  -1.036  0.00  0.00    +0.069 C 
ATOM     17 BR   UNL     1       9.986 -11.936  -3.929  0.00  0.00    -0.047 Br
ATOM     18  C   UNL     1       7.290 -10.042  -4.638  0.00  0.00    +0.067 C 
ENDBRANCH   8  11
ENDBRANCH   2   5
BRANCH   1  19
ATOM     19  C   UNL     1       2.052  -3.634  -1.442  0.00  0.00    +0.097 C 
BRANCH  19  20
ATOM     20  C   UNL     1       1.514  -3.434  -0.023  0.00  0.00    +0.016 C 
BRANCH  20  25
ATOM     21  C   UNL     1      -1.860  -7.122   0.647  0.00  0.00    +0.086 C 
ATOM     22  C   UNL     1      -0.592  -6.315   0.749  0.00  0.00    +0.102 A 
ATOM     23  C   UNL     1       0.498  -6.649   1.464  0.00  0.00    +0.044 A 
ATOM     24  C   UNL     1       1.444  -5.615   1.276  0.00  0.00    +0.043 A 
ATOM     25  C   UNL     1       0.876  -4.712   0.457  0.00  0.00    +0.093 A 
ATOM     26  O   UNL     1      -0.355  -5.144   0.137  0.00  0.00    -0.466 OA
ENDBRANCH  20  25
BRANCH  20  27
ATOM     27  N   UNL     1       0.514  -2.358  -0.026  0.00  0.00    +0.387 N 
ATOM     28  C   UNL     1      -0.017  -2.148   1.345  0.00  0.00    -0.078 C 
ATOM     29  C   UNL     1      -0.573  -0.703   1.293  0.00  0.00    -0.020 C 
ATOM     30  C   UNL     1       0.455   0.031   0.402  0.00  0.00    -0.020 C 
ATOM     31  C   UNL     1       1.143  -1.077  -0.415  0.00  0.00    -0.078 C 
ATOM     32  H   UNL     1      -0.238  -2.583  -0.660  0.00  0.00    -0.081 HD
ENDBRANCH  20  27
ENDBRANCH  19  20
ENDBRANCH   1  19
TORSDOF 6
