REMARK  Name = ZINC01082655
REMARK  11 active torsions:
REMARK  status: ('A' for Active; 'I' for Inactive)
REMARK    1  A    between atoms: C_1  and  C_2
REMARK    2  A    between atoms: C_2  and  O_3
REMARK    3  A    between atoms: O_3  and  C_4
REMARK    4  A    between atoms: C_4  and  C_6
REMARK    5  A    between atoms: C_7  and  N_28
REMARK    6  A    between atoms: C_17  and  C_19
REMARK    7  A    between atoms: C_19  and  C_21
REMARK    8  A    between atoms: C_19  and  C_23
REMARK    9  A    between atoms: C_23  and  O_25
REMARK   10  A    between atoms: O_25  and  C_26
REMARK   11  A    between atoms: C_26  and  C_27
REMARK                            x       y       z     vdW  Elec       q    Type
REMARK                         _______ _______ _______ _____ _____    ______ ____
ROOT
ATOM      1  C   UNL     1       4.723   1.204  -0.366  0.00  0.00    +0.103 C 
ATOM      2  C   UNL     1       4.466  -0.124  -0.467  0.00  0.00    +0.195 C 
ATOM      3  O   UNL     1       3.256  -0.636  -0.192  0.00  0.00    -0.440 OA
ATOM      4  C   UNL     1       2.166   0.170  -0.185  0.00  0.00    +0.148 A 
ATOM      5  C   UNL     1       2.298   1.544  -0.065  0.00  0.00    +0.007 A 
ATOM      6  C   UNL     1       1.172   2.348  -0.061  0.00  0.00    +0.023 A 
ATOM      7  C   UNL     1      -0.085   1.784  -0.176  0.00  0.00    +0.019 A 
ATOM      8  C   UNL     1      -0.221   0.412  -0.296  0.00  0.00    +0.034 A 
ATOM      9  C   UNL     1       0.901  -0.394  -0.300  0.00  0.00    +0.061 A 
ATOM     10 BR   UNL     1       0.715  -2.269  -0.465  0.00  0.00    -0.046 Br
ATOM     11 BR   UNL     1      -1.620   2.889  -0.178  0.00  0.00    -0.050 Br
ATOM     12  C   UNL     1       3.659   2.175   0.062  0.00  0.00    +0.092 C 
ENDROOT
BRANCH   2  13
ATOM     13  N   UNL     1       5.470  -0.968  -0.861  0.00  0.00    -0.329 N 
ATOM     14  H   UNL     1       6.368  -0.625  -0.993  0.00  0.00    +0.145 HD
ATOM     15  H   UNL     1       5.284  -1.908  -1.009  0.00  0.00    +0.145 HD
ENDBRANCH   2  13
BRANCH   1  16
ATOM     16  C   UNL     1       6.008   1.681  -0.667  0.00  0.00    +0.341 C 
ATOM     17  O   UNL     1       6.204   2.288  -1.704  0.00  0.00    -0.245 OA
BRANCH  16  18
ATOM     18  O   UNL     1       7.026   1.467   0.194  0.00  0.00    -0.462 OA
BRANCH  18  20
ATOM     19  C   UNL     1       9.327   1.643   0.914  0.00  0.00    +0.048 C 
ATOM     20  C   UNL     1       8.307   1.980  -0.176  0.00  0.00    +0.229 C 
ENDBRANCH  18  20
ENDBRANCH  16  18
ENDBRANCH   1  16
BRANCH  12  21
ATOM     21  C   UNL     1       3.897   2.579   1.519  0.00  0.00    +0.212 C 
BRANCH  21  22
ATOM     22  C   UNL     1       5.170   3.311   1.624  0.00  0.00    +0.078 C 
ATOM     23  N   UNL     1       6.152   3.875   1.705  0.00  0.00    -0.196 NA
ENDBRANCH  21  22
BRANCH  21  24
ATOM     24  C   UNL     1       3.956   1.343   2.379  0.00  0.00    +0.325 C 
ATOM     25  O   UNL     1       3.744   0.257   1.893  0.00  0.00    -0.249 OA
BRANCH  24  26
ATOM     26  O   UNL     1       4.243   1.448   3.686  0.00  0.00    -0.464 OA
BRANCH  26  27
ATOM     27  C   UNL     1       4.283   0.215   4.454  0.00  0.00    +0.229 C 
ATOM     28  C   UNL     1       4.623   0.533   5.911  0.00  0.00    +0.048 C 
ENDBRANCH  26  27
ENDBRANCH  24  26
ENDBRANCH  21  24
ENDBRANCH  12  21
TORSDOF 9
