REMARK  Name = ZINC63291195
REMARK  5 active torsions:
REMARK  status: ('A' for Active; 'I' for Inactive)
REMARK    1  A    between atoms: C_6  and  C_10
REMARK    2  A    between atoms: C_10  and  C_11
REMARK    3  A    between atoms: C_14  and  N_17
REMARK    4  A    between atoms: N_17  and  C_18
REMARK    5  A    between atoms: N_23  and  C_26
REMARK                            x       y       z     vdW  Elec       q    Type
REMARK                         _______ _______ _______ _____ _____    ______ ____
ROOT
ATOM      1  C   UNL     1       3.683  -4.802  -0.602  0.00  0.00    -0.044 A 
ATOM      2  C   UNL     1       4.299  -5.979  -0.216  0.00  0.00    +0.005 A 
ATOM      3  C   UNL     1       3.657  -7.188  -0.397  0.00  0.00    +0.023 A 
ATOM      4  C   UNL     1       2.390  -7.222  -0.966  0.00  0.00    +0.028 A 
ATOM      5  C   UNL     1       1.774  -6.038  -1.352  0.00  0.00    +0.023 A 
ATOM      6  C   UNL     1       2.419  -4.832  -1.164  0.00  0.00    +0.005 A 
ENDROOT
BRANCH   4   7
ATOM      7  N   UNL     1       1.738  -8.443  -1.149  0.00  0.00    -0.333 N 
ATOM      8  H   UNL     1       2.170  -9.269  -0.880  0.00  0.00    +0.147 HD
BRANCH   7   9
ATOM      9  C   UNL     1       0.402  -8.477  -1.750  0.00  0.00    +0.166 C 
ATOM     10  C   UNL     1       0.120  -9.861  -2.369  0.00  0.00    +0.128 C 
ATOM     11  C   UNL     1      -1.076 -10.362  -1.589  0.00  0.00    +0.228 C 
ATOM     12  O   UNL     1      -1.628 -11.428  -1.757  0.00  0.00    -0.275 OA
ATOM     13  N   UNL     1      -1.427  -9.441  -0.682  0.00  0.00    -0.209 N 
ATOM     14  C   UNL     1      -0.664  -8.337  -0.685  0.00  0.00    +0.247 C 
ATOM     15  O   UNL     1      -0.804  -7.381   0.047  0.00  0.00    -0.273 OA
BRANCH  13  16
ATOM     16  C   UNL     1      -2.505  -9.615   0.198  0.00  0.00    +0.044 A 
ATOM     17  C   UNL     1      -3.636  -8.819   0.077  0.00  0.00    +0.025 A 
ATOM     18  C   UNL     1      -4.696  -8.993   0.945  0.00  0.00    +0.017 A 
ATOM     19  C   UNL     1      -4.632  -9.959   1.933  0.00  0.00    +0.018 A 
ATOM     20  C   UNL     1      -3.506 -10.753   2.056  0.00  0.00    +0.017 A 
ATOM     21  C   UNL     1      -2.445 -10.588   1.187  0.00  0.00    +0.025 A 
ATOM     22 BR   UNL     1      -6.086 -10.193   3.120  0.00  0.00    -0.050 Br
ENDBRANCH  13  16
ENDBRANCH   7   9
ENDBRANCH   4   7
BRANCH   1  23
ATOM     23  C   UNL     1       4.387  -3.485  -0.404  0.00  0.00    +0.081 C 
BRANCH  23  29
ATOM     24  C   UNL     1       1.441   0.803   1.689  0.00  0.00    +0.002 A 
ATOM     25  C   UNL     1       2.709   1.407   1.763  0.00  0.00    +0.002 A 
ATOM     26  C   UNL     1       3.855   0.713   1.614  0.00  0.00    +0.027 A 
ATOM     27  C   UNL     1       3.799  -0.734   1.363  0.00  0.00    +0.060 A 
ATOM     28  N   UNL     1       4.718  -1.638   1.183  0.00  0.00    -0.363 N 
ATOM     29  C   UNL     1       4.038  -2.923   0.976  0.00  0.00    +0.178 C 
ATOM     30  N   UNL     1       2.599  -2.648   1.059  0.00  0.00    -0.363 N 
ATOM     31  C   UNL     1       2.457  -1.374   1.285  0.00  0.00    +0.060 A 
ATOM     32  C   UNL     1       1.277  -0.516   1.463  0.00  0.00    +0.027 A 
ATOM     33  H   UNL     1       5.677  -1.489   1.185  0.00  0.00    +0.162 HD
ATOM     34  H   UNL     1       1.884  -3.297   0.964  0.00  0.00    +0.162 HD
ENDBRANCH  23  29
ENDBRANCH   1  23
TORSDOF 5
