REMARK  Name = ZINC13131863
REMARK  5 active torsions:
REMARK  status: ('A' for Active; 'I' for Inactive)
REMARK    1  A    between atoms: C_1  and  C_2
REMARK    2  A    between atoms: C_2  and  C_3
REMARK    3  A    between atoms: C_6  and  C_9
REMARK    4  A    between atoms: C_12  and  C_21
REMARK    5  A    between atoms: C_26  and  C_27
REMARK                            x       y       z     vdW  Elec       q    Type
REMARK                         _______ _______ _______ _____ _____    ______ ____
ROOT
ATOM      1  C   UNL     1       1.952  -2.134   4.851  0.00  0.00    +0.106 C 
ATOM      2  C   UNL     1       2.446  -0.982   5.733  0.00  0.00    +0.058 C 
ATOM      3  C   UNL     1       1.257  -0.111   6.160  0.00  0.00    +0.143 C 
ATOM      4  N   UNL     1       0.199  -0.978   6.678  0.00  0.00    -0.224 N 
ATOM      5  C   UNL     1       0.113  -2.307   6.433  0.00  0.00    +0.216 A 
ATOM      6  N   UNL     1      -0.944  -2.767   7.048  0.00  0.00    -0.180 NA
ATOM      7  C   UNL     1      -1.557  -1.763   7.694  0.00  0.00    +0.233 A 
ATOM      8  N   UNL     1      -0.887  -0.651   7.491  0.00  0.00    -0.132 NA
ATOM      9  N   UNL     1      -2.719  -1.882   8.457  0.00  0.00    -0.326 N 
ATOM     10  N   UNL     1       1.040  -2.981   5.642  0.00  0.00    -0.307 N 
ATOM     11  H   UNL     1      -3.150  -2.745   8.554  0.00  0.00    +0.145 HD
ATOM     12  H   UNL     1      -3.096  -1.100   8.891  0.00  0.00    +0.145 HD
ATOM     13  H   UNL     1       1.086  -3.950   5.614  0.00  0.00    +0.149 HD
ENDROOT
BRANCH   3  14
ATOM     14  C   UNL     1       1.696   0.852   7.233  0.00  0.00    -0.020 A 
ATOM     15  C   UNL     1       2.091   0.376   8.469  0.00  0.00    +0.006 A 
ATOM     16  C   UNL     1       2.493   1.259   9.453  0.00  0.00    +0.000 A 
ATOM     17  C   UNL     1       2.502   2.619   9.201  0.00  0.00    +0.000 A 
ATOM     18  C   UNL     1       2.109   3.094   7.964  0.00  0.00    +0.004 A 
ATOM     19  C   UNL     1       1.710   2.210   6.978  0.00  0.00    -0.045 A 
ATOM     20  C   UNL     1       1.287   2.729   5.628  0.00  0.00    +0.044 C 
ENDBRANCH   3  14
BRANCH   1  24
ATOM     21  C   UNL     1      -0.127  -0.562   1.466  0.00  0.00    -0.048 A 
ATOM     22  C   UNL     1       1.183  -0.983   1.338  0.00  0.00    +0.004 A 
ATOM     23  C   UNL     1       1.856  -1.492   2.433  0.00  0.00    +0.006 A 
ATOM     24  C   UNL     1       1.219  -1.579   3.657  0.00  0.00    -0.027 A 
ATOM     25  C   UNL     1      -0.091  -1.156   3.786  0.00  0.00    +0.006 A 
ATOM     26  C   UNL     1      -0.762  -0.643   2.691  0.00  0.00    +0.004 A 
BRANCH  21  28
ATOM     27  C   UNL     1      -0.644   1.506   0.198  0.00  0.00    +0.009 C 
ATOM     28  C   UNL     1      -0.861  -0.007   0.273  0.00  0.00    +0.032 C 
ENDBRANCH  21  28
ENDBRANCH   1  24
TORSDOF 3
