REMARK  Name = ZINC08591650
REMARK  8 active torsions:
REMARK  status: ('A' for Active; 'I' for Inactive)
REMARK    1  A    between atoms: C_1  and  C_2
REMARK    2  A    between atoms: C_7  and  N_8
REMARK    3  A    between atoms: C_9  and  C_11
REMARK    4  A    between atoms: C_12  and  C_36
REMARK    5  A    between atoms: C_16  and  S_27
REMARK    6  A    between atoms: C_19  and  C_21
REMARK    7  A    between atoms: S_27  and  C_28
REMARK    8  A    between atoms: C_28  and  C_29
REMARK                            x       y       z     vdW  Elec       q    Type
REMARK                         _______ _______ _______ _____ _____    ______ ____
ROOT
ATOM      1  C   UNL     1       0.114   0.173   4.707  0.00  0.00    +0.062 C 
ATOM      2  C   UNL     1       0.202  -0.453   5.890  0.00  0.00    +0.018 C 
ATOM      3  N   UNL     1       0.226   0.232   7.080  0.00  0.00    -0.287 N 
ATOM      4  C   UNL     1      -0.107   1.580   7.048  0.00  0.00    +0.219 A 
ATOM      5  N   UNL     1      -0.377   2.401   8.026  0.00  0.00    -0.187 NA
ATOM      6  C   UNL     1      -0.652   3.616   7.527  0.00  0.00    +0.211 A 
ATOM      7  N   UNL     1      -0.555   3.572   6.215  0.00  0.00    -0.141 NA
ATOM      8  N   UNL     1      -0.201   2.266   5.883  0.00  0.00    -0.218 N 
ATOM      9  C   UNL     1       0.052   1.671   4.572  0.00  0.00    +0.195 C 
ATOM     10  C   UNL     1       0.277  -1.958   5.914  0.00  0.00    +0.061 C 
ATOM     11  H   UNL     1       0.466  -0.208   7.910  0.00  0.00    +0.155 HD
ENDROOT
BRANCH   9  12
ATOM     12  C   UNL     1       1.361   2.181   4.027  0.00  0.00    +0.070 A 
ATOM     13  C   UNL     1       2.411   2.427   4.891  0.00  0.00    +0.026 A 
ATOM     14  C   UNL     1       3.611   2.896   4.379  0.00  0.00    +0.003 A 
ATOM     15  C   UNL     1       3.710   3.102   3.011  0.00  0.00    +0.020 A 
ATOM     16  C   UNL     1       2.618   2.833   2.209  0.00  0.00    +0.111 A 
ATOM     17  N   UNL     1       1.493   2.383   2.730  0.00  0.00    -0.257 NA
ENDBRANCH   9  12
BRANCH   1  19
ATOM     18  N   UNL     1       1.198  -1.248   3.115  0.00  0.00    -0.281 N 
ATOM     19  C   UNL     1       0.085  -0.612   3.530  0.00  0.00    +0.248 C 
ATOM     20  O   UNL     1      -0.948  -0.713   2.891  0.00  0.00    -0.270 OA
ATOM     21  H   UNL     1       2.005  -1.213   3.653  0.00  0.00    +0.155 HD
BRANCH  18  28
ATOM     22  C   UNL     1       3.579  -1.271   1.557  0.00  0.00    +0.045 C 
ATOM     23  C   UNL     1       2.332  -1.994   1.118  0.00  0.00    -0.029 A 
ATOM     24  C   UNL     1       2.323  -2.701  -0.069  0.00  0.00    +0.005 A 
ATOM     25  C   UNL     1       1.180  -3.365  -0.472  0.00  0.00    +0.000 A 
ATOM     26  C   UNL     1       0.040  -3.324   0.311  0.00  0.00    +0.002 A 
ATOM     27  C   UNL     1       0.042  -2.619   1.499  0.00  0.00    +0.023 A 
ATOM     28  C   UNL     1       1.192  -1.956   1.910  0.00  0.00    +0.037 A 
ENDBRANCH  18  28
ENDBRANCH   1  19
BRANCH   6  29
ATOM     29  S   UNL     1      -1.075   5.039   8.475  0.00  0.00    -0.080 S 
BRANCH  29  30
ATOM     30  C   UNL     1      -1.038   4.451  10.191  0.00  0.00    +0.115 C 
BRANCH  30  31
ATOM     31  C   UNL     1      -1.387   5.586  11.119  0.00  0.00    -0.002 A 
ATOM     32  C   UNL     1      -0.390   6.404  11.616  0.00  0.00    +0.007 A 
ATOM     33  C   UNL     1      -0.709   7.445  12.467  0.00  0.00    +0.000 A 
ATOM     34  C   UNL     1      -2.027   7.669  12.822  0.00  0.00    +0.003 A 
ATOM     35  C   UNL     1      -3.025   6.853  12.326  0.00  0.00    +0.038 A 
ATOM     36  C   UNL     1      -2.707   5.813  11.469  0.00  0.00    +0.127 A 
ATOM     37  F   UNL     1      -3.683   5.018  10.980  0.00  0.00    -0.205 F 
ENDBRANCH  30  31
ENDBRANCH  29  30
ENDBRANCH   6  29
TORSDOF 6
