REMARK  Name = ZINC26203212
REMARK  7 active torsions:
REMARK  status: ('A' for Active; 'I' for Inactive)
REMARK    1  A    between atoms: C_1  and  C_2
REMARK    2  A    between atoms: C_2  and  C_4
REMARK    3  A    between atoms: C_2  and  N_17
REMARK    4  A    between atoms: N_6  and  C_7
REMARK    5  A    between atoms: C_12  and  N_13
REMARK    6  A    between atoms: N_20  and  S_23
REMARK    7  A    between atoms: S_23  and  C_26
REMARK                            x       y       z     vdW  Elec       q    Type
REMARK                         _______ _______ _______ _____ _____    ______ ____
ROOT
ATOM      1  N   UNL     1      -3.262  -2.531   0.069  0.00  0.00    +0.389 N 
ATOM      2  C   UNL     1      -2.350  -2.952  -1.003  0.00  0.00    -0.060 C 
ATOM      3  C   UNL     1      -1.901  -4.395  -0.749  0.00  0.00    +0.091 C 
ATOM      4  N   UNL     1      -3.097  -5.235  -0.585  0.00  0.00    -0.180 NA
ATOM      5  C   UNL     1      -4.124  -4.803   0.375  0.00  0.00    +0.091 C 
ATOM      6  C   UNL     1      -4.486  -3.344   0.077  0.00  0.00    -0.060 C 
ATOM      7  H   UNL     1      -2.748  -2.691   1.028  0.00  0.00    -0.081 HD
ENDROOT
BRANCH   4   8
ATOM      8  S   UNL     1      -3.283  -6.630  -1.458  0.00  0.00    +0.066 S 
ATOM      9  O   UNL     1      -1.978  -7.054  -1.828  0.00  0.00    -0.153 OA
ATOM     10  O   UNL     1      -4.171  -7.457  -0.718  0.00  0.00    -0.153 OA
BRANCH   8  11
ATOM     11  C   UNL     1      -4.116  -6.204  -2.950  0.00  0.00    +0.175 A 
ATOM     12  C   UNL     1      -5.499  -6.236  -3.005  0.00  0.00    +0.152 A 
ATOM     13  C   UNL     1      -6.153  -5.897  -4.178  0.00  0.00    +0.040 A 
ATOM     14  C   UNL     1      -5.426  -5.536  -5.296  0.00  0.00    +0.006 A 
ATOM     15  C   UNL     1      -4.045  -5.509  -5.244  0.00  0.00    +0.040 A 
ATOM     16  C   UNL     1      -3.389  -5.843  -4.071  0.00  0.00    +0.152 A 
ATOM     17  F   UNL     1      -2.039  -5.817  -4.021  0.00  0.00    -0.203 F 
ATOM     18  F   UNL     1      -6.210  -6.593  -1.913  0.00  0.00    -0.203 F 
ENDBRANCH   8  11
ENDBRANCH   4   8
BRANCH   1  20
ATOM     19  C   UNL     1      -4.235  -0.828  -1.398  0.00  0.00    -0.004 C 
ATOM     20  C   UNL     1      -3.581  -1.101  -0.042  0.00  0.00    +0.017 C 
BRANCH  20  21
ATOM     21  C   UNL     1      -2.314  -0.294   0.076  0.00  0.00    +0.203 C 
ATOM     22  O   UNL     1      -1.250  -0.855   0.237  0.00  0.00    -0.277 OA
ATOM     23  N   UNL     1      -2.362   1.051   0.003  0.00  0.00    -0.285 N 
ATOM     24  H   UNL     1      -3.334   1.564  -0.056  0.00  0.00    +0.155 HD
BRANCH  23  25
ATOM     25  C   UNL     1      -1.177   1.795   0.001  0.00  0.00    +0.064 A 
ATOM     26  C   UNL     1      -0.043   1.296  -0.626  0.00  0.00    +0.027 A 
ATOM     27  C   UNL     1       1.124   2.034  -0.630  0.00  0.00    +0.022 A 
ATOM     28  C   UNL     1       1.165   3.269  -0.006  0.00  0.00    +0.043 A 
ATOM     29  C   UNL     1       0.039   3.766   0.624  0.00  0.00    +0.054 A 
ATOM     30  C   UNL     1      -1.131   3.031   0.631  0.00  0.00    +0.149 A 
ATOM     31 CL   UNL     1       2.634   4.195  -0.014  0.00  0.00    -0.083 Cl
BRANCH  30  32
ATOM     32  N   UNL     1      -2.336   3.564   1.305  0.00  0.00    +0.058 N 
ATOM     33  O   UNL     1      -2.273   4.608   1.930  0.00  0.00    -0.126 OA
ATOM     34  O   UNL     1      -3.391   2.959   1.235  0.00  0.00    -0.126 OA
ENDBRANCH  30  32
ENDBRANCH  23  25
ENDBRANCH  20  21
ENDBRANCH   1  20
TORSDOF 6
