REMARK  Name = ZINC05146061
REMARK  8 active torsions:
REMARK  status: ('A' for Active; 'I' for Inactive)
REMARK    1  A    between atoms: C_1  and  C_2
REMARK    2  A    between atoms: C_2  and  O_3
REMARK    3  A    between atoms: O_3  and  C_4
REMARK    4  A    between atoms: C_7  and  C_10
REMARK    5  A    between atoms: N_12  and  C_13
REMARK    6  A    between atoms: C_14  and  C_23
REMARK    7  A    between atoms: C_26  and  O_28
REMARK    8  A    between atoms: O_28  and  C_29
REMARK                            x       y       z     vdW  Elec       q    Type
REMARK                         _______ _______ _______ _____ _____    ______ ____
ROOT
ATOM      1  C   UNL     1       4.354  -1.687   1.453  0.00  0.00    +0.085 A 
ATOM      2  C   UNL     1       2.999  -1.642   1.746  0.00  0.00    +0.069 A 
ATOM      3  C   UNL     1       2.179  -0.684   1.016  0.00  0.00    -0.023 A 
ATOM      4  C   UNL     1       2.846   0.061   0.110  0.00  0.00    -0.004 A 
ATOM      5  S   UNL     1       4.530  -0.479   0.224  0.00  0.00    -0.077 S 
ATOM      6  C   UNL     1       2.288   1.105  -0.807  0.00  0.00    +0.043 C 
ATOM      7  C   UNL     1       1.406   2.067  -0.000  0.00  0.00    +0.005 C 
ATOM      8  C   UNL     1      -0.019   1.523   0.010  0.00  0.00    +0.001 C 
ATOM      9  C   UNL     1       0.002  -0.004   0.002  0.00  0.00    +0.005 C 
ATOM     10  C   UNL     1       0.683  -0.535   1.259  0.00  0.00    +0.037 C 
ENDROOT
BRANCH   2  11
ATOM     11  C   UNL     1       2.413  -2.527   2.756  0.00  0.00    +0.255 C 
ATOM     12  O   UNL     1       1.984  -3.619   2.433  0.00  0.00    -0.270 OA
ATOM     13  N   UNL     1       2.347  -2.131   4.043  0.00  0.00    -0.217 N 
ATOM     14  C   UNL     1       1.808  -2.945   4.971  0.00  0.00    +0.407 C 
ATOM     15  O   UNL     1       1.380  -4.035   4.649  0.00  0.00    -0.226 OA
ATOM     16  H   UNL     1       2.689  -1.260   4.300  0.00  0.00    +0.161 HD
BRANCH  14  17
ATOM     17  O   UNL     1       1.743  -2.550   6.257  0.00  0.00    -0.453 OA
ATOM     18  C   UNL     1       1.149  -3.478   7.202  0.00  0.00    +0.282 C 
ENDBRANCH  14  17
ENDBRANCH   2  11
BRANCH   1  21
ATOM     19  C   UNL     1       6.606  -2.400   1.591  0.00  0.00    +0.249 C 
ATOM     20  O   UNL     1       6.904  -1.597   0.728  0.00  0.00    -0.270 OA
ATOM     21  N   UNL     1       5.329  -2.500   2.007  0.00  0.00    -0.275 N 
ATOM     22  H   UNL     1       5.092  -3.141   2.696  0.00  0.00    +0.156 HD
BRANCH  19  26
ATOM     23  C   UNL     1       9.595  -4.892   3.291  0.00  0.00    +0.121 A 
ATOM     24  C   UNL     1       9.937  -3.974   2.305  0.00  0.00    +0.046 A 
ATOM     25  C   UNL     1       8.971  -3.164   1.751  0.00  0.00    +0.016 A 
ATOM     26  C   UNL     1       7.645  -3.266   2.181  0.00  0.00    +0.037 A 
ATOM     27  C   UNL     1       7.306  -4.187   3.177  0.00  0.00    +0.016 A 
ATOM     28  C   UNL     1       8.277  -4.997   3.722  0.00  0.00    +0.046 A 
BRANCH  23  29
ATOM     29  O   UNL     1      10.550  -5.688   3.835  0.00  0.00    -0.492 OA
BRANCH  29  31
ATOM     30  C   UNL     1      11.336  -7.413   5.334  0.00  0.00    +0.048 C 
ATOM     31  C   UNL     1      10.130  -6.609   4.844  0.00  0.00    +0.225 C 
ENDBRANCH  29  31
ENDBRANCH  23  29
ENDBRANCH  19  26
ENDBRANCH   1  21
TORSDOF 6
