REMARK  Name = ZINC20907760
REMARK  11 active torsions:
REMARK  status: ('A' for Active; 'I' for Inactive)
REMARK    1  A    between atoms: C_1  and  C_2
REMARK    2  A    between atoms: C_2  and  C_34
REMARK    3  A    between atoms: C_4  and  N_10
REMARK    4  A    between atoms: C_6  and  C_8
REMARK    5  A    between atoms: C_6  and  C_9
REMARK    6  A    between atoms: C_11  and  C_13
REMARK    7  A    between atoms: C_13  and  S_14
REMARK    8  A    between atoms: S_14  and  C_15
REMARK    9  A    between atoms: N_20  and  N_21
REMARK   10  A    between atoms: C_22  and  C_23
REMARK   11  A    between atoms: C_32  and  O_33
REMARK                            x       y       z     vdW  Elec       q    Type
REMARK                         _______ _______ _______ _____ _____    ______ ____
ROOT
ATOM      1  C   UNL     1      -3.234  11.553   0.094  0.00  0.00    +0.211 A 
ATOM      2  N   UNL     1      -3.664  10.256   0.091  0.00  0.00    -0.186 NA
ATOM      3  C   UNL     1      -2.563   9.445   0.076  0.00  0.00    +0.232 A 
ATOM      4  N   UNL     1      -1.498  10.209   0.076  0.00  0.00    -0.245 N 
ATOM      5  N   UNL     1      -1.922  11.544   0.082  0.00  0.00    -0.144 NA
ATOM      6  N   UNL     1      -2.573   8.059   0.069  0.00  0.00    -0.205 N 
ATOM      7  H   UNL     1      -3.529   7.515   0.075  0.00  0.00    +0.177 HD
ATOM      8  H   UNL     1      -0.496   9.755   0.072  0.00  0.00    +0.192 HD
ENDROOT
BRANCH   6   9
ATOM      9  N   UNL     1      -1.364   7.350   0.054  0.00  0.00    -0.187 NA
ATOM     10  C   UNL     1      -1.373   6.050   0.047  0.00  0.00    +0.142 C 
BRANCH  10  11
ATOM     11  C   UNL     1      -0.105   5.307   0.032  0.00  0.00    +0.044 A 
ATOM     12  C   UNL     1      -0.096   3.845   0.024  0.00  0.00    -0.006 A 
ATOM     13  C   UNL     1      -1.286   3.107   0.031  0.00  0.00    +0.009 A 
ATOM     14  C   UNL     1      -1.234   1.745   0.017  0.00  0.00    +0.001 A 
ATOM     15  C   UNL     1      -0.013   1.076   0.008  0.00  0.00    +0.001 A 
ATOM     16  C   UNL     1       1.163   1.762   0.000  0.00  0.00    +0.008 A 
ATOM     17  C   UNL     1       1.148   3.168   0.008  0.00  0.00    -0.017 A 
ATOM     18  C   UNL     1       2.341   3.910   0.000  0.00  0.00    +0.012 A 
ATOM     19  C   UNL     1       2.315   5.270   0.009  0.00  0.00    +0.046 A 
ATOM     20  C   UNL     1       1.116   5.981   0.023  0.00  0.00    +0.126 A 
BRANCH  20  21
ATOM     21  O   UNL     1       1.137   7.339   0.030  0.00  0.00    -0.506 OA
ATOM     22  H   UNL     1       2.098   7.874   0.024  0.00  0.00    +0.292 HD
ENDBRANCH  20  21
ENDBRANCH  10  11
ENDBRANCH   6   9
BRANCH   1  23
ATOM     23  S   UNL     1      -4.260  12.985   0.112  0.00  0.00    -0.075 S 
BRANCH  23  24
ATOM     24  C   UNL     1      -3.085  14.367   0.109  0.00  0.00    +0.173 C 
BRANCH  24  26
ATOM     25  N   UNL     1      -3.171  16.839   0.124  0.00  0.00    -0.312 N 
ATOM     26  C   UNL     1      -3.842  15.670   0.123  0.00  0.00    +0.224 C 
ATOM     27  O   UNL     1      -5.055  15.666   0.135  0.00  0.00    -0.275 OA
ATOM     28  H   UNL     1      -2.072  16.842   0.114  0.00  0.00    +0.149 HD
BRANCH  25  32
ATOM     29  C   UNL     1      -4.816  20.533   1.866  0.00  0.00    -0.010 C 
ATOM     30  C   UNL     1      -3.761  20.535   0.754  0.00  0.00    -0.072 C 
ATOM     31  C   UNL     1      -3.025  19.197   0.746  0.00  0.00    +0.009 C 
ATOM     32  C   UNL     1      -3.909  18.108   0.138  0.00  0.00    +0.070 C 
ATOM     33  C   UNL     1      -4.253  18.507  -1.297  0.00  0.00    +0.009 C 
ATOM     34  C   UNL     1      -5.002  19.837  -1.315  0.00  0.00    -0.072 C 
ATOM     35  N   UNL     1      -4.351  20.863  -0.527  0.00  0.00    +0.386 N 
ATOM     36  C   UNL     1      -6.447  19.618  -0.853  0.00  0.00    -0.010 C 
ATOM     37  C   UNL     1      -5.058  20.319  -2.782  0.00  0.00    -0.010 C 
ATOM     38  C   UNL     1      -2.729  21.631   1.105  0.00  0.00    -0.010 C 
ATOM     39  H   UNL     1      -5.134  21.623  -0.386  0.00  0.00    -0.084 HD
ATOM     40  H   UNL     1      -3.574  21.257  -1.198  0.00  0.00    -0.084 HD
ENDBRANCH  25  32
ENDBRANCH  24  26
ENDBRANCH  23  24
ENDBRANCH   1  23
TORSDOF 7
