REMARK  Name = ZINC12427336
REMARK  7 active torsions:
REMARK  status: ('A' for Active; 'I' for Inactive)
REMARK    1  A    between atoms: C_1  and  C_2
REMARK    2  A    between atoms: C_2  and  C_4
REMARK    3  A    between atoms: C_2  and  S_16
REMARK    4  A    between atoms: C_4  and  C_6
REMARK    5  A    between atoms: S_16  and  C_17
REMARK    6  A    between atoms: N_30  and  C_31
REMARK    7  A    between atoms: C_31  and  C_32
REMARK                            x       y       z     vdW  Elec       q    Type
REMARK                         _______ _______ _______ _____ _____    ______ ____
ROOT
ATOM      1  C   UNL     1       3.978   2.041  -0.813  0.00  0.00    +0.198 A 
ATOM      2  N   UNL     1       4.007   3.289  -0.414  0.00  0.00    -0.120 NA
ATOM      3  N   UNL     1       5.296   3.787  -0.641  0.00  0.00    -0.109 NA
ATOM      4  C   UNL     1       6.015   2.828  -1.181  0.00  0.00    +0.240 A 
ATOM      5  N   UNL     1       5.217   1.723  -1.301  0.00  0.00    -0.256 N 
ATOM      6  C   UNL     1       5.718   0.543  -1.847  0.00  0.00    +0.064 A 
ATOM      7  C   UNL     1       4.918  -0.582  -1.972  0.00  0.00    +0.027 A 
ATOM      8  C   UNL     1       5.440  -1.739  -2.515  0.00  0.00    +0.002 A 
ATOM      9  C   UNL     1       6.759  -1.787  -2.937  0.00  0.00    +0.001 A 
ATOM     10  C   UNL     1       7.569  -0.678  -2.820  0.00  0.00    +0.015 A 
ATOM     11  C   UNL     1       7.054   0.496  -2.273  0.00  0.00    +0.064 A 
ATOM     12  C   UNL     1       7.887   1.704  -2.130  0.00  0.00    +0.263 A 
ATOM     13  O   UNL     1       9.050   1.700  -2.489  0.00  0.00    -0.267 OA
ATOM     14  N   UNL     1       7.339   2.813  -1.594  0.00  0.00    -0.273 N 
ENDROOT
BRANCH   1  15
ATOM     15  S   UNL     1       2.586   0.963  -0.740  0.00  0.00    -0.074 S 
BRANCH  15  17
ATOM     16  C   UNL     1       1.668   2.342   1.436  0.00  0.00    +0.028 C 
ATOM     17  C   UNL     1       1.280   1.981   0.001  0.00  0.00    +0.122 C 
BRANCH  17  18
ATOM     18  C   UNL     1      -0.014   1.210   0.009  0.00  0.00    +0.178 C 
ATOM     19  O   UNL     1       0.002  -0.004   0.002  0.00  0.00    -0.291 OA
BRANCH  18  20
ATOM     20  C   UNL     1      -1.251   1.902   0.018  0.00  0.00    +0.043 A 
ATOM     21  C   UNL     1      -1.436   3.268   0.026  0.00  0.00    +0.095 A 
ATOM     22  N   UNL     1      -2.753   3.546   0.034  0.00  0.00    -0.360 N 
ATOM     23  H   UNL     1      -3.128   4.441   0.041  0.00  0.00    +0.165 HD
ATOM     24  C   UNL     1      -3.498   2.384   0.032  0.00  0.00    +0.047 A 
ATOM     25  C   UNL     1      -2.601   1.304   0.015  0.00  0.00    +0.010 A 
ATOM     26  C   UNL     1      -3.080  -0.002   0.017  0.00  0.00    +0.011 A 
ATOM     27  C   UNL     1      -4.439  -0.231   0.022  0.00  0.00    +0.001 A 
ATOM     28  C   UNL     1      -5.327   0.835   0.032  0.00  0.00    +0.002 A 
ATOM     29  C   UNL     1      -4.866   2.133   0.037  0.00  0.00    +0.026 A 
ENDBRANCH  18  20
ENDBRANCH  17  18
ENDBRANCH  15  17
ENDBRANCH   1  15
BRANCH  14  30
ATOM     30  C   UNL     1       8.154   4.021  -1.445  0.00  0.00    +0.155 C 
BRANCH  30  31
ATOM     31  C   UNL     1       8.833   4.007  -0.100  0.00  0.00    -0.013 C 
ATOM     32  C   UNL     1      10.135   4.127  -0.022  0.00  0.00    +0.005 C 
ENDBRANCH  30  31
ENDBRANCH  14  30
TORSDOF 6
