REMARK  Name = ZINC64380737
REMARK  9 active torsions:
REMARK  status: ('A' for Active; 'I' for Inactive)
REMARK    1  A    between atoms: C_1  and  C_2
REMARK    2  A    between atoms: C_7  and  O_32
REMARK    3  A    between atoms: C_13  and  C_15
REMARK    4  A    between atoms: C_15  and  C_16
REMARK    5  A    between atoms: N_18  and  C_19
REMARK    6  A    between atoms: C_19  and  C_21
REMARK    7  A    between atoms: C_19  and  C_22
REMARK    8  A    between atoms: C_22  and  C_23
REMARK    9  A    between atoms: O_32  and  C_33
REMARK                            x       y       z     vdW  Elec       q    Type
REMARK                         _______ _______ _______ _____ _____    ______ ____
ROOT
ATOM      1  C   UNL     1       1.113  -0.147   3.667  0.00  0.00    +0.214 C 
ATOM      2  O   UNL     1       1.980  -0.986   3.541  0.00  0.00    -0.276 OA
ATOM      3  N   UNL     1       0.886   0.412   4.872  0.00  0.00    -0.312 N 
ATOM      4  H   UNL     1       0.193   1.083   4.973  0.00  0.00    +0.149 HD
ENDROOT
BRANCH   3   5
ATOM      5  C   UNL     1       1.686   0.006   6.030  0.00  0.00    +0.074 C 
ATOM      6  C   UNL     1       2.984   0.816   6.062  0.00  0.00    +0.028 C 
BRANCH   5   7
ATOM      7  C   UNL     1       0.893   0.262   7.313  0.00  0.00    +0.055 C 
BRANCH   7   8
ATOM      8  C   UNL     1      -0.323  -0.627   7.338  0.00  0.00    -0.040 C 
ATOM      9  C   UNL     1      -0.438  -1.831   7.943  0.00  0.00    -0.001 A 
ATOM     10  C   UNL     1       0.499  -2.643   8.728  0.00  0.00    +0.010 A 
ATOM     11  C   UNL     1       0.086  -3.836   9.214  0.00  0.00    +0.001 A 
ATOM     12  C   UNL     1      -1.212  -4.314   8.988  0.00  0.00    +0.002 A 
ATOM     13  C   UNL     1      -2.129  -3.625   8.277  0.00  0.00    +0.026 A 
ATOM     14  C   UNL     1      -1.803  -2.359   7.719  0.00  0.00    +0.043 A 
ATOM     15  N   UNL     1      -2.505  -1.514   7.003  0.00  0.00    -0.380 N 
ATOM     16  C   UNL     1      -1.665  -0.350   6.697  0.00  0.00    +0.144 C 
ATOM     17  H   UNL     1      -3.426  -1.635   6.726  0.00  0.00    +0.160 HD
ENDBRANCH   7   8
ENDBRANCH   5   7
ENDBRANCH   3   5
BRANCH   1  18
ATOM     18  C   UNL     1       0.290   0.270   2.476  0.00  0.00    +0.111 C 
BRANCH  18  30
ATOM     19  C   UNL     1      -0.019   1.526   0.010  0.00  0.00    +0.013 C 
ATOM     20  C   UNL     1       0.002  -0.004   0.002  0.00  0.00    +0.034 C 
ATOM     21  C   UNL     1      -1.413  -0.524   0.009  0.00  0.00    +0.000 A 
ATOM     22  C   UNL     1      -2.362   0.134  -0.759  0.00  0.00    +0.031 A 
ATOM     23  C   UNL     1      -3.668  -0.311  -0.790  0.00  0.00    +0.083 A 
ATOM     24  C   UNL     1      -4.039  -1.425  -0.048  0.00  0.00    +0.142 A 
ATOM     25  C   UNL     1      -3.095  -2.083   0.722  0.00  0.00    +0.093 A 
ATOM     26  C   UNL     1      -1.781  -1.631   0.754  0.00  0.00    +0.139 A 
ATOM     27  O   UNL     1      -0.889  -2.295   1.540  0.00  0.00    -0.425 OA
ATOM     28  C   UNL     1       0.414  -1.979   1.408  0.00  0.00    +0.316 C 
ATOM     29  O   UNL     1       1.276  -2.826   1.423  0.00  0.00    -0.250 OA
ATOM     30  C   UNL     1       0.747  -0.510   1.241  0.00  0.00    +0.114 C 
ATOM     31 CL   UNL     1      -4.847   0.523  -1.754  0.00  0.00    -0.080 Cl
BRANCH  24  32
ATOM     32  O   UNL     1      -5.324  -1.867  -0.078  0.00  0.00    -0.494 OA
ATOM     33  C   UNL     1      -5.632  -3.019   0.710  0.00  0.00    +0.277 C 
ENDBRANCH  24  32
ENDBRANCH  18  30
ENDBRANCH   1  18
TORSDOF 6
