REMARK  Name = ZINC51583381
REMARK  7 active torsions:
REMARK  status: ('A' for Active; 'I' for Inactive)
REMARK    1  A    between atoms: C_1  and  C_2
REMARK    2  A    between atoms: C_2  and  C_3
REMARK    3  A    between atoms: C_3  and  C_4
REMARK    4  A    between atoms: C_4  and  C_6
REMARK    5  A    between atoms: C_4  and  N_7
REMARK    6  A    between atoms: C_8  and  C_10
REMARK    7  A    between atoms: N_19  and  C_20
REMARK                            x       y       z     vdW  Elec       q    Type
REMARK                         _______ _______ _______ _____ _____    ______ ____
ROOT
ATOM      1  C   UNL     1       0.977  -4.207   2.622  0.00  0.00    +0.092 C 
ATOM      2  C   UNL     1       1.315  -5.682   2.397  0.00  0.00    +0.016 C 
ATOM      3  C   UNL     1       1.738  -6.319   3.723  0.00  0.00    +0.020 C 
ATOM      4  C   UNL     1       0.576  -6.236   4.718  0.00  0.00    +0.109 C 
ATOM      5  N   UNL     1       0.149  -4.834   4.830  0.00  0.00    -0.285 N 
ATOM      6  C   UNL     1      -0.193  -4.099   3.605  0.00  0.00    +0.122 C 
ATOM      7  C   UNL     1       0.073  -4.234   6.035  0.00  0.00    +0.307 C 
ATOM      8  O   UNL     1      -0.191  -3.050   6.108  0.00  0.00    -0.252 OA
ATOM      9  N   UNL     1       0.290  -4.947   7.158  0.00  0.00    -0.267 N 
ATOM     10  H   UNL     1       0.565  -5.875   7.097  0.00  0.00    +0.156 HD
ENDROOT
BRANCH   9  11
ATOM     11  C   UNL     1       0.118  -4.347   8.413  0.00  0.00    +0.073 A 
ATOM     12  C   UNL     1      -0.614  -3.173   8.528  0.00  0.00    +0.029 A 
ATOM     13  C   UNL     1      -0.783  -2.582   9.765  0.00  0.00    +0.043 A 
ATOM     14  C   UNL     1      -0.223  -3.158  10.892  0.00  0.00    +0.161 A 
ATOM     15  C   UNL     1       0.510  -4.330  10.782  0.00  0.00    +0.195 A 
ATOM     16  C   UNL     1       0.676  -4.929   9.545  0.00  0.00    +0.182 A 
ATOM     17  F   UNL     1       1.384  -6.074   9.437  0.00  0.00    -0.200 F 
ATOM     18  F   UNL     1       1.056  -4.891  11.883  0.00  0.00    -0.199 F 
ATOM     19  F   UNL     1      -0.389  -2.577  12.100  0.00  0.00    -0.202 F 
ENDBRANCH   9  11
BRANCH   1  21
ATOM     20  N   UNL     1       0.250  -2.270   1.266  0.00  0.00    -0.312 N 
ATOM     21  C   UNL     1       0.591  -3.573   1.310  0.00  0.00    +0.218 C 
ATOM     22  O   UNL     1       0.589  -4.236   0.294  0.00  0.00    -0.275 OA
ATOM     23  H   UNL     1       0.252  -1.740   2.078  0.00  0.00    +0.149 HD
BRANCH  20  24
ATOM     24  C   UNL     1      -0.125  -1.654  -0.010  0.00  0.00    +0.070 C 
ATOM     25  C   UNL     1      -1.611  -1.902  -0.279  0.00  0.00    +0.028 C 
BRANCH  24  26
ATOM     26  C   UNL     1       0.138  -0.148   0.055  0.00  0.00    +0.022 C 
BRANCH  26  28
ATOM     27  C   UNL     1       1.903   1.608   0.264  0.00  0.00    +0.004 C 
ATOM     28  C   UNL     1       1.640   0.102   0.199  0.00  0.00    -0.002 C 
ENDBRANCH  26  28
ENDBRANCH  24  26
ENDBRANCH  20  24
ENDBRANCH   1  21
TORSDOF 5
