REMARK  Name = ZINC05442990
REMARK  4 active torsions:
REMARK  status: ('A' for Active; 'I' for Inactive)
REMARK    1  A    between atoms: C_1  and  C_2
REMARK    2  A    between atoms: C_5  and  C_8
REMARK    3  A    between atoms: C_11  and  C_13
REMARK    4  A    between atoms: C_18  and  C_25
REMARK                            x       y       z     vdW  Elec       q    Type
REMARK                         _______ _______ _______ _____ _____    ______ ____
ROOT
ATOM      1  C   UNL     1      -0.101  -7.217   2.249  0.00  0.00    +0.117 C 
ATOM      2  C   UNL     1      -1.310  -8.100   2.085  0.00  0.00    +0.081 C 
ATOM      3  N   UNL     1      -1.257  -9.194   1.382  0.00  0.00    -0.340 N 
ATOM      4  C   UNL     1      -0.117  -9.616   0.804  0.00  0.00    +0.099 C 
ATOM      5  C   UNL     1       1.103  -9.103   1.192  0.00  0.00    +0.067 C 
ATOM      6  C   UNL     1       1.160  -8.082   2.301  0.00  0.00    +0.023 C 
ATOM      7  C   UNL     1       1.234  -8.797   3.651  0.00  0.00    +0.013 C 
ATOM      8  C   UNL     1       1.289  -7.760   4.775  0.00  0.00    +0.001 C 
ATOM      9  C   UNL     1       2.526  -6.878   4.595  0.00  0.00    +0.000 C 
ATOM     10  C   UNL     1       2.450  -6.162   3.244  0.00  0.00    +0.001 C 
ATOM     11  C   UNL     1       2.395  -7.199   2.120  0.00  0.00    +0.013 C 
ATOM     12  S   UNL     1      -0.184 -10.838  -0.464  0.00  0.00    -0.032 SA
ATOM     13  N   UNL     1      -2.480  -7.747   2.684  0.00  0.00    -0.347 N 
ATOM     14  H   UNL     1      -2.530  -6.934   3.210  0.00  0.00    +0.143 HD
ATOM     15  H   UNL     1      -3.265  -8.309   2.585  0.00  0.00    +0.143 HD
ATOM     16  H   UNL     1      -2.063  -9.722   1.272  0.00  0.00    +0.167 HD
ENDROOT
BRANCH   1  20
ATOM     17  C   UNL     1       0.059  -4.256  -0.021  0.00  0.00    +0.078 A 
ATOM     18  C   UNL     1       0.170  -4.968  -1.185  0.00  0.00    +0.075 A 
ATOM     19  S   UNL     1       0.137  -6.638  -0.553  0.00  0.00    -0.079 S 
ATOM     20  C   UNL     1      -0.011  -6.268   1.081  0.00  0.00    +0.090 A 
ATOM     21  N   UNL     1      -0.024  -4.960   1.098  0.00  0.00    -0.243 NA
BRANCH  17  26
ATOM     22  C   UNL     1      -0.018   1.503   0.010  0.00  0.00    +0.044 C 
ATOM     23  C   UNL     1       0.002  -0.004   0.002  0.00  0.00    -0.050 A 
ATOM     24  C   UNL     1       0.006  -0.686  -1.201  0.00  0.00    +0.004 A 
ATOM     25  C   UNL     1       0.024  -2.066  -1.215  0.00  0.00    +0.010 A 
ATOM     26  C   UNL     1       0.040  -2.772  -0.013  0.00  0.00    +0.001 A 
ATOM     27  C   UNL     1       0.036  -2.079   1.196  0.00  0.00    +0.010 A 
ATOM     28  C   UNL     1       0.023  -0.700   1.198  0.00  0.00    +0.004 A 
ENDBRANCH  17  26
ENDBRANCH   1  20
BRANCH   5  29
ATOM     29  C   UNL     1       2.307  -9.537   0.549  0.00  0.00    +0.098 C 
ATOM     30  N   UNL     1       3.261  -9.882   0.038  0.00  0.00    -0.191 NA
ENDBRANCH   5  29
TORSDOF 3
