REMARK  Name = ZINC35592570
REMARK  14 active torsions:
REMARK  status: ('A' for Active; 'I' for Inactive)
REMARK    1  A    between atoms: C_1  and  C_2
REMARK    2  A    between atoms: C_2  and  C_40
REMARK    3  A    between atoms: C_7  and  C_23
REMARK    4  A    between atoms: C_7  and  O_31
REMARK    5  A    between atoms: C_9  and  O_14
REMARK    6  A    between atoms: O_14  and  C_15
REMARK    7  A    between atoms: C_15  and  C_16
REMARK    8  A    between atoms: N_25  and  C_26
REMARK    9  A    between atoms: C_26  and  C_27
REMARK   10  A    between atoms: C_27  and  N_28
REMARK   11  A    between atoms: N_28  and  C_29
REMARK   12  A    between atoms: N_28  and  C_30
REMARK   13  A    between atoms: O_31  and  C_32
REMARK   14  A    between atoms: C_32  and  C_33
REMARK                            x       y       z     vdW  Elec       q    Type
REMARK                         _______ _______ _______ _____ _____    ______ ____
ROOT
ATOM      1  C   UNL     1      -0.056   1.664  -0.606  0.00  0.00    +0.074 C 
ATOM      2  C   UNL     1      -0.026   0.146  -0.420  0.00  0.00    +0.165 C 
ATOM      3  O   UNL     1       0.683  -0.465  -1.520  0.00  0.00    -0.343 OA
ATOM      4  C   UNL     1       2.023  -0.611  -1.015  0.00  0.00    +0.156 C 
ATOM      5  C   UNL     1       2.846  -1.607  -1.783  0.00  0.00    +0.079 C 
ATOM      6  C   UNL     1       2.337  -3.029  -1.681  0.00  0.00    +0.150 C 
ATOM      7  C   UNL     1       2.065  -3.448  -0.253  0.00  0.00    +0.079 C 
ATOM      8  C   UNL     1       1.214  -2.453   0.502  0.00  0.00    +0.153 C 
ATOM      9  C   UNL     1       1.765  -1.050   0.440  0.00  0.00    +0.179 C 
ATOM     10  O   UNL     1       0.657  -0.178   0.802  0.00  0.00    -0.341 OA
ATOM     11  C   UNL     1      -1.456  -0.395  -0.369  0.00  0.00    +0.074 C 
ENDROOT
BRANCH   6  12
ATOM     12  C   UNL     1       3.364  -3.958  -2.275  0.00  0.00    +0.245 C 
ATOM     13  O   UNL     1       4.527  -3.619  -2.332  0.00  0.00    -0.273 OA
ATOM     14  N   UNL     1       2.990  -5.166  -2.742  0.00  0.00    -0.315 N 
ATOM     15  H   UNL     1       2.051  -5.409  -2.760  0.00  0.00    +0.149 HD
BRANCH  14  16
ATOM     16  C   UNL     1       4.001  -6.111  -3.220  0.00  0.00    +0.086 C 
BRANCH  16  17
ATOM     17  C   UNL     1       3.316  -7.396  -3.692  0.00  0.00    -0.061 C 
BRANCH  17  18
ATOM     18  N   UNL     1       4.330  -8.344  -4.172  0.00  0.00    +0.377 N 
ATOM     19  C   UNL     1       5.190  -8.750  -3.052  0.00  0.00    -0.097 C 
ATOM     20  C   UNL     1       3.667  -9.527  -4.735  0.00  0.00    -0.097 C 
ATOM     21  H   UNL     1       4.893  -7.902  -4.885  0.00  0.00    -0.083 HD
ENDBRANCH  17  18
ENDBRANCH  16  17
ENDBRANCH  14  16
ENDBRANCH   6  12
BRANCH   8  22
ATOM     22  O   UNL     1       1.135  -2.859   1.869  0.00  0.00    -0.369 OA
BRANCH  22  23
ATOM     23  C   UNL     1       0.039  -3.730   2.155  0.00  0.00    +0.198 C 
BRANCH  23  24
ATOM     24  C   UNL     1       0.053  -4.093   3.617  0.00  0.00    +0.013 A 
ATOM     25  C   UNL     1       1.034  -3.583   4.447  0.00  0.00    +0.009 A 
ATOM     26  C   UNL     1       1.048  -3.916   5.788  0.00  0.00    +0.001 A 
ATOM     27  C   UNL     1       0.080  -4.759   6.302  0.00  0.00    +0.003 A 
ATOM     28  C   UNL     1      -0.903  -5.269   5.475  0.00  0.00    +0.039 A 
ATOM     29  C   UNL     1      -0.920  -4.933   4.132  0.00  0.00    +0.129 A 
ATOM     30  F   UNL     1      -1.883  -5.427   3.323  0.00  0.00    -0.205 F 
ENDBRANCH  23  24
ENDBRANCH  22  23
ENDBRANCH   8  22
BRANCH   6  31
ATOM     31  O   UNL     1       1.127  -3.141  -2.433  0.00  0.00    -0.359 OA
BRANCH  31  32
ATOM     32  C   UNL     1       1.280  -2.861  -3.826  0.00  0.00    +0.196 C 
BRANCH  32  33
ATOM     33  C   UNL     1      -0.016  -3.143  -4.541  0.00  0.00    -0.019 A 
ATOM     34  C   UNL     1      -0.264  -4.403  -5.052  0.00  0.00    +0.006 A 
ATOM     35  C   UNL     1      -1.453  -4.663  -5.708  0.00  0.00    +0.003 A 
ATOM     36  C   UNL     1      -2.395  -3.662  -5.854  0.00  0.00    +0.038 A 
ATOM     37  C   UNL     1      -2.148  -2.399  -5.343  0.00  0.00    +0.124 A 
ATOM     38  C   UNL     1      -0.959  -2.142  -4.680  0.00  0.00    +0.044 A 
ATOM     39  F   UNL     1      -3.068  -1.420  -5.485  0.00  0.00    -0.205 F 
ENDBRANCH  32  33
ENDBRANCH  31  32
ENDBRANCH   6  31
TORSDOF 10
