REMARK  Name = ZINC40986357
REMARK  10 active torsions:
REMARK  status: ('A' for Active; 'I' for Inactive)
REMARK    1  A    between atoms: C_1  and  C_2
REMARK    2  A    between atoms: C_5  and  C_8
REMARK    3  A    between atoms: C_8  and  S_9
REMARK    4  A    between atoms: S_9  and  C_12
REMARK    5  A    between atoms: C_15  and  C_19
REMARK    6  A    between atoms: N_21  and  C_22
REMARK    7  A    between atoms: C_22  and  C_23
REMARK    8  A    between atoms: C_23  and  C_25
REMARK    9  A    between atoms: C_23  and  N_32
REMARK   10  A    between atoms: C_28  and  C_31
REMARK                            x       y       z     vdW  Elec       q    Type
REMARK                         _______ _______ _______ _____ _____    ______ ____
ROOT
ATOM      1  C   UNL     1       1.494 -10.728  -0.019  0.00  0.00    +0.248 C 
ATOM      2  O   UNL     1       1.611 -11.316  -1.077  0.00  0.00    -0.270 OA
ATOM      3  N   UNL     1       1.370 -11.424   1.129  0.00  0.00    -0.312 N 
ATOM      4  H   UNL     1       1.276 -10.955   1.972  0.00  0.00    +0.149 HD
ENDROOT
BRANCH   1   8
ATOM      5  C   UNL     1       1.472  -6.572   0.058  0.00  0.00    +0.272 A 
ATOM      6  N   UNL     1       1.350  -7.233   1.192  0.00  0.00    -0.219 NA
ATOM      7  C   UNL     1       1.351  -8.554   1.214  0.00  0.00    +0.130 A 
ATOM      8  C   UNL     1       1.486  -9.251   0.008  0.00  0.00    +0.092 A 
ATOM      9  C   UNL     1       1.613  -8.508  -1.173  0.00  0.00    +0.146 A 
ATOM     10  N   UNL     1       1.596  -7.187  -1.102  0.00  0.00    -0.199 NA
ATOM     11 CL   UNL     1       1.784  -9.307  -2.705  0.00  0.00    -0.061 Cl
BRANCH   5  12
ATOM     12  S   UNL     1       1.463  -4.810   0.092  0.00  0.00    +0.036 S 
ATOM     13  O   UNL     1       2.189  -4.421  -1.065  0.00  0.00    -0.166 OA
ATOM     14  O   UNL     1       1.931  -4.470   1.390  0.00  0.00    -0.166 OA
BRANCH  12  15
ATOM     15  C   UNL     1      -0.283  -4.350  -0.082  0.00  0.00    +0.210 C 
BRANCH  15  20
ATOM     16  C   UNL     1      -0.777   1.407  -0.019  0.00  0.00    +0.044 C 
ATOM     17  C   UNL     1      -0.648  -0.094  -0.035  0.00  0.00    -0.050 A 
ATOM     18  C   UNL     1      -0.463  -0.759  -1.233  0.00  0.00    +0.003 A 
ATOM     19  C   UNL     1      -0.345  -2.136  -1.248  0.00  0.00    +0.005 A 
ATOM     20  C   UNL     1      -0.411  -2.849  -0.066  0.00  0.00    -0.026 A 
ATOM     21  C   UNL     1      -0.595  -2.184   1.133  0.00  0.00    +0.005 A 
ATOM     22  C   UNL     1      -0.709  -0.806   1.148  0.00  0.00    +0.003 A 
ENDBRANCH  15  20
ENDBRANCH  12  15
ENDBRANCH   5  12
ENDBRANCH   1   8
BRANCH   3  23
ATOM     23  C   UNL     1       1.378 -12.889   1.101  0.00  0.00    +0.094 C 
BRANCH  23  24
ATOM     24  C   UNL     1       1.331 -13.426   2.534  0.00  0.00    -0.020 C 
BRANCH  24  25
ATOM     25  C   UNL     1       0.013 -13.058   3.165  0.00  0.00    -0.059 A 
ATOM     26  C   UNL     1      -1.117 -13.805   2.891  0.00  0.00    +0.002 A 
ATOM     27  C   UNL     1      -2.326 -13.468   3.470  0.00  0.00    +0.003 A 
ATOM     28  C   UNL     1      -2.405 -12.384   4.324  0.00  0.00    -0.050 A 
ATOM     29  C   UNL     1      -1.274 -11.637   4.599  0.00  0.00    +0.003 A 
ATOM     30  C   UNL     1      -0.064 -11.977   4.023  0.00  0.00    +0.002 A 
ATOM     31  C   UNL     1      -3.723 -12.016   4.955  0.00  0.00    +0.044 C 
ENDBRANCH  24  25
BRANCH  24  32
ATOM     32  N   UNL     1       1.474 -14.888   2.513  0.00  0.00    +0.385 N 
ATOM     33  C   UNL     1       2.800 -15.265   1.960  0.00  0.00    -0.078 C 
ATOM     34  C   UNL     1       3.020 -16.696   2.513  0.00  0.00    -0.020 C 
ATOM     35  C   UNL     1       2.420 -16.613   3.936  0.00  0.00    -0.020 C 
ATOM     36  C   UNL     1       1.445 -15.422   3.892  0.00  0.00    -0.078 C 
ATOM     37  H   UNL     1       0.736 -15.302   1.964  0.00  0.00    -0.081 HD
ENDBRANCH  24  32
ENDBRANCH  23  24
ENDBRANCH   3  23
TORSDOF 8
