REMARK  Name = ZINC36028160
REMARK  11 active torsions:
REMARK  status: ('A' for Active; 'I' for Inactive)
REMARK    1  A    between atoms: C_1  and  C_2
REMARK    2  A    between atoms: C_2  and  C_3
REMARK    3  A    between atoms: C_3  and  C_5
REMARK    4  A    between atoms: C_3  and  C_6
REMARK    5  A    between atoms: N_10  and  C_31
REMARK    6  A    between atoms: N_15  and  S_18
REMARK    7  A    between atoms: S_18  and  C_21
REMARK    8  A    between atoms: C_31  and  C_32
REMARK    9  A    between atoms: C_32  and  C_33
REMARK   10  A    between atoms: C_33  and  O_34
REMARK   11  A    between atoms: O_34  and  C_35
REMARK                            x       y       z     vdW  Elec       q    Type
REMARK                         _______ _______ _______ _____ _____    ______ ____
ROOT
ATOM      1  C   UNL     1      -1.970  -2.367   0.018  0.00  0.00    +0.022 C 
ATOM      2  C   UNL     1      -1.158  -2.615   1.271  0.00  0.00    +0.201 C 
ATOM      3  O   UNL     1      -0.143  -2.030   1.585  0.00  0.00    -0.277 OA
ATOM      4  N   UNL     1      -1.754  -3.596   1.980  0.00  0.00    -0.314 N 
ATOM      5  C   UNL     1      -2.952  -4.054   1.271  0.00  0.00    +0.006 C 
ATOM      6  N   UNL     1      -3.283  -3.002   0.284  0.00  0.00    +0.401 N 
ATOM      7  C   UNL     1      -2.667  -5.368   0.546  0.00  0.00    +0.023 C 
ATOM      8  C   UNL     1      -2.285  -6.441   1.571  0.00  0.00    +0.109 C 
ATOM      9  N   UNL     1      -3.342  -6.519   2.588  0.00  0.00    -0.177 NA
ATOM     10  C   UNL     1      -3.742  -5.292   3.289  0.00  0.00    +0.109 C 
ATOM     11  C   UNL     1      -4.111  -4.228   2.250  0.00  0.00    +0.023 C 
ATOM     12  H   UNL     1      -3.928  -2.334   0.678  0.00  0.00    -0.082 HD
ATOM     13  H   UNL     1      -3.660  -3.409  -0.559  0.00  0.00    -0.082 HD
ENDROOT
BRANCH   9  14
ATOM     14  S   UNL     1      -4.071  -7.965   2.937  0.00  0.00    +0.063 S 
ATOM     15  O   UNL     1      -5.346  -7.656   3.482  0.00  0.00    -0.153 OA
ATOM     16  O   UNL     1      -3.912  -8.788   1.789  0.00  0.00    -0.153 OA
BRANCH  14  17
ATOM     17  C   UNL     1      -3.140  -8.719   4.229  0.00  0.00    +0.131 A 
ATOM     18  C   UNL     1      -3.705  -8.921   5.451  0.00  0.00    +0.031 A 
ATOM     19  C   UNL     1      -2.987  -9.515   6.486  0.00  0.00    +0.003 A 
ATOM     20  C   UNL     1      -1.697  -9.911   6.304  0.00  0.00    +0.010 A 
ATOM     21  C   UNL     1      -1.082  -9.719   5.057  0.00  0.00    +0.002 A 
ATOM     22  C   UNL     1      -1.812  -9.120   4.001  0.00  0.00    +0.097 A 
ATOM     23  N   UNL     1      -1.232  -8.939   2.810  0.00  0.00    -0.253 NA
ATOM     24  C   UNL     1       0.006  -9.310   2.592  0.00  0.00    +0.111 A 
ATOM     25  C   UNL     1       0.778  -9.910   3.585  0.00  0.00    +0.020 A 
ATOM     26  C   UNL     1       0.250 -10.114   4.828  0.00  0.00    +0.011 A 
ENDBRANCH  14  17
ENDBRANCH   9  14
BRANCH   1  27
ATOM     27  C   UNL     1      -2.142  -0.865  -0.217  0.00  0.00    -0.020 C 
ATOM     28  C   UNL     1      -3.026  -0.639  -1.445  0.00  0.00    +0.006 C 
BRANCH  27  30
ATOM     29  C   UNL     1      -0.930   1.292  -0.561  0.00  0.00    +0.004 C 
ATOM     30  C   UNL     1      -0.772  -0.226  -0.451  0.00  0.00    -0.001 C 
ENDBRANCH  27  30
ENDBRANCH   1  27
BRANCH   4  31
ATOM     31  C   UNL     1      -1.276  -4.123   3.261  0.00  0.00    +0.108 C 
BRANCH  31  32
ATOM     32  C   UNL     1      -1.866  -3.296   4.404  0.00  0.00    +0.047 C 
BRANCH  32  33
ATOM     33  C   UNL     1      -1.479  -3.927   5.743  0.00  0.00    +0.161 C 
BRANCH  33  34
ATOM     34  O   UNL     1      -2.030  -3.154   6.811  0.00  0.00    -0.383 OA
ATOM     35  C   UNL     1      -1.726  -3.660   8.113  0.00  0.00    +0.193 C 
ENDBRANCH  33  34
ENDBRANCH  32  33
ENDBRANCH  31  32
ENDBRANCH   4  31
TORSDOF 8
