REMARK  Name = ZINC27572143
REMARK  13 active torsions:
REMARK  status: ('A' for Active; 'I' for Inactive)
REMARK    1  A    between atoms: C_1  and  C_2
REMARK    2  A    between atoms: C_2  and  C_3
REMARK    3  A    between atoms: C_2  and  C_4
REMARK    4  A    between atoms: C_2  and  N_5
REMARK    5  A    between atoms: N_5  and  S_6
REMARK    6  A    between atoms: S_6  and  C_9
REMARK    7  A    between atoms: C_12  and  C_15
REMARK    8  A    between atoms: N_17  and  C_18
REMARK    9  A    between atoms: C_18  and  C_19
REMARK   10  A    between atoms: C_19  and  C_21
REMARK   11  A    between atoms: C_19  and  N_29
REMARK   12  A    between atoms: C_26  and  O_27
REMARK   13  A    between atoms: O_27  and  C_28
REMARK                            x       y       z     vdW  Elec       q    Type
REMARK                         _______ _______ _______ _____ _____    ______ ____
ROOT
ATOM      1  C   UNL     1      -1.984   3.852   5.026  0.00  0.00    +0.244 C 
ATOM      2  O   UNL     1      -2.793   3.579   5.891  0.00  0.00    -0.270 OA
ATOM      3  N   UNL     1      -1.200   4.941   5.155  0.00  0.00    -0.313 N 
ATOM      4  H   UNL     1      -0.467   5.187   4.372  0.00  0.00    +0.149 HD
ENDROOT
BRANCH   1   8
ATOM      5  C   UNL     1      -1.627   1.373   1.595  0.00  0.00    +0.105 A 
ATOM      6  C   UNL     1      -0.817   2.487   1.727  0.00  0.00    +0.029 A 
ATOM      7  C   UNL     1      -0.931   3.299   2.837  0.00  0.00    +0.015 A 
ATOM      8  C   UNL     1      -1.859   2.989   3.832  0.00  0.00    +0.037 A 
ATOM      9  C   UNL     1      -2.670   1.861   3.695  0.00  0.00    +0.015 A 
ATOM     10  C   UNL     1      -2.549   1.060   2.578  0.00  0.00    +0.029 A 
BRANCH   5  11
ATOM     11  S   UNL     1      -1.479   0.345   0.171  0.00  0.00    +0.059 S 
ATOM     12  O   UNL     1      -1.603  -0.996   0.624  0.00  0.00    -0.153 OA
ATOM     13  O   UNL     1      -0.342   0.806  -0.546  0.00  0.00    -0.153 OA
BRANCH  11  14
ATOM     14  N   UNL     1      -2.796   0.645  -0.787  0.00  0.00    -0.185 NA
ATOM     15  H   UNL     1      -3.637  -0.064  -0.782  0.00  0.00    +0.149 HD
BRANCH  14  17
ATOM     16  C   UNL     1      -1.741   2.155  -2.396  0.00  0.00    +0.029 C 
ATOM     17  C   UNL     1      -2.933   1.938  -1.461  0.00  0.00    +0.032 C 
ATOM     18  C   UNL     1      -4.228   1.955  -2.275  0.00  0.00    +0.029 C 
ATOM     19  C   UNL     1      -2.972   3.056  -0.417  0.00  0.00    +0.029 C 
ENDBRANCH  14  17
ENDBRANCH  11  14
ENDBRANCH   5  11
ENDBRANCH   1   8
BRANCH   3  20
ATOM     20  C   UNL     1      -1.323   5.796   6.338  0.00  0.00    +0.094 C 
BRANCH  20  21
ATOM     21  C   UNL     1      -0.424   7.023   6.177  0.00  0.00    -0.017 C 
BRANCH  21  22
ATOM     22  C   UNL     1      -0.898   7.842   5.004  0.00  0.00    -0.018 A 
ATOM     23  C   UNL     1      -0.322   7.666   3.760  0.00  0.00    +0.005 A 
ATOM     24  C   UNL     1      -0.756   8.418   2.684  0.00  0.00    +0.000 A 
ATOM     25  C   UNL     1      -1.768   9.346   2.849  0.00  0.00    +0.004 A 
ATOM     26  C   UNL     1      -2.346   9.525   4.090  0.00  0.00    +0.046 A 
ATOM     27  C   UNL     1      -1.916   8.769   5.171  0.00  0.00    +0.122 A 
BRANCH  27  28
ATOM     28  O   UNL     1      -2.487   8.940   6.392  0.00  0.00    -0.495 OA
ATOM     29  C   UNL     1      -3.530   9.912   6.490  0.00  0.00    +0.277 C 
ENDBRANCH  27  28
ENDBRANCH  21  22
BRANCH  21  30
ATOM     30  N   UNL     1       0.960   6.588   5.943  0.00  0.00    +0.385 N 
ATOM     31  C   UNL     1       1.872   7.755   5.830  0.00  0.00    -0.078 C 
ATOM     32  C   UNL     1       3.266   7.144   6.120  0.00  0.00    -0.020 C 
ATOM     33  C   UNL     1       2.966   6.104   7.223  0.00  0.00    -0.020 C 
ATOM     34  C   UNL     1       1.464   5.791   7.082  0.00  0.00    -0.078 C 
ATOM     35  H   UNL     1       0.935   5.996   5.016  0.00  0.00    -0.081 HD
ENDBRANCH  21  30
ENDBRANCH  20  21
ENDBRANCH   3  20
TORSDOF 9
