REMARK  Name = ZINC12329831
REMARK  6 active torsions:
REMARK  status: ('A' for Active; 'I' for Inactive)
REMARK    1  A    between atoms: C_6  and  C_7
REMARK    2  A    between atoms: C_7  and  C_9
REMARK    3  A    between atoms: C_7  and  O_27
REMARK    4  A    between atoms: C_9  and  N_51
REMARK    5  A    between atoms: C_16  and  O_26
REMARK    6  A    between atoms: C_20  and  O_25
REMARK                            x       y       z     vdW  Elec       q    Type
REMARK                         _______ _______ _______ _____ _____    ______ ____
ROOT
ATOM      1  C   UNL     1       0.989  -2.500   0.731  0.00  0.00    -0.075 C 
ATOM      2  C   UNL     1       0.903  -4.024   0.611  0.00  0.00    +0.029 C 
ATOM      3  C   UNL     1       0.788  -4.636   2.008  0.00  0.00    +0.110 C 
ATOM      4  C   UNL     1      -0.433  -4.053   2.721  0.00  0.00    +0.029 C 
ATOM      5  C   UNL     1      -0.307  -2.529   2.778  0.00  0.00    -0.075 C 
ATOM      6  C   UNL     1       0.634  -6.156   1.889  0.00  0.00    +0.084 C 
ATOM      7  C   UNL     1       1.813  -6.697   1.075  0.00  0.00    +0.152 C 
ATOM      8  C   UNL     1       3.102  -6.124   1.608  0.00  0.00    +0.026 A 
ATOM      9  C   UNL     1       4.293  -6.749   1.279  0.00  0.00    +0.055 A 
ATOM     10  C   UNL     1       5.498  -6.247   1.745  0.00  0.00    +0.117 A 
ATOM     11  C   UNL     1       5.510  -5.114   2.545  0.00  0.00    +0.049 A 
ATOM     12  C   UNL     1       4.324  -4.492   2.874  0.00  0.00    +0.049 A 
ATOM     13  C   UNL     1       3.114  -4.995   2.408  0.00  0.00    +0.127 A 
ATOM     14  O   UNL     1       1.968  -4.354   2.759  0.00  0.00    -0.485 OA
ATOM     15  N   UNL     1      -0.232  -2.002   1.399  0.00  0.00    +0.382 N 
ATOM     16  H   UNL     1      -1.054  -2.325   0.874  0.00  0.00    -0.082 HD
ENDROOT
BRANCH  10  17
ATOM     17  O   UNL     1       6.665  -6.864   1.419  0.00  0.00    -0.507 OA
ATOM     18  H   UNL     1       6.936  -7.550   2.044  0.00  0.00    +0.292 HD
ENDBRANCH  10  17
BRANCH   7  19
ATOM     19  O   UNL     1       1.847  -8.122   1.179  0.00  0.00    -0.387 OA
ATOM     20  H   UNL     1       2.569  -8.535   0.685  0.00  0.00    +0.210 HD
ENDBRANCH   7  19
BRANCH  15  21
ATOM     21  C   UNL     1      -0.228  -0.525   1.422  0.00  0.00    -0.042 C 
BRANCH  21  22
ATOM     22  C   UNL     1      -0.027  -0.004  -0.003  0.00  0.00    +0.128 C 
BRANCH  22  28
ATOM     23  C   UNL     1      -1.296   2.152   0.024  0.00  0.00    +0.007 A 
ATOM     24  C   UNL     1      -1.343   3.534   0.034  0.00  0.00    +0.020 A 
ATOM     25  C   UNL     1      -0.169   4.265   0.008  0.00  0.00    +0.041 A 
ATOM     26  C   UNL     1       1.051   3.614  -0.020  0.00  0.00    +0.020 A 
ATOM     27  C   UNL     1       1.097   2.232  -0.024  0.00  0.00    +0.007 A 
ATOM     28  C   UNL     1      -0.077   1.502   0.001  0.00  0.00    -0.021 A 
ATOM     29 CL   UNL     1      -0.227   6.000   0.013  0.00  0.00    -0.084 Cl
ENDBRANCH  22  28
BRANCH  22  30
ATOM     30  O   UNL     1      -1.062  -0.513  -0.846  0.00  0.00    -0.389 OA
ATOM     31  H   UNL     1      -1.953  -0.258  -0.573  0.00  0.00    +0.210 HD
ENDBRANCH  22  30
ENDBRANCH  21  22
ENDBRANCH  15  21
TORSDOF 6
