REMARK  Name = ZINC14124326
REMARK  11 active torsions:
REMARK  status: ('A' for Active; 'I' for Inactive)
REMARK    1  A    between atoms: C_1  and  N_63
REMARK    2  A    between atoms: C_2  and  N_63
REMARK    3  A    between atoms: C_3  and  C_5
REMARK    4  A    between atoms: C_3  and  C_27
REMARK    5  A    between atoms: C_3  and  N_63
REMARK    6  A    between atoms: C_5  and  N_6
REMARK    7  A    between atoms: C_7  and  C_9
REMARK    8  A    between atoms: C_9  and  S_10
REMARK    9  A    between atoms: S_10  and  C_11
REMARK   10  A    between atoms: C_14  and  C_22
REMARK   11  A    between atoms: N_15  and  C_16
REMARK                            x       y       z     vdW  Elec       q    Type
REMARK                         _______ _______ _______ _____ _____    ______ ____
ROOT
ATOM      1  C   UNL     1      -4.668  -0.927   3.542  0.00  0.00    +0.173 C 
ENDROOT
BRANCH   1   3
ATOM      2  N   UNL     1      -5.546   0.413   5.426  0.00  0.00    -0.316 N 
ATOM      3  C   UNL     1      -4.509   0.113   4.620  0.00  0.00    +0.223 C 
ATOM      4  O   UNL     1      -3.446   0.681   4.762  0.00  0.00    -0.275 OA
ATOM      5  H   UNL     1      -6.396  -0.040   5.312  0.00  0.00    +0.149 HD
BRANCH   2   6
ATOM      6  C   UNL     1      -5.391   1.425   6.474  0.00  0.00    +0.093 C 
BRANCH   6   7
ATOM      7  C   UNL     1      -6.740   1.667   7.154  0.00  0.00    -0.021 C 
BRANCH   7   8
ATOM      8  C   UNL     1      -7.714   2.230   6.150  0.00  0.00    -0.059 A 
ATOM      9  C   UNL     1      -7.678   3.574   5.832  0.00  0.00    +0.002 A 
ATOM     10  C   UNL     1      -8.569   4.090   4.908  0.00  0.00    +0.000 A 
ATOM     11  C   UNL     1      -9.501   3.262   4.311  0.00  0.00    +0.000 A 
ATOM     12  C   UNL     1      -9.540   1.918   4.633  0.00  0.00    +0.000 A 
ATOM     13  C   UNL     1      -8.646   1.402   5.553  0.00  0.00    +0.002 A 
ENDBRANCH   7   8
BRANCH   7  16
ATOM     14  C   UNL     1      -7.836   2.838   8.967  0.00  0.00    -0.096 C 
ATOM     15  C   UNL     1      -5.518   2.173   9.181  0.00  0.00    -0.096 C 
ATOM     16  N   UNL     1      -6.560   2.646   8.246  0.00  0.00    +0.382 N 
ATOM     17  H   UNL     1      -6.265   3.544   7.845  0.00  0.00    -0.082 HD
ENDBRANCH   7  16
ENDBRANCH   6   7
ENDBRANCH   2   6
ENDBRANCH   1   3
BRANCH   1  18
ATOM     18  S   UNL     1      -3.111  -1.102   2.636  0.00  0.00    -0.077 S 
BRANCH  18  19
ATOM     19  C   UNL     1      -3.571  -2.344   1.474  0.00  0.00    +0.193 A 
ATOM     20  N   UNL     1      -4.748  -2.918   1.372  0.00  0.00    -0.122 NA
ATOM     21  N   UNL     1      -4.738  -3.783   0.422  0.00  0.00    -0.125 NA
ATOM     22  C   UNL     1      -3.553  -3.811  -0.147  0.00  0.00    +0.201 A 
ATOM     23  N   UNL     1      -2.770  -2.886   0.508  0.00  0.00    -0.297 N 
BRANCH  23  24
ATOM     24  C   UNL     1      -1.369  -2.557   0.231  0.00  0.00    +0.091 C 
ATOM     25  C   UNL     1      -1.257  -1.076  -0.138  0.00  0.00    +0.025 C 
ATOM     26  C   UNL     1       0.206  -0.732  -0.426  0.00  0.00    +0.002 C 
ATOM     27  C   UNL     1       1.051  -1.014   0.817  0.00  0.00    +0.000 C 
ATOM     28  C   UNL     1       0.939  -2.495   1.186  0.00  0.00    +0.002 C 
ATOM     29  C   UNL     1      -0.524  -2.838   1.475  0.00  0.00    +0.025 C 
ENDBRANCH  23  24
BRANCH  22  30
ATOM     30  C   UNL     1      -3.141  -4.667  -1.271  0.00  0.00    +0.172 A 
ATOM     31  C   UNL     1      -3.808  -5.765  -1.726  0.00  0.00    +0.053 A 
ATOM     32  C   UNL     1      -3.061  -6.273  -2.806  0.00  0.00    +0.042 A 
ATOM     33  C   UNL     1      -1.988  -5.472  -2.958  0.00  0.00    +0.196 A 
ATOM     34  O   UNL     1      -2.042  -4.499  -2.033  0.00  0.00    -0.460 OA
ENDBRANCH  22  30
ENDBRANCH  18  19
ENDBRANCH   1  18
TORSDOF 9
