REMARK  Name = ZINC43265359
REMARK  7 active torsions:
REMARK  status: ('A' for Active; 'I' for Inactive)
REMARK    1  A    between atoms: C_1  and  C_2
REMARK    2  A    between atoms: C_2  and  C_3
REMARK    3  A    between atoms: C_3  and  C_5
REMARK    4  A    between atoms: C_3  and  N_22
REMARK    5  A    between atoms: C_5  and  C_7
REMARK    6  A    between atoms: C_5  and  O_13
REMARK    7  A    between atoms: O_13  and  C_14
REMARK                            x       y       z     vdW  Elec       q    Type
REMARK                         _______ _______ _______ _____ _____    ______ ____
ROOT
ATOM      1  C   UNL     1       0.672  -2.100   1.295  0.00  0.00    +0.196 C 
ENDROOT
BRANCH   1   2
ATOM      2  C   UNL     1       1.413  -2.788   2.413  0.00  0.00    +0.029 A 
ATOM      3  C   UNL     1       2.669  -3.296   2.419  0.00  0.00    +0.016 A 
ATOM      4  C   UNL     1       3.147  -3.890   3.572  0.00  0.00    +0.023 A 
ATOM      5  C   UNL     1       2.344  -3.946   4.664  0.00  0.00    +0.055 A 
ATOM      6  S   UNL     1       0.865  -3.136   4.076  0.00  0.00    -0.083 S 
ATOM      7 BR   UNL     1       2.701  -4.684   6.368  0.00  0.00    -0.043 Br
ENDBRANCH   1   2
BRANCH   1   8
ATOM      8  C   UNL     1       0.839  -0.585   1.429  0.00  0.00    -0.029 C 
BRANCH   8   9
ATOM      9  N   UNL     1       2.266  -0.242   1.355  0.00  0.00    +0.383 N 
ATOM     10  H   UNL     1       2.376   0.757   1.443  0.00  0.00    -0.089 HD
ATOM     11  H   UNL     1       2.761  -0.702   2.104  0.00  0.00    -0.089 HD
ATOM     12  H   UNL     1       2.639  -0.545   0.468  0.00  0.00    -0.089 HD
ENDBRANCH   8   9
BRANCH   8  14
ATOM     13  C   UNL     1       0.150   1.628   0.496  0.00  0.00    +0.002 C 
ATOM     14  C   UNL     1       0.087   0.113   0.293  0.00  0.00    -0.016 C 
ENDBRANCH   8  14
ENDBRANCH   1   8
BRANCH   1  15
ATOM     15  O   UNL     1      -0.716  -2.434   1.367  0.00  0.00    -0.485 OA
BRANCH  15  16
ATOM     16  C   UNL     1      -1.385  -2.547   0.189  0.00  0.00    +0.124 A 
ATOM     17  C   UNL     1      -0.708  -2.388  -1.012  0.00  0.00    +0.048 A 
ATOM     18  C   UNL     1      -1.389  -2.502  -2.209  0.00  0.00    +0.045 A 
ATOM     19  C   UNL     1      -2.746  -2.775  -2.212  0.00  0.00    +0.159 A 
ATOM     20  C   UNL     1      -3.424  -2.934  -1.013  0.00  0.00    +0.162 A 
ATOM     21  C   UNL     1      -2.743  -2.826   0.187  0.00  0.00    +0.087 A 
ATOM     22  F   UNL     1      -4.749  -3.200  -1.016  0.00  0.00    -0.202 F 
ATOM     23  F   UNL     1      -3.410  -2.885  -3.383  0.00  0.00    -0.202 F 
ENDBRANCH  15  16
ENDBRANCH   1  15
TORSDOF 6
