REMARK  Name = ZINC66563349
REMARK  4 active torsions:
REMARK  status: ('A' for Active; 'I' for Inactive)
REMARK    1  A    between atoms: C_6  and  C_7
REMARK    2  A    between atoms: C_13  and  C_15
REMARK    3  A    between atoms: C_15  and  N_16
REMARK    4  A    between atoms: C_21  and  C_23
REMARK                            x       y       z     vdW  Elec       q    Type
REMARK                         _______ _______ _______ _____ _____    ______ ____
ROOT
ATOM      1  C   UNL     1      -1.619  -0.777  -0.130  0.00  0.00    +0.106 C 
ATOM      2  C   UNL     1      -2.268  -0.687  -1.527  0.00  0.00    +0.029 C 
ATOM      3  C   UNL     1      -3.754  -0.383  -1.202  0.00  0.00    +0.021 C 
ATOM      4  C   UNL     1      -3.619   0.524   0.047  0.00  0.00    +0.108 C 
ATOM      5  N   UNL     1      -2.483  -0.041   0.804  0.00  0.00    -0.296 N 
ATOM      6  C   UNL     1      -2.272   0.095   2.128  0.00  0.00    +0.200 C 
ATOM      7  O   UNL     1      -1.300  -0.416   2.643  0.00  0.00    -0.278 OA
ENDROOT
BRANCH   1  13
ATOM      8  C   UNL     1      -0.115   1.222  -0.127  0.00  0.00    +0.009 A 
ATOM      9  C   UNL     1       1.142   1.798  -0.156  0.00  0.00    +0.050 A 
ATOM     10  C   UNL     1       2.272   0.998  -0.219  0.00  0.00    +0.162 A 
ATOM     11  C   UNL     1       2.138  -0.386  -0.250  0.00  0.00    +0.162 A 
ATOM     12  C   UNL     1       0.875  -0.957  -0.222  0.00  0.00    +0.055 A 
ATOM     13  C   UNL     1      -0.247  -0.153  -0.161  0.00  0.00    -0.023 A 
ATOM     14  O   UNL     1       3.235  -1.190  -0.304  0.00  0.00    -0.485 OA
ATOM     15  C   UNL     1       4.464  -0.577  -0.706  0.00  0.00    +0.270 C 
ATOM     16  C   UNL     1       4.619   0.741   0.065  0.00  0.00    +0.270 C 
ATOM     17  O   UNL     1       3.502   1.579  -0.251  0.00  0.00    -0.485 OA
ENDBRANCH   1  13
BRANCH   6  18
ATOM     18  C   UNL     1      -3.244   0.881   2.970  0.00  0.00    +0.020 C 
BRANCH  18  19
ATOM     19  N   UNL     1      -2.794   0.880   4.368  0.00  0.00    +0.393 N 
ATOM     20  C   UNL     1      -1.539   1.635   4.477  0.00  0.00    -0.077 C 
ATOM     21  C   UNL     1      -1.024   1.569   5.916  0.00  0.00    -0.019 C 
ATOM     22  C   UNL     1      -2.069   2.176   6.856  0.00  0.00    -0.003 C 
ATOM     23  C   UNL     1      -3.394   1.429   6.679  0.00  0.00    -0.006 C 
ATOM     24  C   UNL     1      -3.822   1.500   5.212  0.00  0.00    +0.020 C 
ATOM     25  H   UNL     1      -2.640  -0.070   4.670  0.00  0.00    -0.080 HD
BRANCH  24  26
ATOM     26  C   UNL     1      -5.127   0.766   5.034  0.00  0.00    +0.197 C 
ATOM     27  O   UNL     1      -5.125  -0.411   4.739  0.00  0.00    -0.278 OA
ATOM     28  N   UNL     1      -6.295   1.417   5.201  0.00  0.00    -0.331 N 
ATOM     29  H   UNL     1      -6.296   2.358   5.437  0.00  0.00    +0.145 HD
ATOM     30  H   UNL     1      -7.134   0.944   5.087  0.00  0.00    +0.145 HD
ENDBRANCH  24  26
ENDBRANCH  18  19
ENDBRANCH   6  18
TORSDOF 4
