REMARK  Name = ZINC34792808
REMARK  9 active torsions:
REMARK  status: ('A' for Active; 'I' for Inactive)
REMARK    1  A    between atoms: C_1  and  C_2
REMARK    2  A    between atoms: C_2  and  C_3
REMARK    3  A    between atoms: C_2  and  C_4
REMARK    4  A    between atoms: C_4  and  C_5
REMARK    5  A    between atoms: C_5  and  N_6
REMARK    6  A    between atoms: C_7  and  C_9
REMARK    7  A    between atoms: C_9  and  N_10
REMARK    8  A    between atoms: C_16  and  C_23
REMARK    9  A    between atoms: N_21  and  C_22
REMARK                            x       y       z     vdW  Elec       q    Type
REMARK                         _______ _______ _______ _____ _____    ______ ____
ROOT
ATOM      1  N   UNL     1      -4.418  -5.869  -0.335  0.00  0.00    -0.283 N 
ATOM      2  C   UNL     1      -4.449  -6.635  -1.590  0.00  0.00    +0.160 C 
ATOM      3  C   UNL     1      -4.412  -8.085  -1.162  0.00  0.00    +0.042 C 
ATOM      4  C   UNL     1      -4.367  -8.082   0.186  0.00  0.00    +0.058 C 
ATOM      5  C   UNL     1      -4.365  -6.758   0.673  0.00  0.00    +0.247 C 
ATOM      6  O   UNL     1      -4.324  -6.460   1.853  0.00  0.00    -0.270 OA
ATOM      7  C   UNL     1      -4.323  -9.421   0.892  0.00  0.00    +0.143 C 
ATOM      8  N   UNL     1      -4.334 -10.624   0.043  0.00  0.00    -0.288 N 
ATOM      9  C   UNL     1      -4.382 -10.465  -1.295  0.00  0.00    +0.307 C 
ATOM     10  O   UNL     1      -4.392 -11.452  -2.005  0.00  0.00    -0.252 OA
ATOM     11  N   UNL     1      -4.419  -9.254  -1.867  0.00  0.00    -0.260 N 
ATOM     12  C   UNL     1      -4.470  -9.181  -3.329  0.00  0.00    +0.139 C 
ATOM     13  H   UNL     1      -4.307 -11.510   0.436  0.00  0.00    +0.151 HD
ENDROOT
BRANCH   7  14
ATOM     14  C   UNL     1      -3.075  -9.461   1.736  0.00  0.00    -0.004 A 
ATOM     15  C   UNL     1      -1.921 -10.034   1.237  0.00  0.00    +0.007 A 
ATOM     16  C   UNL     1      -0.776 -10.070   2.011  0.00  0.00    +0.000 A 
ATOM     17  C   UNL     1      -0.785  -9.534   3.285  0.00  0.00    +0.001 A 
ATOM     18  C   UNL     1      -1.939  -8.960   3.785  0.00  0.00    +0.020 A 
ATOM     19  C   UNL     1      -3.083  -8.919   3.009  0.00  0.00    +0.046 A 
ATOM     20 CL   UNL     1      -4.531  -8.193   3.635  0.00  0.00    -0.083 Cl
ENDBRANCH   7  14
BRANCH   1  21
ATOM     21  C   UNL     1      -4.435  -4.410  -0.207  0.00  0.00    +0.204 C 
BRANCH  21  23
ATOM     22  N   UNL     1      -2.790  -2.565  -0.111  0.00  0.00    -0.314 N 
ATOM     23  C   UNL     1      -3.021  -3.888  -0.217  0.00  0.00    +0.230 C 
ATOM     24  O   UNL     1      -2.091  -4.660  -0.322  0.00  0.00    -0.274 OA
ATOM     25  H   UNL     1      -3.534  -1.948  -0.027  0.00  0.00    +0.149 HD
BRANCH  22  26
ATOM     26  C   UNL     1      -1.416  -2.058  -0.121  0.00  0.00    +0.104 C 
BRANCH  26  27
ATOM     27  C   UNL     1      -1.433  -0.534   0.013  0.00  0.00    +0.022 C 
BRANCH  27  29
ATOM     28  C   UNL     1      -0.019   1.526   0.010  0.00  0.00    +0.007 C 
ATOM     29  C   UNL     1       0.002  -0.004   0.002  0.00  0.00    -0.016 C 
ATOM     30  C   UNL     1       0.742  -0.511   1.242  0.00  0.00    +0.007 C 
ENDBRANCH  27  29
ENDBRANCH  26  27
ENDBRANCH  22  26
ENDBRANCH  21  23
ENDBRANCH   1  21
TORSDOF 6
