REMARK  Name = ZINC61630352
REMARK  4 active torsions:
REMARK  status: ('A' for Active; 'I' for Inactive)
REMARK    1  A    between atoms: C_5  and  C_8
REMARK    2  A    between atoms: C_8  and  S_9
REMARK    3  A    between atoms: S_9  and  C_10
REMARK    4  A    between atoms: C_14  and  N_16
REMARK                            x       y       z     vdW  Elec       q    Type
REMARK                         _______ _______ _______ _____ _____    ______ ____
ROOT
ATOM      1  C   UNL     1       1.317  -4.536   1.504  0.00  0.00    +0.192 A 
ATOM      2  N   UNL     1       1.322  -5.060   0.288  0.00  0.00    -0.207 NA
ATOM      3  C   UNL     1       1.349  -6.379   0.114  0.00  0.00    +0.122 A 
ATOM      4  C   UNL     1       1.373  -7.209   1.231  0.00  0.00    +0.086 A 
ATOM      5  C   UNL     1       1.367  -6.622   2.493  0.00  0.00    +0.122 A 
ATOM      6  N   UNL     1       1.344  -5.295   2.590  0.00  0.00    -0.207 NA
ATOM      7  N   UNL     1       1.354  -6.920  -1.162  0.00  0.00    -0.343 N 
ATOM      8  H   UNL     1       1.337  -6.336  -1.936  0.00  0.00    +0.144 HD
ATOM      9  H   UNL     1       1.374  -7.882  -1.281  0.00  0.00    +0.144 HD
ENDROOT
BRANCH   5  10
ATOM     10  N   UNL     1       1.389  -7.409   3.634  0.00  0.00    -0.343 N 
ATOM     11  H   UNL     1       1.409  -8.376   3.556  0.00  0.00    +0.144 HD
ATOM     12  H   UNL     1       1.385  -6.993   4.511  0.00  0.00    +0.144 HD
ENDBRANCH   5  10
BRANCH   1  13
ATOM     13  S   UNL     1       1.281  -2.783   1.683  0.00  0.00    -0.080 S 
BRANCH  13  14
ATOM     14  C   UNL     1       1.251  -2.168  -0.023  0.00  0.00    +0.134 C 
BRANCH  14  19
ATOM     15  C   UNL     1      -0.017   1.383   0.010  0.00  0.00    +0.025 A 
ATOM     16  C   UNL     1       1.193   2.060   0.002  0.00  0.00    +0.041 A 
ATOM     17  C   UNL     1       2.371   1.334  -0.013  0.00  0.00    +0.130 A 
ATOM     18  N   UNL     1       2.351   0.015  -0.021  0.00  0.00    -0.238 NA
ATOM     19  C   UNL     1       1.219  -0.662  -0.014  0.00  0.00    +0.071 A 
ATOM     20  C   UNL     1       0.002  -0.004   0.002  0.00  0.00    +0.063 A 
ATOM     21 CL   UNL     1      -1.483  -0.903   0.012  0.00  0.00    -0.082 Cl
ATOM     22 CL   UNL     1       3.893   2.169  -0.024  0.00  0.00    -0.062 Cl
ENDBRANCH  14  19
ENDBRANCH  13  14
ENDBRANCH   1  13
TORSDOF 4
