REMARK  Name = ZINC41152329
REMARK  5 active torsions:
REMARK  status: ('A' for Active; 'I' for Inactive)
REMARK    1  A    between atoms: C_4  and  C_7
REMARK    2  A    between atoms: C_7  and  C_8
REMARK    3  A    between atoms: C_7  and  N_14
REMARK    4  A    between atoms: C_28  and  N_30
REMARK    5  A    between atoms: N_30  and  C_31
REMARK                            x       y       z     vdW  Elec       q    Type
REMARK                         _______ _______ _______ _____ _____    ______ ____
ROOT
ATOM      1  N   UNL     1       3.473  -1.794  -1.031  0.00  0.00    -0.289 NA
ATOM      2  C   UNL     1       2.913  -1.568  -2.370  0.00  0.00    +0.104 C 
ATOM      3  C   UNL     1       2.799  -2.908  -3.106  0.00  0.00    +0.123 C 
ATOM      4  N   UNL     1       4.115  -3.565  -3.084  0.00  0.00    -0.299 N 
ATOM      5  C   UNL     1       4.802  -3.705  -1.791  0.00  0.00    +0.123 C 
ATOM      6  C   UNL     1       4.837  -2.334  -1.108  0.00  0.00    +0.104 C 
ATOM      7  C   UNL     1       4.690  -4.040  -4.249  0.00  0.00    +0.198 A 
ATOM      8  N   UNL     1       5.813  -4.727  -4.165  0.00  0.00    -0.327 N 
ATOM      9  C   UNL     1       6.402  -5.205  -5.271  0.00  0.00    +0.052 A 
ATOM     10  C   UNL     1       7.594  -5.939  -5.218  0.00  0.00    +0.026 A 
ATOM     11  C   UNL     1       8.152  -6.403  -6.373  0.00  0.00    +0.002 A 
ATOM     12  C   UNL     1       7.554  -6.158  -7.606  0.00  0.00    +0.001 A 
ATOM     13  C   UNL     1       6.393  -5.447  -7.693  0.00  0.00    +0.013 A 
ATOM     14  C   UNL     1       5.795  -4.957  -6.527  0.00  0.00    +0.038 A 
ATOM     15  C   UNL     1       4.590  -4.213  -6.556  0.00  0.00    +0.132 A 
ATOM     16  N   UNL     1       4.085  -3.789  -5.407  0.00  0.00    -0.201 NA
ATOM     17  H   UNL     1       6.216  -4.888  -3.297  0.00  0.00    +0.169 HD
ENDROOT
BRANCH  15  18
ATOM     18  N   UNL     1       3.955  -3.942  -7.749  0.00  0.00    -0.326 N 
ATOM     19  H   UNL     1       4.333  -4.262  -8.583  0.00  0.00    +0.148 HD
BRANCH  18  20
ATOM     20  C   UNL     1       2.709  -3.171  -7.758  0.00  0.00    +0.072 C 
ATOM     21  C   UNL     1       1.502  -4.116  -7.581  0.00  0.00    +0.022 C 
ATOM     22  C   UNL     1       0.408  -3.508  -8.494  0.00  0.00    +0.002 C 
ATOM     23  C   UNL     1       1.218  -3.023  -9.722  0.00  0.00    +0.002 C 
ATOM     24  C   UNL     1       2.529  -2.477  -9.119  0.00  0.00    +0.022 C 
ENDBRANCH  18  20
ENDBRANCH  15  18
BRANCH   1  25
ATOM     25  C   UNL     1       3.438  -0.562  -0.231  0.00  0.00    +0.117 C 
BRANCH  25  29
ATOM     26  C   UNL     1      -0.565   0.920  -0.074  0.00  0.00    +0.000 A 
ATOM     27  C   UNL     1       0.493   1.799  -0.216  0.00  0.00    +0.000 A 
ATOM     28  C   UNL     1       1.788   1.319  -0.267  0.00  0.00    +0.005 A 
ATOM     29  C   UNL     1       2.026  -0.039  -0.175  0.00  0.00    -0.026 A 
ATOM     30  C   UNL     1       0.969  -0.918  -0.033  0.00  0.00    +0.005 A 
ATOM     31  C   UNL     1      -0.327  -0.438   0.017  0.00  0.00    +0.000 A 
ENDBRANCH  25  29
BRANCH  25  32
ATOM     32  C   UNL     1       3.921  -0.857   1.165  0.00  0.00    -0.026 A 
ATOM     33  C   UNL     1       3.552  -2.033   1.791  0.00  0.00    +0.005 A 
ATOM     34  C   UNL     1       3.995  -2.303   3.072  0.00  0.00    +0.000 A 
ATOM     35  C   UNL     1       4.806  -1.397   3.728  0.00  0.00    +0.000 A 
ATOM     36  C   UNL     1       5.176  -0.221   3.103  0.00  0.00    +0.000 A 
ATOM     37  C   UNL     1       4.737   0.047   1.820  0.00  0.00    +0.005 A 
ENDBRANCH  25  32
ENDBRANCH   1  25
TORSDOF 5
