REMARK  Name = ZINC46302211
REMARK  10 active torsions:
REMARK  status: ('A' for Active; 'I' for Inactive)
REMARK    1  A    between atoms: C_1  and  C_2
REMARK    2  A    between atoms: C_3  and  C_25
REMARK    3  A    between atoms: C_7  and  S_9
REMARK    4  A    between atoms: S_9  and  C_10
REMARK    5  A    between atoms: C_10  and  C_11
REMARK    6  A    between atoms: N_13  and  C_14
REMARK    7  A    between atoms: C_19  and  C_24
REMARK    8  A    between atoms: C_21  and  C_23
REMARK    9  A    between atoms: C_25  and  C_26
REMARK   10  A    between atoms: C_26  and  C_27
REMARK                            x       y       z     vdW  Elec       q    Type
REMARK                         _______ _______ _______ _____ _____    ______ ____
ROOT
ATOM      1  S   UNL     1       0.211   2.566  -4.886  0.00  0.00    -0.077 S 
ENDROOT
BRANCH   1   8
ATOM      2  C   UNL     1      -0.013   1.086   0.008  0.00  0.00    +0.066 C 
ATOM      3  C   UNL     1      -0.742   1.585  -1.213  0.00  0.00    +0.049 A 
ATOM      4  C   UNL     1      -2.106   1.799  -1.173  0.00  0.00    +0.040 A 
ATOM      5  C   UNL     1      -2.742   2.262  -2.325  0.00  0.00    +0.277 A 
ATOM      6  O   UNL     1      -4.078   2.486  -2.329  0.00  0.00    -0.265 OA
ATOM      7  N   UNL     1      -2.019   2.481  -3.416  0.00  0.00    -0.183 NA
ATOM      8  C   UNL     1      -0.712   2.263  -3.415  0.00  0.00    +0.192 A 
ATOM      9  N   UNL     1      -0.080   1.829  -2.334  0.00  0.00    -0.227 NA
BRANCH   4  10
ATOM     10  C   UNL     1      -2.890   1.538   0.087  0.00  0.00    +0.054 C 
BRANCH  10  11
ATOM     11  C   UNL     1      -2.930   2.810   0.936  0.00  0.00    +0.130 C 
BRANCH  11  12
ATOM     12  C   UNL     1      -3.714   2.549   2.197  0.00  0.00    +0.356 C 
ATOM     13  O   UNL     1      -4.197   1.447   2.397  0.00  0.00    -0.246 OA
ATOM     14  O   UNL     1      -3.866   3.439   3.016  0.00  0.00    -0.246 OA
ENDBRANCH  11  12
ENDBRANCH  10  11
ENDBRANCH   4  10
ENDBRANCH   1   8
BRANCH   1  15
ATOM     15  C   UNL     1      -1.034   3.142  -6.074  0.00  0.00    +0.173 C 
BRANCH  15  16
ATOM     16  C   UNL     1      -0.369   3.440  -7.393  0.00  0.00    +0.224 C 
ATOM     17  O   UNL     1       0.827   3.281  -7.519  0.00  0.00    -0.275 OA
ATOM     18  N   UNL     1      -1.103   3.885  -8.432  0.00  0.00    -0.312 N 
ATOM     19  H   UNL     1      -2.059   4.012  -8.331  0.00  0.00    +0.149 HD
BRANCH  18  20
ATOM     20  C   UNL     1      -0.456   4.175  -9.714  0.00  0.00    +0.076 C 
ATOM     21  C   UNL     1      -0.345   2.887 -10.533  0.00  0.00    +0.022 C 
ATOM     22  C   UNL     1       0.330   3.191 -11.872  0.00  0.00    +0.002 C 
ATOM     23  C   UNL     1      -0.504   4.215 -12.643  0.00  0.00    +0.003 C 
ATOM     24  C   UNL     1      -0.616   5.503 -11.825  0.00  0.00    -0.009 C 
ATOM     25  C   UNL     1      -1.291   5.199 -10.486  0.00  0.00    +0.009 C 
ATOM     26  C   UNL     1      -1.402   6.487  -9.667  0.00  0.00    +0.009 C 
ATOM     27  C   UNL     1      -1.450   6.527 -12.597  0.00  0.00    +0.008 C 
ENDBRANCH  18  20
ENDBRANCH  15  16
ENDBRANCH   1  15
TORSDOF 7
