REMARK  Name = ZINC39590266
REMARK  5 active torsions:
REMARK  status: ('A' for Active; 'I' for Inactive)
REMARK    1  A    between atoms: C_1  and  C_2
REMARK    2  A    between atoms: C_3  and  N_9
REMARK    3  A    between atoms: C_10  and  C_12
REMARK    4  A    between atoms: C_15  and  N_19
REMARK    5  A    between atoms: C_20  and  C_22
REMARK                            x       y       z     vdW  Elec       q    Type
REMARK                         _______ _______ _______ _____ _____    ______ ____
ROOT
ATOM      1  C   UNL     1       0.187   0.044  -4.792  0.00  0.00    +0.087 C 
ATOM      2  C   UNL     1       0.293  -0.617  -5.963  0.00  0.00    +0.021 C 
ATOM      3  N   UNL     1       0.386   0.040  -7.138  0.00  0.00    -0.320 N 
ATOM      4  C   UNL     1       1.020  -0.686  -8.261  0.00  0.00    +0.219 C 
ATOM      5  S   UNL     1       0.585  -2.424  -7.822  0.00  0.00    -0.114 S 
ATOM      6  C   UNL     1       0.318  -2.136  -6.021  0.00  0.00    +0.123 C 
ATOM      7  H   UNL     1       0.053   0.945  -7.242  0.00  0.00    +0.148 HD
ENDROOT
BRANCH   1   9
ATOM      8  N   UNL     1      -0.008  -0.018  -2.408  0.00  0.00    -0.282 N 
ATOM      9  C   UNL     1       0.097  -0.678  -3.579  0.00  0.00    +0.243 C 
ATOM     10  O   UNL     1       0.115  -1.896  -3.592  0.00  0.00    -0.270 OA
ATOM     11  H   UNL     1      -0.103   0.947  -2.402  0.00  0.00    +0.155 HD
BRANCH   8  14
ATOM     12  C   UNL     1      -1.261   1.150  -0.136  0.00  0.00    +0.047 C 
ATOM     13  C   UNL     1      -0.579  -0.192  -0.069  0.00  0.00    -0.011 A 
ATOM     14  C   UNL     1       0.021  -0.726  -1.202  0.00  0.00    +0.038 A 
ATOM     15  C   UNL     1       0.648  -1.963  -1.136  0.00  0.00    +0.023 A 
ATOM     16  C   UNL     1       0.675  -2.659   0.057  0.00  0.00    +0.003 A 
ATOM     17  C   UNL     1       0.077  -2.127   1.184  0.00  0.00    +0.020 A 
ATOM     18  C   UNL     1      -0.544  -0.891   1.123  0.00  0.00    +0.046 A 
ATOM     19 CL   UNL     1      -1.287  -0.223   2.543  0.00  0.00    -0.083 Cl
ENDBRANCH   8  14
ENDBRANCH   1   9
BRANCH   4  20
ATOM     20  N   UNL     1       2.471  -0.487  -8.270  0.00  0.00    -0.284 N 
ATOM     21  C   UNL     1       3.188  -0.806  -9.365  0.00  0.00    +0.251 C 
ATOM     22  O   UNL     1       2.622  -1.172 -10.378  0.00  0.00    -0.270 OA
ATOM     23  H   UNL     1       2.916  -0.127  -7.487  0.00  0.00    +0.152 HD
BRANCH  21  24
ATOM     24  C   UNL     1       4.656  -0.711  -9.337  0.00  0.00    +0.101 A 
ATOM     25  C   UNL     1       5.415  -1.140 -10.423  0.00  0.00    +0.020 A 
ATOM     26  C   UNL     1       6.805  -1.034 -10.360  0.00  0.00    +0.018 A 
ATOM     27  C   UNL     1       7.399  -0.521  -9.253  0.00  0.00    +0.086 A 
ATOM     28  N   UNL     1       6.667  -0.103  -8.193  0.00  0.00    -0.328 N 
ATOM     29  C   UNL     1       5.323  -0.176  -8.204  0.00  0.00    +0.261 A 
ATOM     30  O   UNL     1       4.681   0.210  -7.243  0.00  0.00    -0.267 OA
ATOM     31  H   UNL     1       7.119   0.260  -7.414  0.00  0.00    +0.168 HD
ENDBRANCH  21  24
ENDBRANCH   4  20
TORSDOF 4
