REMARK  Name = ZINC09546594
REMARK  4 active torsions:
REMARK  status: ('A' for Active; 'I' for Inactive)
REMARK    1  A    between atoms: C_4  and  C_7
REMARK    2  A    between atoms: C_7  and  N_8
REMARK    3  A    between atoms: N_23  and  C_26
REMARK    4  A    between atoms: C_26  and  C_27
REMARK                            x       y       z     vdW  Elec       q    Type
REMARK                         _______ _______ _______ _____ _____    ______ ____
ROOT
ATOM      1  N   UNL     1       2.858   4.194  -1.384  0.00  0.00    -0.230 N 
ATOM      2  C   UNL     1       3.646   3.294  -2.003  0.00  0.00    +0.254 C 
ATOM      3  O   UNL     1       4.003   2.294  -1.410  0.00  0.00    -0.270 OA
ATOM      4  C   UNL     1       4.072   3.512  -3.398  0.00  0.00    +0.046 A 
ATOM      5  C   UNL     1       4.878   2.614  -4.080  0.00  0.00    +0.014 A 
ATOM      6  C   UNL     1       5.266   2.859  -5.395  0.00  0.00    +0.014 A 
ATOM      7  C   UNL     1       4.854   4.006  -6.055  0.00  0.00    +0.046 A 
ATOM      8  C   UNL     1       4.031   4.935  -5.377  0.00  0.00    +0.008 A 
ATOM      9  C   UNL     1       3.642   4.689  -4.053  0.00  0.00    +0.008 A 
ATOM     10  C   UNL     1       2.819   5.618  -3.375  0.00  0.00    +0.046 A 
ATOM     11  C   UNL     1       2.406   6.765  -4.035  0.00  0.00    +0.014 A 
ATOM     12  C   UNL     1       2.793   7.009  -5.351  0.00  0.00    +0.014 A 
ATOM     13  C   UNL     1       3.599   6.111  -6.033  0.00  0.00    +0.046 A 
ATOM     14  C   UNL     1       4.031   6.333  -7.426  0.00  0.00    +0.254 C 
ATOM     15  O   UNL     1       3.677   7.334  -8.017  0.00  0.00    -0.270 OA
ATOM     16  N   UNL     1       4.815   5.430  -8.046  0.00  0.00    -0.230 N 
ATOM     17  C   UNL     1       5.242   4.302  -7.447  0.00  0.00    +0.254 C 
ATOM     18  O   UNL     1       5.948   3.523  -8.057  0.00  0.00    -0.270 OA
ATOM     19  C   UNL     1       2.432   5.322  -1.983  0.00  0.00    +0.254 C 
ATOM     20  O   UNL     1       1.725   6.101  -1.373  0.00  0.00    -0.270 OA
ENDROOT
BRANCH   1  21
ATOM     21  C   UNL     1       2.451   3.937  -0.001  0.00  0.00    +0.152 C 
BRANCH  21  25
ATOM     22  C   UNL     1      -1.219   1.751   0.017  0.00  0.00    +0.000 A 
ATOM     23  C   UNL     1      -0.013   1.076   0.008  0.00  0.00    +0.000 A 
ATOM     24  C   UNL     1       1.175   1.783   0.000  0.00  0.00    +0.005 A 
ATOM     25  C   UNL     1       1.156   3.165   0.008  0.00  0.00    -0.030 A 
ATOM     26  C   UNL     1      -0.050   3.840   0.023  0.00  0.00    +0.005 A 
ATOM     27  C   UNL     1      -1.238   3.133   0.030  0.00  0.00    +0.000 A 
ENDBRANCH  21  25
ENDBRANCH   1  21
BRANCH  16  28
ATOM     28  C   UNL     1       5.221   5.687  -9.430  0.00  0.00    +0.152 C 
BRANCH  28  29
ATOM     29  C   UNL     1       6.516   6.459  -9.438  0.00  0.00    -0.030 A 
ATOM     30  C   UNL     1       6.496   7.841  -9.437  0.00  0.00    +0.005 A 
ATOM     31  C   UNL     1       7.683   8.549  -9.441  0.00  0.00    +0.000 A 
ATOM     32  C   UNL     1       8.890   7.875  -9.455  0.00  0.00    +0.000 A 
ATOM     33  C   UNL     1       8.910   6.493  -9.462  0.00  0.00    +0.000 A 
ATOM     34  C   UNL     1       7.722   5.785  -9.453  0.00  0.00    +0.005 A 
ENDBRANCH  28  29
ENDBRANCH  16  28
TORSDOF 4
