REMARK  Name = ZINC20180798
REMARK  5 active torsions:
REMARK  status: ('A' for Active; 'I' for Inactive)
REMARK    1  A    between atoms: C_5  and  C_7
REMARK    2  A    between atoms: N_11  and  C_19
REMARK    3  A    between atoms: C_19  and  C_20
REMARK    4  A    between atoms: N_22  and  C_23
REMARK    5  A    between atoms: C_23  and  C_24
REMARK                            x       y       z     vdW  Elec       q    Type
REMARK                         _______ _______ _______ _____ _____    ______ ____
ROOT
ATOM      1  C   UNL     1       1.437   3.093   0.723  0.00  0.00    +0.061 C 
ATOM      2  C   UNL     1       1.124   2.189  -0.232  0.00  0.00    +0.191 C 
ATOM      3  C   UNL     1       2.054   1.884  -1.339  0.00  0.00    +0.287 C 
ATOM      4  O   UNL     1       2.883   2.694  -1.710  0.00  0.00    -0.266 OA
ATOM      5  N   UNL     1       1.949   0.667  -1.926  0.00  0.00    -0.253 N 
ATOM      6  C   UNL     1       0.985  -0.232  -1.451  0.00  0.00    +0.080 A 
ATOM      7  C   UNL     1       1.030  -1.565  -1.832  0.00  0.00    +0.027 A 
ATOM      8  C   UNL     1       0.080  -2.450  -1.359  0.00  0.00    +0.002 A 
ATOM      9  C   UNL     1      -0.917  -2.011  -0.507  0.00  0.00    +0.004 A 
ATOM     10  C   UNL     1      -0.969  -0.684  -0.122  0.00  0.00    +0.048 A 
ATOM     11  C   UNL     1      -0.021   0.209  -0.592  0.00  0.00    +0.150 A 
ATOM     12  O   UNL     1      -0.069   1.518  -0.217  0.00  0.00    -0.449 OA
ENDROOT
BRANCH   1  17
ATOM     13  C   UNL     1       5.173   3.398   0.616  0.00  0.00    +0.001 A 
ATOM     14  C   UNL     1       5.340   4.746   0.882  0.00  0.00    +0.001 A 
ATOM     15  C   UNL     1       4.241   5.558   1.096  0.00  0.00    +0.020 A 
ATOM     16  C   UNL     1       2.967   5.030   1.041  0.00  0.00    +0.048 A 
ATOM     17  C   UNL     1       2.790   3.666   0.778  0.00  0.00    -0.003 A 
ATOM     18  C   UNL     1       3.908   2.853   0.563  0.00  0.00    +0.009 A 
ATOM     19 CL   UNL     1       1.588   6.051   1.303  0.00  0.00    -0.083 Cl
ENDBRANCH   1  17
BRANCH   5  20
ATOM     20  C   UNL     1       2.828   0.297  -3.038  0.00  0.00    +0.209 C 
BRANCH  20  21
ATOM     21  C   UNL     1       2.185   0.697  -4.341  0.00  0.00    +0.231 C 
ATOM     22  O   UNL     1       1.099   1.236  -4.341  0.00  0.00    -0.274 OA
ATOM     23  N   UNL     1       2.816   0.454  -5.507  0.00  0.00    -0.310 N 
ATOM     24  H   UNL     1       3.801  -0.036  -5.508  0.00  0.00    +0.149 HD
BRANCH  23  25
ATOM     25  C   UNL     1       2.190   0.841  -6.774  0.00  0.00    +0.152 C 
BRANCH  25  26
ATOM     26  C   UNL     1       3.109   0.456  -7.935  0.00  0.00    +0.228 C 
ATOM     27  C   UNL     1       2.518   0.970  -9.255  0.00  0.00    +0.275 C 
ATOM     28  O   UNL     1       3.393   0.581 -10.319  0.00  0.00    -0.485 OA
ATOM     29  C   UNL     1       3.830  -0.708 -10.311  0.00  0.00    +0.162 A 
ATOM     30  C   UNL     1       4.369  -1.251 -11.468  0.00  0.00    +0.049 A 
ATOM     31  C   UNL     1       4.820  -2.557 -11.475  0.00  0.00    +0.004 A 
ATOM     32  C   UNL     1       4.736  -3.326 -10.329  0.00  0.00    +0.004 A 
ATOM     33  C   UNL     1       4.199  -2.791  -9.173  0.00  0.00    +0.049 A 
ATOM     34  C   UNL     1       3.744  -1.481  -9.160  0.00  0.00    +0.163 A 
ATOM     35  O   UNL     1       3.212  -0.970  -8.016  0.00  0.00    -0.480 OA
ENDBRANCH  25  26
ENDBRANCH  23  25
ENDBRANCH  20  21
ENDBRANCH   5  20
TORSDOF 5
