REMARK  Name = ZINC64066838
REMARK  6 active torsions:
REMARK  status: ('A' for Active; 'I' for Inactive)
REMARK    1  A    between atoms: C_1  and  C_2
REMARK    2  A    between atoms: C_6  and  C_8
REMARK    3  A    between atoms: N_22  and  C_23
REMARK    4  A    between atoms: C_23  and  C_24
REMARK    5  A    between atoms: C_24  and  C_31
REMARK    6  A    between atoms: C_25  and  C_26
REMARK                            x       y       z     vdW  Elec       q    Type
REMARK                         _______ _______ _______ _____ _____    ______ ____
ROOT
ATOM      1  C   UNL     1       0.058  -2.284   2.507  0.00  0.00    +0.132 C 
ATOM      2  C   UNL     1       1.155  -1.663   3.375  0.00  0.00    +0.129 C 
ATOM      3  C   UNL     1       1.143  -2.431   4.692  0.00  0.00    -0.035 C 
ATOM      4  C   UNL     1       2.381  -2.863   4.885  0.00  0.00    -0.001 A 
ATOM      5  C   UNL     1       3.007  -3.581   6.008  0.00  0.00    +0.010 A 
ATOM      6  C   UNL     1       4.323  -3.887   5.865  0.00  0.00    +0.001 A 
ATOM      7  C   UNL     1       5.072  -3.553   4.732  0.00  0.00    +0.002 A 
ATOM      8  C   UNL     1       4.581  -2.888   3.657  0.00  0.00    +0.026 A 
ATOM      9  C   UNL     1       3.208  -2.508   3.691  0.00  0.00    +0.043 A 
ATOM     10  N   UNL     1       2.490  -1.841   2.808  0.00  0.00    -0.376 N 
ATOM     11  C   UNL     1      -0.134  -2.661   5.463  0.00  0.00    +0.049 C 
ATOM     12  C   UNL     1      -1.169  -3.164   4.441  0.00  0.00    +0.090 C 
ATOM     13  N   UNL     1      -1.198  -2.278   3.273  0.00  0.00    -0.288 NA
ATOM     14  H   UNL     1       2.784  -1.527   1.938  0.00  0.00    +0.160 HD
ENDROOT
BRANCH   1  20
ATOM     15  C   UNL     1      -0.759   2.044   0.405  0.00  0.00    +0.065 C 
ATOM     16  C   UNL     1      -0.497   0.568   0.255  0.00  0.00    +0.039 A 
ATOM     17  C   UNL     1      -0.422   0.012  -1.009  0.00  0.00    +0.023 A 
ATOM     18  C   UNL     1      -0.181  -1.347  -1.136  0.00  0.00    +0.004 A 
ATOM     19  C   UNL     1      -0.023  -2.100   0.018  0.00  0.00    +0.025 A 
ATOM     20  C   UNL     1      -0.112  -1.475   1.247  0.00  0.00    +0.061 A 
ATOM     21  N   UNL     1      -0.337  -0.179   1.330  0.00  0.00    -0.255 NA
ENDBRANCH   1  20
BRANCH  13  22
ATOM     22  C   UNL     1      -2.345  -2.585   2.407  0.00  0.00    +0.115 C 
BRANCH  22  23
ATOM     23  C   UNL     1      -3.621  -2.190   3.104  0.00  0.00    -0.055 C 
ATOM     24  C   UNL     1      -4.167  -1.000   2.869  0.00  0.00    +0.046 C 
ATOM     25  C   UNL     1      -4.279  -3.143   4.069  0.00  0.00    +0.040 C 
BRANCH  24  26
ATOM     26  C   UNL     1      -5.325  -0.553   3.657  0.00  0.00    +0.128 A 
ATOM     27  C   UNL     1      -6.041   0.588   3.451  0.00  0.00    +0.049 A 
ATOM     28  C   UNL     1      -7.052   0.614   4.431  0.00  0.00    +0.042 A 
ATOM     29  C   UNL     1      -6.907  -0.498   5.179  0.00  0.00    +0.195 A 
ATOM     30  O   UNL     1      -5.867  -1.203   4.706  0.00  0.00    -0.464 OA
ENDBRANCH  24  26
ENDBRANCH  22  23
ENDBRANCH  13  22
TORSDOF 4
