REMARK  Name = ZINC09377052
REMARK  13 active torsions:
REMARK  status: ('A' for Active; 'I' for Inactive)
REMARK    1  A    between atoms: C_1  and  C_2
REMARK    2  A    between atoms: C_2  and  O_3
REMARK    3  A    between atoms: O_3  and  C_4
REMARK    4  A    between atoms: C_4  and  C_6
REMARK    5  A    between atoms: C_7  and  C_33
REMARK    6  A    between atoms: C_8  and  C_22
REMARK    7  A    between atoms: C_10  and  N_11
REMARK    8  A    between atoms: C_12  and  C_14
REMARK    9  A    between atoms: C_14  and  N_64
REMARK   10  A    between atoms: C_18  and  C_21
REMARK   11  A    between atoms: N_24  and  C_25
REMARK   12  A    between atoms: C_28  and  C_32
REMARK   13  A    between atoms: C_30  and  C_31
REMARK                            x       y       z     vdW  Elec       q    Type
REMARK                         _______ _______ _______ _____ _____    ______ ____
ROOT
ATOM      1  C   UNL     1       1.239  -0.631  -0.043  0.00  0.00    +0.091 A 
ATOM      2  C   UNL     1       0.003  -0.004  -0.017  0.00  0.00    -0.015 A 
ATOM      3  C   UNL     1      -0.016   1.365  -0.005  0.00  0.00    +0.080 A 
ATOM      4  S   UNL     1       1.717   1.781  -0.031  0.00  0.00    -0.068 S 
ATOM      5  C   UNL     1       2.380   0.180  -0.056  0.00  0.00    +0.087 A 
ATOM      6  C   UNL     1      -1.276  -0.801  -0.003  0.00  0.00    +0.046 C 
ENDROOT
BRANCH   5   7
ATOM      7  N   UNL     1       3.707  -0.202  -0.081  0.00  0.00    -0.281 N 
ATOM      8  C   UNL     1       4.677   0.733  -0.090  0.00  0.00    +0.201 C 
ATOM      9  O   UNL     1       4.385   1.910  -0.075  0.00  0.00    -0.278 OA
ATOM     10  H   UNL     1       3.940  -1.144  -0.093  0.00  0.00    +0.155 HD
BRANCH   8  11
ATOM     11  C   UNL     1       6.125   0.316  -0.118  0.00  0.00    +0.019 C 
BRANCH  11  18
ATOM     12  C   UNL     1       6.816   2.271  -1.371  0.00  0.00    -0.050 C 
ATOM     13  C   UNL     1       7.676   3.536  -1.308  0.00  0.00    +0.141 C 
ATOM     14  O   UNL     1       9.038   3.170  -1.071  0.00  0.00    -0.380 OA
ATOM     15  C   UNL     1       9.233   2.429   0.138  0.00  0.00    +0.099 C 
ATOM     16  C   UNL     1       8.389   1.153   0.090  0.00  0.00    -0.046 C 
ATOM     17  C   UNL     1      10.711   2.060   0.278  0.00  0.00    +0.036 C 
ATOM     18  N   UNL     1       6.972   1.529  -0.102  0.00  0.00    +0.389 N 
ATOM     19  H   UNL     1       6.678   2.131   0.676  0.00  0.00    -0.081 HD
ENDBRANCH  11  18
ENDBRANCH   8  11
ENDBRANCH   5   7
BRANCH   3  20
ATOM     20  C   UNL     1      -1.172   2.263   0.017  0.00  0.00    +0.255 C 
ATOM     21  O   UNL     1      -2.300   1.804   0.027  0.00  0.00    -0.269 OA
ATOM     22  N   UNL     1      -0.988   3.598   0.027  0.00  0.00    -0.281 N 
ATOM     23  H   UNL     1      -0.092   3.963   0.099  0.00  0.00    +0.155 HD
BRANCH  22  24
ATOM     24  C   UNL     1      -2.088   4.456  -0.069  0.00  0.00    +0.037 A 
ATOM     25  C   UNL     1      -3.261   4.020  -0.671  0.00  0.00    +0.024 A 
ATOM     26  C   UNL     1      -4.345   4.870  -0.764  0.00  0.00    +0.005 A 
ATOM     27  C   UNL     1      -4.264   6.154  -0.258  0.00  0.00    -0.050 A 
ATOM     28  C   UNL     1      -3.098   6.592   0.343  0.00  0.00    +0.008 A 
ATOM     29  C   UNL     1      -2.012   5.745   0.444  0.00  0.00    -0.029 A 
ATOM     30  C   UNL     1      -0.743   6.220   1.104  0.00  0.00    +0.045 C 
ATOM     31  C   UNL     1      -5.450   7.079  -0.360  0.00  0.00    +0.044 C 
ENDBRANCH  22  24
ENDBRANCH   3  20
BRANCH   1  32
ATOM     32  C   UNL     1       1.348  -2.094  -0.057  0.00  0.00    +0.342 C 
ATOM     33  O   UNL     1       1.375  -2.691  -1.116  0.00  0.00    -0.245 OA
BRANCH  32  34
ATOM     34  O   UNL     1       1.418  -2.776   1.104  0.00  0.00    -0.461 OA
BRANCH  34  36
ATOM     35  C   UNL     1       1.592  -4.816   2.422  0.00  0.00    +0.048 C 
ATOM     36  C   UNL     1       1.524  -4.221   1.014  0.00  0.00    +0.229 C 
ENDBRANCH  34  36
ENDBRANCH  32  34
ENDBRANCH   1  32
TORSDOF 8
