REMARK  Name = ZINC47222082
REMARK  7 active torsions:
REMARK  status: ('A' for Active; 'I' for Inactive)
REMARK    1  A    between atoms: C_1  and  C_2
REMARK    2  A    between atoms: C_3  and  C_28
REMARK    3  A    between atoms: N_4  and  C_22
REMARK    4  A    between atoms: C_5  and  S_7
REMARK    5  A    between atoms: S_7  and  C_8
REMARK    6  A    between atoms: C_8  and  C_9
REMARK    7  A    between atoms: C_9  and  C_11
REMARK                            x       y       z     vdW  Elec       q    Type
REMARK                         _______ _______ _______ _____ _____    ______ ____
ROOT
ATOM      1  S   UNL     1       0.059  -3.453   1.776  0.00  0.00    -0.082 S 
ENDROOT
BRANCH   1   6
ATOM      2  C   UNL     1      -0.018   1.503   0.010  0.00  0.00    +0.065 C 
ATOM      3  C   UNL     1       0.002  -0.004   0.002  0.00  0.00    +0.034 A 
ATOM      4  C   UNL     1       0.008  -0.785  -1.092  0.00  0.00    +0.037 A 
ATOM      5  N   UNL     1       0.028  -2.090  -0.654  0.00  0.00    -0.321 N 
ATOM      6  C   UNL     1       0.034  -2.053   0.707  0.00  0.00    +0.148 A 
ATOM      7  N   UNL     1       0.024  -0.796   1.087  0.00  0.00    -0.338 N 
ATOM      8  C   UNL     1      -0.006  -0.320  -2.525  0.00  0.00    +0.065 C 
ATOM      9  H   UNL     1       0.028  -0.488   2.007  0.00  0.00    +0.168 HD
BRANCH   5  10
ATOM     10  C   UNL     1       0.041  -3.291  -1.493  0.00  0.00    +0.089 C 
ATOM     11  C   UNL     1      -1.195  -4.139  -1.187  0.00  0.00    +0.025 C 
ATOM     12  C   UNL     1      -1.182  -5.393  -2.064  0.00  0.00    +0.002 C 
ATOM     13  C   UNL     1       0.080  -6.207  -1.771  0.00  0.00    +0.000 C 
ATOM     14  C   UNL     1       1.316  -5.358  -2.077  0.00  0.00    +0.002 C 
ATOM     15  C   UNL     1       1.303  -4.104  -1.200  0.00  0.00    +0.025 C 
ENDBRANCH   5  10
ENDBRANCH   1   6
BRANCH   1  16
ATOM     16  C   UNL     1       0.057  -2.734   3.441  0.00  0.00    +0.156 C 
BRANCH  16  17
ATOM     17  C   UNL     1       0.078  -3.839   4.466  0.00  0.00    +0.173 C 
ATOM     18  O   UNL     1       0.092  -4.997   4.108  0.00  0.00    -0.291 OA
BRANCH  17  19
ATOM     19  C   UNL     1       0.080  -3.513   5.898  0.00  0.00    +0.019 A 
ATOM     20  C   UNL     1       0.058  -2.176   6.317  0.00  0.00    +0.013 A 
ATOM     21  C   UNL     1       0.060  -1.876   7.646  0.00  0.00    +0.024 A 
ATOM     22  C   UNL     1       0.086  -2.893   8.608  0.00  0.00    +0.039 A 
ATOM     23  C   UNL     1       0.108  -4.219   8.194  0.00  0.00    -0.024 A 
ATOM     24  C   UNL     1       0.099  -4.535   6.854  0.00  0.00    +0.017 A 
ATOM     25  C   UNL     1       0.132  -5.104   9.420  0.00  0.00    +0.056 C 
ATOM     26  C   UNL     1       0.121  -4.123  10.604  0.00  0.00    +0.118 C 
ATOM     27  N   UNL     1       0.093  -2.789   9.997  0.00  0.00    -0.273 N 
ATOM     28  C   UNL     1       0.076  -1.630  10.684  0.00  0.00    +0.332 C 
ATOM     29  O   UNL     1       0.053  -0.573  10.090  0.00  0.00    -0.279 OA
ENDBRANCH  17  19
ENDBRANCH  16  17
ENDBRANCH   1  16
TORSDOF 5
