REMARK  Name = ZINC20179762
REMARK  11 active torsions:
REMARK  status: ('A' for Active; 'I' for Inactive)
REMARK    1  A    between atoms: C_1  and  C_2
REMARK    2  A    between atoms: C_5  and  C_37
REMARK    3  A    between atoms: N_8  and  C_10
REMARK    4  A    between atoms: C_10  and  C_11
REMARK    5  A    between atoms: C_11  and  C_12
REMARK    6  A    between atoms: C_12  and  N_13
REMARK    7  A    between atoms: C_14  and  C_16
REMARK    8  A    between atoms: N_22  and  C_36
REMARK    9  A    between atoms: C_26  and  C_27
REMARK   10  A    between atoms: C_32  and  O_33
REMARK   11  A    between atoms: O_33  and  C_34
REMARK                            x       y       z     vdW  Elec       q    Type
REMARK                         _______ _______ _______ _____ _____    ______ ____
ROOT
ATOM      1  C   UNL     1      -1.573   2.622   1.335  0.00  0.00    +0.039 A 
ATOM      2  C   UNL     1      -0.645   1.664   0.915  0.00  0.00    +0.014 A 
ATOM      3  C   UNL     1       0.614   2.062   0.523  0.00  0.00    +0.017 A 
ATOM      4  C   UNL     1       0.962   3.406   0.551  0.00  0.00    +0.034 A 
ATOM      5  C   UNL     1       0.047   4.377   0.974  0.00  0.00    +0.051 A 
ATOM      6  C   UNL     1      -1.222   3.972   1.369  0.00  0.00    +0.037 A 
ATOM      7  N   UNL     1       0.351   5.733   1.014  0.00  0.00    -0.269 N 
ATOM      8  C   UNL     1       1.328   6.351   0.346  0.00  0.00    +0.257 C 
ATOM      9  O   UNL     1       1.428   7.562   0.407  0.00  0.00    -0.269 OA
ATOM     10  C   UNL     1       2.290   5.577  -0.466  0.00  0.00    +0.076 C 
ATOM     11  C   UNL     1       2.914   6.113  -1.544  0.00  0.00    +0.031 C 
ATOM     12  S   UNL     1       2.582   3.905   0.050  0.00  0.00    -0.082 S 
ATOM     13  C   UNL     1      -0.485   6.569   1.879  0.00  0.00    +0.138 C 
ENDROOT
BRANCH  11  14
ATOM     14  C   UNL     1       2.518   7.439  -2.036  0.00  0.00    +0.018 A 
ATOM     15  C   UNL     1       1.169   7.809  -2.056  0.00  0.00    +0.011 A 
ATOM     16  C   UNL     1       0.805   9.055  -2.520  0.00  0.00    +0.001 A 
ATOM     17  C   UNL     1       1.770   9.944  -2.966  0.00  0.00    +0.004 A 
ATOM     18  C   UNL     1       3.106   9.591  -2.952  0.00  0.00    +0.046 A 
ATOM     19  C   UNL     1       3.492   8.345  -2.485  0.00  0.00    +0.127 A 
BRANCH  19  20
ATOM     20  O   UNL     1       4.805   8.001  -2.466  0.00  0.00    -0.495 OA
ATOM     21  C   UNL     1       5.738   8.974  -2.938  0.00  0.00    +0.277 C 
ENDBRANCH  19  20
ENDBRANCH  11  14
BRANCH   1  23
ATOM     22  N   UNL     1      -3.265   0.900   1.724  0.00  0.00    -0.311 N 
ATOM     23  C   UNL     1      -2.925   2.204   1.751  0.00  0.00    +0.244 C 
ATOM     24  O   UNL     1      -3.733   3.035   2.117  0.00  0.00    -0.270 OA
ATOM     25  H   UNL     1      -2.534   0.148   1.393  0.00  0.00    +0.149 HD
BRANCH  22  26
ATOM     26  C   UNL     1      -4.608   0.484   2.137  0.00  0.00    +0.102 C 
BRANCH  26  27
ATOM     27  C   UNL     1      -4.731  -1.036   2.014  0.00  0.00    +0.000 C 
BRANCH  27  28
ATOM     28  C   UNL     1      -6.134  -1.470   2.444  0.00  0.00    -0.077 C 
BRANCH  28  34
ATOM     29  C   UNL     1      -6.080  -5.321  -0.615  0.00  0.00    +0.005 C 
ATOM     30  C   UNL     1      -6.148  -4.880   0.849  0.00  0.00    -0.031 C 
ATOM     31  C   UNL     1      -7.423  -5.433   1.490  0.00  0.00    +0.003 C 
ATOM     32  C   UNL     1      -7.514  -4.939   2.936  0.00  0.00    -0.031 C 
ATOM     33  C   UNL     1      -7.493  -3.409   2.949  0.00  0.00    -0.076 C 
ATOM     34  N   UNL     1      -6.253  -2.929   2.326  0.00  0.00    +0.380 N 
ATOM     35  C   UNL     1      -6.166  -3.352   0.922  0.00  0.00    -0.076 C 
ATOM     36  C   UNL     1      -6.322  -5.473   3.734  0.00  0.00    +0.005 C 
ATOM     37  H   UNL     1      -5.409  -3.384   2.865  0.00  0.00    -0.082 HD
ENDBRANCH  28  34
ENDBRANCH  27  28
ENDBRANCH  26  27
ENDBRANCH  22  26
ENDBRANCH   1  23
TORSDOF 7
