REMARK  Name = ZINC39914904
REMARK  10 active torsions:
REMARK  status: ('A' for Active; 'I' for Inactive)
REMARK    1  A    between atoms: C_1  and  C_2
REMARK    2  A    between atoms: C_2  and  C_3
REMARK    3  A    between atoms: C_3  and  O_4
REMARK    4  A    between atoms: O_4  and  C_5
REMARK    5  A    between atoms: C_9  and  C_11
REMARK    6  A    between atoms: C_14  and  C_29
REMARK    7  A    between atoms: N_21  and  C_22
REMARK    8  A    between atoms: C_22  and  C_23
REMARK    9  A    between atoms: C_32  and  C_36
REMARK   10  A    between atoms: C_34  and  O_35
REMARK                            x       y       z     vdW  Elec       q    Type
REMARK                         _______ _______ _______ _____ _____    ______ ____
ROOT
ATOM      1  C   UNL     1       2.152  -6.032   3.464  0.00  0.00    +0.142 C 
ATOM      2  C   UNL     1       1.197  -6.572   4.493  0.00  0.00    +0.035 A 
ATOM      3  C   UNL     1      -0.128  -6.689   4.925  0.00  0.00    +0.102 A 
ATOM      4  N   UNL     1      -0.118  -7.396   6.039  0.00  0.00    -0.173 NA
ATOM      5  N   UNL     1       1.081  -7.735   6.352  0.00  0.00    -0.272 N 
ATOM      6  H   UNL     1       1.326  -8.257   7.132  0.00  0.00    +0.189 HD
ATOM      7  C   UNL     1       1.959  -7.251   5.424  0.00  0.00    +0.126 A 
ATOM      8  C   UNL     1       3.368  -7.164   5.027  0.00  0.00    +0.266 C 
ATOM      9  O   UNL     1       4.294  -7.661   5.639  0.00  0.00    -0.268 OA
ATOM     10  N   UNL     1       3.492  -6.458   3.887  0.00  0.00    -0.281 N 
ENDROOT
BRANCH   3  11
ATOM     11  C   UNL     1      -1.325  -6.123   4.255  0.00  0.00    +0.045 A 
ATOM     12  C   UNL     1      -1.203  -5.504   3.013  0.00  0.00    +0.034 A 
ATOM     13  C   UNL     1      -2.320  -4.978   2.393  0.00  0.00    +0.045 A 
ATOM     14  C   UNL     1      -3.560  -5.065   3.002  0.00  0.00    -0.029 A 
ATOM     15  C   UNL     1      -3.691  -5.677   4.234  0.00  0.00    +0.050 A 
ATOM     16  C   UNL     1      -2.579  -6.214   4.863  0.00  0.00    +0.126 A 
ATOM     17  C   UNL     1      -4.773  -4.489   2.318  0.00  0.00    +0.045 C 
ATOM     18 CL   UNL     1      -2.167  -4.206   0.846  0.00  0.00    -0.083 Cl
BRANCH  16  19
ATOM     19  O   UNL     1      -2.708  -6.822   6.072  0.00  0.00    -0.506 OA
ATOM     20  H   UNL     1      -2.605  -6.224   6.825  0.00  0.00    +0.292 HD
ENDBRANCH  16  19
ENDBRANCH   3  11
BRANCH   1  25
ATOM     21  C   UNL     1       1.540  -2.505   2.252  0.00  0.00    +0.121 A 
ATOM     22  C   UNL     1       1.936  -1.763   3.356  0.00  0.00    +0.045 A 
ATOM     23  C   UNL     1       2.399  -2.405   4.488  0.00  0.00    +0.004 A 
ATOM     24  C   UNL     1       2.468  -3.786   4.522  0.00  0.00    +0.006 A 
ATOM     25  C   UNL     1       2.075  -4.527   3.423  0.00  0.00    -0.019 A 
ATOM     26  C   UNL     1       1.606  -3.890   2.291  0.00  0.00    +0.051 A 
BRANCH  21  27
ATOM     27  O   UNL     1       1.084  -1.876   1.137  0.00  0.00    -0.492 OA
BRANCH  27  28
ATOM     28  C   UNL     1       1.044  -0.448   1.168  0.00  0.00    +0.229 C 
BRANCH  28  30
ATOM     29  C   UNL     1       0.465   1.605  -0.131  0.00  0.00    +0.007 C 
ATOM     30  C   UNL     1       0.507   0.076  -0.165  0.00  0.00    +0.038 C 
ENDBRANCH  28  30
ENDBRANCH  27  28
ENDBRANCH  21  27
ENDBRANCH   1  25
BRANCH  10  31
ATOM     31  C   UNL     1       4.746  -6.165   3.189  0.00  0.00    +0.145 C 
BRANCH  31  32
ATOM     32  C   UNL     1       5.318  -4.870   3.705  0.00  0.00    -0.012 A 
ATOM     33  C   UNL     1       4.973  -3.664   3.112  0.00  0.00    +0.008 A 
ATOM     34  C   UNL     1       5.523  -2.498   3.621  0.00  0.00    +0.020 A 
ATOM     35  C   UNL     1       6.391  -2.574   4.694  0.00  0.00    +0.111 A 
ATOM     36  N   UNL     1       6.696  -3.739   5.233  0.00  0.00    -0.263 NA
ATOM     37  C   UNL     1       6.187  -4.867   4.779  0.00  0.00    +0.115 A 
ENDBRANCH  31  32
ENDBRANCH  10  31
TORSDOF 8
