REMARK  Name = ZINC35778726
REMARK  17 active torsions:
REMARK  status: ('A' for Active; 'I' for Inactive)
REMARK    1  A    between atoms: C_1  and  C_2
REMARK    2  A    between atoms: C_2  and  O_3
REMARK    3  A    between atoms: O_3  and  C_4
REMARK    4  A    between atoms: C_4  and  C_5
REMARK    5  A    between atoms: C_5  and  C_7
REMARK    6  A    between atoms: C_5  and  O_36
REMARK    7  A    between atoms: C_7  and  N_8
REMARK    8  A    between atoms: N_8  and  C_9
REMARK    9  A    between atoms: N_8  and  C_14
REMARK   10  A    between atoms: C_9  and  C_10
REMARK   11  A    between atoms: C_10  and  C_11
REMARK   12  A    between atoms: C_11  and  O_12
REMARK   13  A    between atoms: O_12  and  C_13
REMARK   14  A    between atoms: C_14  and  C_15
REMARK   15  A    between atoms: C_25  and  C_27
REMARK   16  A    between atoms: C_27  and  O_28
REMARK   17  A    between atoms: O_28  and  C_29
REMARK                            x       y       z     vdW  Elec       q    Type
REMARK                         _______ _______ _______ _____ _____    ______ ____
ROOT
ATOM      1  C   UNL     1       2.822  -5.530   5.994  0.00  0.00    +0.200 C 
ATOM      2  O   UNL     1       3.279  -4.543   6.532  0.00  0.00    -0.278 OA
ATOM      3  N   UNL     1       2.944  -6.736   6.582  0.00  0.00    -0.292 N 
ATOM      4  C   UNL     1       2.400  -7.939   5.935  0.00  0.00    +0.113 C 
ATOM      5  C   UNL     1       3.571  -8.867   5.578  0.00  0.00    +0.061 C 
ATOM      6  C   UNL     1       4.522  -8.902   6.730  0.00  0.00    -0.004 A 
ATOM      7  C   UNL     1       4.598  -8.038   7.778  0.00  0.00    -0.014 A 
ATOM      8  C   UNL     1       5.590  -8.289   8.725  0.00  0.00    +0.013 A 
ATOM      9  C   UNL     1       6.413  -9.352   8.577  0.00  0.00    +0.046 A 
ATOM     10  S   UNL     1       5.816 -10.071   7.055  0.00  0.00    -0.101 S 
ATOM     11  C   UNL     1       3.628  -6.868   7.875  0.00  0.00    +0.144 C 
ENDROOT
BRANCH   1  12
ATOM     12  C   UNL     1       2.119  -5.406   4.667  0.00  0.00    +0.019 C 
BRANCH  12  13
ATOM     13  N   UNL     1       2.119  -4.000   4.241  0.00  0.00    +0.387 N 
ATOM     14  H   UNL     1       1.712  -3.429   4.967  0.00  0.00    -0.081 HD
BRANCH  13  15
ATOM     15  C   UNL     1       1.331  -3.861   3.009  0.00  0.00    -0.044 C 
BRANCH  15  16
ATOM     16  C   UNL     1      -0.136  -4.184   3.303  0.00  0.00    +0.124 C 
BRANCH  16  17
ATOM     17  O   UNL     1      -0.639  -3.271   4.279  0.00  0.00    -0.391 OA
ATOM     18  H   UNL     1      -0.666  -2.352   3.981  0.00  0.00    +0.210 HD
ENDBRANCH  16  17
BRANCH  16  19
ATOM     19  C   UNL     1      -0.953  -4.057   2.016  0.00  0.00    +0.189 C 
BRANCH  19  20
ATOM     20  O   UNL     1      -2.298  -4.471   2.263  0.00  0.00    -0.378 OA
BRANCH  20  22
ATOM     21  C   UNL     1      -4.558  -4.855   1.498  0.00  0.00    +0.034 C 
ATOM     22  C   UNL     1      -3.151  -4.390   1.119  0.00  0.00    +0.156 C 
ENDBRANCH  20  22
ENDBRANCH  19  20
ENDBRANCH  16  19
ENDBRANCH  15  16
ENDBRANCH  13  15
BRANCH  13  23
ATOM     23  C   UNL     1       3.499  -3.564   3.991  0.00  0.00    -0.076 C 
BRANCH  23  24
ATOM     24  C   UNL     1       3.514  -2.064   3.692  0.00  0.00    +0.009 C 
BRANCH  24  25
ATOM     25  C   UNL     1       4.961  -1.583   3.566  0.00  0.00    +0.157 C 
BRANCH  25  26
ATOM     26  O   UNL     1       4.975  -0.182   3.286  0.00  0.00    -0.383 OA
ATOM     27  C   UNL     1       6.286   0.370   3.149  0.00  0.00    +0.193 C 
ENDBRANCH  25  26
ENDBRANCH  24  25
ENDBRANCH  23  24
ENDBRANCH  13  23
ENDBRANCH  12  13
ENDBRANCH   1  12
BRANCH  11  28
ATOM     28  C   UNL     1       2.603  -7.141   8.978  0.00  0.00    +0.256 C 
BRANCH  28  29
ATOM     29  O   UNL     1       1.984  -8.409   8.750  0.00  0.00    -0.487 OA
BRANCH  29  30
ATOM     30  C   UNL     1       1.041  -8.806   9.646  0.00  0.00    +0.156 A 
ATOM     31  C   UNL     1       0.715  -7.990  10.718  0.00  0.00    +0.048 A 
ATOM     32  C   UNL     1      -0.244  -8.395  11.627  0.00  0.00    +0.004 A 
ATOM     33  C   UNL     1      -0.877  -9.614  11.470  0.00  0.00    +0.003 A 
ATOM     34  C   UNL     1      -0.554 -10.431  10.402  0.00  0.00    +0.042 A 
ATOM     35  C   UNL     1       0.400 -10.027   9.485  0.00  0.00    +0.165 A 
ATOM     36  F   UNL     1       0.711 -10.823   8.439  0.00  0.00    -0.202 F 
ENDBRANCH  29  30
ENDBRANCH  28  29
ENDBRANCH  11  28
TORSDOF 15
