REMARK  Name = ZINC20292457
REMARK  9 active torsions:
REMARK  status: ('A' for Active; 'I' for Inactive)
REMARK    1  A    between atoms: C_4  and  O_7
REMARK    2  A    between atoms: O_7  and  C_8
REMARK    3  A    between atoms: C_12  and  C_14
REMARK    4  A    between atoms: N_15  and  N_16
REMARK    5  A    between atoms: C_20  and  S_23
REMARK    6  A    between atoms: N_21  and  N_22
REMARK    7  A    between atoms: S_23  and  C_24
REMARK    8  A    between atoms: C_24  and  C_25
REMARK    9  A    between atoms: C_25  and  C_27
REMARK                            x       y       z     vdW  Elec       q    Type
REMARK                         _______ _______ _______ _____ _____    ______ ____
ROOT
ATOM      1  N   UNL     1       6.941  -7.255  -1.633  0.00  0.00    -0.204 N 
ATOM      2  C   UNL     1       6.764  -8.620  -1.456  0.00  0.00    +0.254 A 
ATOM      3  N   UNL     1       5.665  -9.292  -1.700  0.00  0.00    -0.109 NA
ATOM      4  N   UNL     1       5.903 -10.638  -1.391  0.00  0.00    -0.119 NA
ATOM      5  C   UNL     1       7.141 -10.744  -0.969  0.00  0.00    +0.210 A 
ATOM      6  N   UNL     1       7.706  -9.501  -1.003  0.00  0.00    -0.211 N 
ATOM      7  H   UNL     1       7.797  -6.847  -1.428  0.00  0.00    +0.177 HD
ENDROOT
BRANCH   6   8
ATOM      8  N   UNL     1       8.988  -9.192  -0.644  0.00  0.00    -0.294 N 
ATOM      9  H   UNL     1       9.042  -8.959   0.336  0.00  0.00    +0.163 HD
ATOM     10  H   UNL     1       9.619  -9.945  -0.873  0.00  0.00    +0.163 HD
ENDBRANCH   6   8
BRANCH   1  12
ATOM     11  C   UNL     1       6.051  -5.189  -2.272  0.00  0.00    +0.138 C 
ATOM     12  N   UNL     1       5.885  -6.467  -2.107  0.00  0.00    -0.188 NA
BRANCH  11  17
ATOM     13  C   UNL     1       4.065  -2.214  -3.418  0.00  0.00    +0.129 A 
ATOM     14  C   UNL     1       2.842  -2.805  -3.709  0.00  0.00    +0.046 A 
ATOM     15  C   UNL     1       2.667  -4.165  -3.533  0.00  0.00    +0.004 A 
ATOM     16  C   UNL     1       3.705  -4.945  -3.066  0.00  0.00    +0.010 A 
ATOM     17  C   UNL     1       4.939  -4.360  -2.771  0.00  0.00    -0.002 A 
ATOM     18  C   UNL     1       5.116  -2.987  -2.955  0.00  0.00    +0.055 A 
BRANCH  13  19
ATOM     19  O   UNL     1       4.232  -0.877  -3.594  0.00  0.00    -0.456 OA
BRANCH  19  23
ATOM     20  C   UNL     1       5.664   0.435  -7.233  0.00  0.00    +0.000 A 
ATOM     21  C   UNL     1       5.483  -0.917  -7.010  0.00  0.00    +0.004 A 
ATOM     22  C   UNL     1       5.004  -1.359  -5.792  0.00  0.00    +0.046 A 
ATOM     23  C   UNL     1       4.704  -0.445  -4.792  0.00  0.00    +0.128 A 
ATOM     24  C   UNL     1       4.887   0.912  -5.019  0.00  0.00    +0.046 A 
ATOM     25  C   UNL     1       5.366   1.349  -6.239  0.00  0.00    +0.004 A 
ENDBRANCH  19  23
ENDBRANCH  13  19
ENDBRANCH  11  17
ENDBRANCH   1  12
BRANCH   5  26
ATOM     26  S   UNL     1       7.936 -12.230  -0.455  0.00  0.00    -0.077 S 
BRANCH  26  27
ATOM     27  C   UNL     1       6.659 -13.502  -0.654  0.00  0.00    +0.152 C 
BRANCH  27  28
ATOM     28  C   UNL     1       7.215 -14.841  -0.243  0.00  0.00    +0.147 C 
ATOM     29  O   UNL     1       8.355 -14.928   0.144  0.00  0.00    -0.296 OA
BRANCH  28  30
ATOM     30  C   UNL     1       6.348 -16.072  -0.316  0.00  0.00    +0.062 C 
ATOM     31  C   UNL     1       5.323 -16.042   0.819  0.00  0.00    +0.000 C 
ATOM     32  C   UNL     1       4.443 -17.291   0.746  0.00  0.00    +0.007 C 
ATOM     33  C   UNL     1       5.318 -18.539   0.881  0.00  0.00    -0.010 C 
ATOM     34  C   UNL     1       6.047 -18.508   2.225  0.00  0.00    +0.007 C 
ATOM     35  C   UNL     1       6.927 -17.258   2.299  0.00  0.00    -0.010 C 
ATOM     36  C   UNL     1       6.053 -16.010   2.164  0.00  0.00    +0.007 C 
ATOM     37  C   UNL     1       7.952 -17.289   1.164  0.00  0.00    +0.007 C 
ATOM     38  C   UNL     1       7.223 -17.320  -0.181  0.00  0.00    +0.000 C 
ATOM     39  C   UNL     1       6.343 -18.570  -0.255  0.00  0.00    +0.007 C 
ENDBRANCH  28  30
ENDBRANCH  27  28
ENDBRANCH  26  27
ENDBRANCH   5  26
TORSDOF 9
