REMARK  Name = ZINC57774474
REMARK  7 active torsions:
REMARK  status: ('A' for Active; 'I' for Inactive)
REMARK    1  A    between atoms: C_1  and  C_2
REMARK    2  A    between atoms: C_11  and  C_13
REMARK    3  A    between atoms: C_13  and  C_15
REMARK    4  A    between atoms: C_13  and  O_36
REMARK    5  A    between atoms: C_15  and  N_16
REMARK    6  A    between atoms: C_24  and  C_26
REMARK    7  A    between atoms: C_24  and  O_35
REMARK                            x       y       z     vdW  Elec       q    Type
REMARK                         _______ _______ _______ _____ _____    ______ ____
ROOT
ATOM      1  N   UNL     1       1.425  -8.123  -2.773  0.00  0.00    +0.385 N 
ATOM      2  C   UNL     1       0.639  -9.000  -1.865  0.00  0.00    -0.065 C 
ATOM      3  C   UNL     1       1.607  -9.302  -0.697  0.00  0.00    -0.017 C 
ATOM      4  C   UNL     1       3.017  -9.138  -1.300  0.00  0.00    -0.017 C 
ATOM      5  C   UNL     1       2.774  -8.751  -2.777  0.00  0.00    -0.065 C 
ATOM      6  C   UNL     1       2.669 -10.050  -3.593  0.00  0.00    +0.024 C 
ATOM      7  C   UNL     1       1.719 -11.011  -2.873  0.00  0.00    +0.088 C 
ATOM      8  C   UNL     1       0.366 -10.311  -2.619  0.00  0.00    +0.024 C 
ATOM      9  H   UNL     1       1.030  -8.125  -3.701  0.00  0.00    -0.081 HD
ENDROOT
BRANCH   7  10
ATOM     10  C   UNL     1       1.494 -12.229  -3.732  0.00  0.00    -0.013 A 
ATOM     11  C   UNL     1       1.556 -12.123  -5.109  0.00  0.00    +0.010 A 
ATOM     12  C   UNL     1       1.351 -13.238  -5.901  0.00  0.00    +0.050 A 
ATOM     13  C   UNL     1       1.082 -14.464  -5.316  0.00  0.00    +0.166 A 
ATOM     14  C   UNL     1       1.019 -14.571  -3.929  0.00  0.00    +0.167 A 
ATOM     15  C   UNL     1       1.232 -13.451  -3.141  0.00  0.00    +0.056 A 
ATOM     16  O   UNL     1       0.743 -15.867  -3.603  0.00  0.00    -0.453 OA
ATOM     17  C   UNL     1       0.234 -16.467  -4.809  0.00  0.00    +0.466 C 
ATOM     18  O   UNL     1       0.845 -15.694  -5.859  0.00  0.00    -0.453 OA
ENDBRANCH   7  10
BRANCH   7  19
ATOM     19  O   UNL     1       2.298 -11.409  -1.629  0.00  0.00    -0.384 OA
ATOM     20  H   UNL     1       1.750 -12.020  -1.118  0.00  0.00    +0.211 HD
ENDBRANCH   7  19
BRANCH   1  21
ATOM     21  C   UNL     1       1.493  -6.756  -2.242  0.00  0.00    -0.041 C 
BRANCH  21  22
ATOM     22  C   UNL     1       2.303  -5.877  -3.197  0.00  0.00    +0.128 C 
BRANCH  22  33
ATOM     23  C   UNL     1       2.432   1.675  -0.345  0.00  0.00    +0.109 C 
ATOM     24  C   UNL     1       2.011   0.389  -1.009  0.00  0.00    +0.217 C 
ATOM     25  O   UNL     1       0.918   0.305  -1.528  0.00  0.00    -0.276 OA
ATOM     26  N   UNL     1       2.848  -0.667  -1.025  0.00  0.00    -0.271 N 
ATOM     27  C   UNL     1       4.186  -0.687  -0.427  0.00  0.00    +0.118 C 
ATOM     28  C   UNL     1       4.731  -2.097  -0.708  0.00  0.00    +0.056 C 
ATOM     29  C   UNL     1       3.623  -2.789  -1.469  0.00  0.00    -0.024 A 
ATOM     30  C   UNL     1       2.565  -1.905  -1.609  0.00  0.00    +0.039 A 
ATOM     31  C   UNL     1       1.415  -2.325  -2.280  0.00  0.00    +0.024 A 
ATOM     32  C   UNL     1       1.335  -3.604  -2.789  0.00  0.00    +0.008 A 
ATOM     33  C   UNL     1       2.394  -4.480  -2.640  0.00  0.00    -0.021 A 
ATOM     34  C   UNL     1       3.540  -4.068  -1.984  0.00  0.00    +0.011 A 
ENDBRANCH  22  33
BRANCH  22  35
ATOM     35  O   UNL     1       1.660  -5.840  -4.472  0.00  0.00    -0.389 OA
ATOM     36  H   UNL     1       0.761  -5.483  -4.449  0.00  0.00    +0.210 HD
ENDBRANCH  22  35
ENDBRANCH  21  22
ENDBRANCH   1  21
TORSDOF 6
