REMARK  Name = ZINC20288868
REMARK  10 active torsions:
REMARK  status: ('A' for Active; 'I' for Inactive)
REMARK    1  A    between atoms: C_1  and  C_2
REMARK    2  A    between atoms: C_2  and  N_26
REMARK    3  A    between atoms: C_4  and  C_18
REMARK    4  A    between atoms: N_6  and  C_9
REMARK    5  A    between atoms: C_12  and  N_15
REMARK    6  A    between atoms: C_21  and  O_24
REMARK    7  A    between atoms: O_24  and  C_25
REMARK    8  A    between atoms: N_26  and  C_27
REMARK    9  A    between atoms: C_27  and  C_28
REMARK   10  A    between atoms: C_28  and  C_29
REMARK                            x       y       z     vdW  Elec       q    Type
REMARK                         _______ _______ _______ _____ _____    ______ ____
ROOT
ATOM      1  C   UNL     1      -0.667   1.428   0.086  0.00  0.00    +0.061 C 
ATOM      2  C   UNL     1      -0.333  -0.041   0.041  0.00  0.00    +0.015 C 
ATOM      3  C   UNL     1      -0.031  -0.717   1.208  0.00  0.00    +0.083 C 
ATOM      4  C   UNL     1       0.143  -0.139   2.555  0.00  0.00    +0.103 C 
ATOM      5  N   UNL     1       0.419  -1.128   3.366  0.00  0.00    -0.171 NA
ATOM      6  N   UNL     1       0.444  -2.334   2.664  0.00  0.00    -0.156 N 
ATOM      7  C   UNL     1       0.171  -2.117   1.363  0.00  0.00    +0.274 C 
ATOM      8  O   UNL     1       0.111  -2.961   0.484  0.00  0.00    -0.268 OA
ENDROOT
BRANCH   6   9
ATOM      9  C   UNL     1       0.709  -3.587   3.230  0.00  0.00    +0.060 A 
ATOM     10  C   UNL     1       0.714  -4.724   2.432  0.00  0.00    +0.028 A 
ATOM     11  C   UNL     1       0.976  -5.958   2.993  0.00  0.00    +0.034 A 
ATOM     12  C   UNL     1       1.233  -6.063   4.348  0.00  0.00    +0.126 A 
ATOM     13  C   UNL     1       1.228  -4.933   5.145  0.00  0.00    +0.034 A 
ATOM     14  C   UNL     1       0.973  -3.695   4.589  0.00  0.00    +0.028 A 
BRANCH  12  15
ATOM     15  N   UNL     1       1.514  -7.388   4.947  0.00  0.00    +0.056 N 
ATOM     16  O   UNL     1       1.518  -8.377   4.251  0.00  0.00    -0.126 OA
ATOM     17  O   UNL     1       1.738  -7.481   6.131  0.00  0.00    -0.126 OA
ENDBRANCH  12  15
ENDBRANCH   6   9
BRANCH   4  18
ATOM     18  C   UNL     1       0.027   1.291   2.921  0.00  0.00    +0.003 A 
ATOM     19  C   UNL     1      -0.958   1.707   3.817  0.00  0.00    +0.013 A 
ATOM     20  C   UNL     1      -1.062   3.039   4.155  0.00  0.00    +0.046 A 
ATOM     21  C   UNL     1      -0.188   3.968   3.604  0.00  0.00    +0.120 A 
ATOM     22  C   UNL     1       0.793   3.558   2.712  0.00  0.00    +0.046 A 
ATOM     23  C   UNL     1       0.907   2.226   2.373  0.00  0.00    +0.013 A 
BRANCH  21  24
ATOM     24  O   UNL     1      -0.294   5.280   3.939  0.00  0.00    -0.495 OA
ATOM     25  C   UNL     1       0.637   6.181   3.336  0.00  0.00    +0.277 C 
ENDBRANCH  21  24
ENDBRANCH   4  18
BRANCH   2  26
ATOM     26  N   UNL     1      -0.328  -0.696  -1.139  0.00  0.00    -0.346 N 
ATOM     27  H   UNL     1      -0.112  -1.641  -1.168  0.00  0.00    +0.146 HD
BRANCH  26  28
ATOM     28  C   UNL     1      -0.648   0.021  -2.376  0.00  0.00    +0.106 C 
BRANCH  28  29
ATOM     29  C   UNL     1      -0.571  -0.945  -3.560  0.00  0.00    +0.061 C 
BRANCH  29  30
ATOM     30  C   UNL     1      -0.900  -0.207  -4.832  0.00  0.00    -0.009 A 
ATOM     31  C   UNL     1      -0.067   0.442  -5.682  0.00  0.00    +0.011 A 
ATOM     32  C   UNL     1      -0.597   1.054  -6.802  0.00  0.00    +0.008 A 
ATOM     33  C   UNL     1      -1.934   0.988  -7.017  0.00  0.00    +0.045 A 
ATOM     34  S   UNL     1      -2.487   0.032  -5.615  0.00  0.00    -0.102 S 
ENDBRANCH  29  30
ENDBRANCH  28  29
ENDBRANCH  26  28
ENDBRANCH   2  26
TORSDOF 8
