REMARK  Name = ZINC36608905
REMARK  10 active torsions:
REMARK  status: ('A' for Active; 'I' for Inactive)
REMARK    1  A    between atoms: C_1  and  C_2
REMARK    2  A    between atoms: C_2  and  C_3
REMARK    3  A    between atoms: C_2  and  C_4
REMARK    4  A    between atoms: C_2  and  N_5
REMARK    5  A    between atoms: C_6  and  C_8
REMARK    6  A    between atoms: C_8  and  C_10
REMARK    7  A    between atoms: C_8  and  N_19
REMARK    8  A    between atoms: C_13  and  N_16
REMARK    9  A    between atoms: N_19  and  C_20
REMARK   10  A    between atoms: C_26  and  C_28
REMARK                            x       y       z     vdW  Elec       q    Type
REMARK                         _______ _______ _______ _____ _____    ______ ____
ROOT
ATOM      1  C   UNL     1       1.833  -0.334  -4.021  0.00  0.00    +0.197 C 
ENDROOT
BRANCH   1   2
ATOM      2  C   UNL     1       0.901  -0.562  -5.184  0.00  0.00    -0.018 A 
ATOM      3  C   UNL     1       1.033  -1.696  -5.963  0.00  0.00    +0.008 A 
ATOM      4  C   UNL     1       0.179  -1.905  -7.029  0.00  0.00    +0.033 A 
ATOM      5  C   UNL     1      -0.808  -0.981  -7.316  0.00  0.00    +0.126 A 
ATOM      6  C   UNL     1      -0.941   0.153  -6.535  0.00  0.00    +0.033 A 
ATOM      7  C   UNL     1      -0.089   0.360  -5.467  0.00  0.00    +0.008 A 
BRANCH   5   8
ATOM      8  N   UNL     1      -1.723  -1.204  -8.458  0.00  0.00    +0.056 N 
ATOM      9  O   UNL     1      -1.607  -2.196  -9.140  0.00  0.00    -0.126 OA
ATOM     10  O   UNL     1      -2.586  -0.396  -8.708  0.00  0.00    -0.126 OA
ENDBRANCH   5   8
ENDBRANCH   1   2
BRANCH   1  12
ATOM     11  N   UNL     1       1.301  -2.494  -2.941  0.00  0.00    -0.309 N 
ATOM     12  C   UNL     1       2.238  -1.661  -3.434  0.00  0.00    +0.239 C 
ATOM     13  O   UNL     1       3.408  -1.979  -3.405  0.00  0.00    -0.273 OA
ATOM     14  H   UNL     1       0.365  -2.240  -2.964  0.00  0.00    +0.149 HD
BRANCH  11  16
ATOM     15  C   UNL     1       2.641  -3.553  -1.191  0.00  0.00    +0.031 C 
ATOM     16  C   UNL     1       1.695  -3.785  -2.371  0.00  0.00    +0.026 C 
ATOM     17  C   UNL     1       2.406  -4.619  -3.438  0.00  0.00    +0.031 C 
ATOM     18  C   UNL     1       0.450  -4.530  -1.887  0.00  0.00    +0.031 C 
ENDBRANCH  11  16
ENDBRANCH   1  12
BRANCH   1  19
ATOM     19  N   UNL     1       3.026   0.381  -4.484  0.00  0.00    -0.251 N 
ATOM     20  C   UNL     1       3.318   1.598  -3.986  0.00  0.00    +0.252 C 
ATOM     21  O   UNL     1       4.348   2.157  -4.311  0.00  0.00    -0.270 OA
BRANCH  20  22
ATOM     22  C   UNL     1       2.387   2.254  -3.043  0.00  0.00    +0.039 A 
ATOM     23  C   UNL     1       1.916   1.561  -1.927  0.00  0.00    +0.013 A 
ATOM     24  C   UNL     1       1.048   2.178  -1.050  0.00  0.00    +0.002 A 
ATOM     25  C   UNL     1       0.643   3.482  -1.276  0.00  0.00    +0.020 A 
ATOM     26  C   UNL     1       1.106   4.176  -2.381  0.00  0.00    +0.042 A 
ATOM     27  C   UNL     1       1.980   3.571  -3.263  0.00  0.00    +0.033 A 
ATOM     28 CL   UNL     1       0.593   5.811  -2.655  0.00  0.00    -0.084 Cl
ENDBRANCH  20  22
BRANCH  19  29
ATOM     29  C   UNL     1       3.860  -0.201  -5.444  0.00  0.00    +0.038 A 
ATOM     30  C   UNL     1       3.491  -0.196  -6.782  0.00  0.00    +0.023 A 
ATOM     31  C   UNL     1       4.318  -0.771  -7.728  0.00  0.00    +0.002 A 
ATOM     32  C   UNL     1       5.512  -1.352  -7.342  0.00  0.00    +0.000 A 
ATOM     33  C   UNL     1       5.882  -1.359  -6.010  0.00  0.00    +0.002 A 
ATOM     34  C   UNL     1       5.063  -0.781  -5.060  0.00  0.00    +0.023 A 
ENDBRANCH  19  29
ENDBRANCH   1  19
TORSDOF 7
