REMARK  Name = ZINC16639299
REMARK  10 active torsions:
REMARK  status: ('A' for Active; 'I' for Inactive)
REMARK    1  A    between atoms: C_1  and  C_2
REMARK    2  A    between atoms: C_2  and  C_3
REMARK    3  A    between atoms: C_3  and  C_4
REMARK    4  A    between atoms: C_4  and  O_5
REMARK    5  A    between atoms: O_5  and  C_6
REMARK    6  A    between atoms: C_11  and  C_12
REMARK    7  A    between atoms: C_14  and  C_29
REMARK    8  A    between atoms: N_16  and  C_19
REMARK    9  A    between atoms: C_22  and  S_25
REMARK   10  A    between atoms: S_25  and  N_28
REMARK                            x       y       z     vdW  Elec       q    Type
REMARK                         _______ _______ _______ _____ _____    ______ ____
ROOT
ATOM      1  C   UNL     1       1.285   0.200   4.753  0.00  0.00    +0.026 C 
ATOM      2  C   UNL     1       1.957  -0.134   5.916  0.00  0.00    +0.062 C 
ATOM      3  C   UNL     1       3.225  -0.869   6.039  0.00  0.00    +0.069 C 
ATOM      4  N   UNL     1       3.502  -0.962   7.304  0.00  0.00    -0.177 NA
ATOM      5  N   UNL     1       2.520  -0.357   8.087  0.00  0.00    -0.156 N 
ATOM      6  C   UNL     1       1.556   0.164   7.301  0.00  0.00    +0.272 C 
ATOM      7  O   UNL     1       0.556   0.760   7.664  0.00  0.00    -0.268 OA
ATOM      8  C   UNL     1       4.053  -1.411   4.904  0.00  0.00    +0.068 C 
ENDROOT
BRANCH   1  14
ATOM      9  C   UNL     1      -1.015   0.796   4.014  0.00  0.00    +0.128 A 
ATOM     10  C   UNL     1      -2.118   1.633   4.074  0.00  0.00    +0.047 A 
ATOM     11  C   UNL     1      -2.115   2.725   4.920  0.00  0.00    +0.019 A 
ATOM     12  C   UNL     1      -1.006   3.002   5.708  0.00  0.00    +0.019 A 
ATOM     13  C   UNL     1       0.102   2.187   5.661  0.00  0.00    +0.026 A 
ATOM     14  C   UNL     1       0.112   1.071   4.811  0.00  0.00    +0.018 A 
ATOM     15 BR   UNL     1      -1.019   4.506   6.854  0.00  0.00    -0.050 Br
BRANCH   9  16
ATOM     16  O   UNL     1      -1.020  -0.279   3.188  0.00  0.00    -0.491 OA
BRANCH  16  17
ATOM     17  C   UNL     1      -2.199  -0.494   2.410  0.00  0.00    +0.229 C 
BRANCH  17  18
ATOM     18  C   UNL     1      -2.020  -1.744   1.546  0.00  0.00    +0.041 C 
BRANCH  18  20
ATOM     19  C   UNL     1      -3.103  -3.224  -0.151  0.00  0.00    +0.004 C 
ATOM     20  C   UNL     1      -3.282  -1.975   0.713  0.00  0.00    -0.000 C 
ENDBRANCH  18  20
ENDBRANCH  17  18
ENDBRANCH  16  17
ENDBRANCH   9  16
ENDBRANCH   1  14
BRANCH   5  21
ATOM     21  C   UNL     1       2.534  -0.298   9.486  0.00  0.00    +0.060 A 
ATOM     22  C   UNL     1       1.502   0.336  10.166  0.00  0.00    +0.027 A 
ATOM     23  C   UNL     1       1.516   0.388  11.546  0.00  0.00    +0.030 A 
ATOM     24  C   UNL     1       2.560  -0.183  12.251  0.00  0.00    +0.105 A 
ATOM     25  C   UNL     1       3.591  -0.811  11.576  0.00  0.00    +0.030 A 
ATOM     26  C   UNL     1       3.581  -0.870  10.197  0.00  0.00    +0.027 A 
BRANCH  24  27
ATOM     27  S   UNL     1       2.576  -0.110  14.011  0.00  0.00    +0.056 S 
ATOM     28  O   UNL     1       1.226   0.054  14.424  0.00  0.00    -0.153 OA
ATOM     29  O   UNL     1       3.383  -1.192  14.455  0.00  0.00    -0.153 OA
BRANCH  27  30
ATOM     30  N   UNL     1       3.373   1.279  14.436  0.00  0.00    -0.204 NA
ATOM     31  H   UNL     1       3.723   1.867  13.748  0.00  0.00    +0.144 HD
ATOM     32  H   UNL     1       3.489   1.504  15.372  0.00  0.00    +0.144 HD
ENDBRANCH  27  30
ENDBRANCH  24  27
ENDBRANCH   5  21
TORSDOF 8
