REMARK  Name = ZINC63269878
REMARK  5 active torsions:
REMARK  status: ('A' for Active; 'I' for Inactive)
REMARK    1  A    between atoms: C_1  and  C_2
REMARK    2  A    between atoms: C_2  and  C_3
REMARK    3  A    between atoms: C_2  and  N_4
REMARK    4  A    between atoms: N_7  and  N_8
REMARK    5  A    between atoms: C_9  and  C_11
REMARK                            x       y       z     vdW  Elec       q    Type
REMARK                         _______ _______ _______ _____ _____    ______ ____
ROOT
ATOM      1  N   UNL     1       1.921  -1.359  -3.464  0.00  0.00    -0.233 N 
ATOM      2  C   UNL     1       2.552  -1.793  -4.573  0.00  0.00    +0.236 C 
ATOM      3  O   UNL     1       3.761  -1.893  -4.584  0.00  0.00    -0.274 OA
ATOM      4  H   UNL     1       0.955  -1.279  -3.456  0.00  0.00    +0.173 HD
ENDROOT
BRANCH   2   5
ATOM      5  C   UNL     1       1.756  -2.156  -5.800  0.00  0.00    +0.118 C 
ATOM      6  C   UNL     1       2.704  -2.589  -6.921  0.00  0.00    +0.055 C 
ATOM      7  C   UNL     1       1.948  -2.666  -8.224  0.00  0.00    -0.004 A 
ATOM      8  C   UNL     1       2.499  -3.384  -9.272  0.00  0.00    +0.027 A 
ATOM      9  C   UNL     1       1.836  -3.472 -10.481  0.00  0.00    +0.041 A 
ATOM     10  C   UNL     1       0.615  -2.841 -10.648  0.00  0.00    +0.023 A 
ATOM     11  C   UNL     1       0.062  -2.126  -9.606  0.00  0.00    +0.047 A 
ATOM     12  C   UNL     1       0.726  -2.038  -8.386  0.00  0.00    +0.124 A 
ATOM     13  O   UNL     1       0.143  -1.334  -7.381  0.00  0.00    -0.491 OA
ATOM     14  C   UNL     1       0.965  -0.933  -6.283  0.00  0.00    +0.242 C 
ATOM     15 CL   UNL     1       2.533  -4.374 -11.791  0.00  0.00    -0.084 Cl
ENDBRANCH   2   5
BRANCH   1  19
ATOM     16  N   UNL     1       0.688  -0.476  -1.203  0.00  0.00    -0.296 N 
ATOM     17  C   UNL     1       2.031  -0.587  -1.215  0.00  0.00    +0.316 C 
ATOM     18  O   UNL     1       2.674  -0.294  -0.225  0.00  0.00    -0.251 OA
ATOM     19  N   UNL     1       2.662  -1.022  -2.324  0.00  0.00    -0.218 N 
ATOM     20  H   UNL     1       0.175  -0.710  -1.993  0.00  0.00    +0.151 HD
ATOM     21  H   UNL     1       3.628  -1.101  -2.332  0.00  0.00    +0.174 HD
BRANCH  16  23
ATOM     22  C   UNL     1      -0.019   1.526   0.010  0.00  0.00    +0.027 C 
ATOM     23  C   UNL     1       0.002  -0.004   0.002  0.00  0.00    +0.068 C 
ATOM     24  C   UNL     1      -1.433  -0.534   0.013  0.00  0.00    +0.027 C 
ENDBRANCH  16  23
ENDBRANCH   1  19
TORSDOF 3
