REMARK  Name = ZINC20885908
REMARK  10 active torsions:
REMARK  status: ('A' for Active; 'I' for Inactive)
REMARK    1  A    between atoms: C_1  and  C_2
REMARK    2  A    between atoms: C_2  and  C_3
REMARK    3  A    between atoms: C_3  and  O_4
REMARK    4  A    between atoms: O_4  and  C_5
REMARK    5  A    between atoms: C_8  and  C_11
REMARK    6  A    between atoms: C_16  and  C_26
REMARK    7  A    between atoms: C_28  and  N_35
REMARK    8  A    between atoms: C_29  and  O_34
REMARK    9  A    between atoms: C_30  and  O_32
REMARK   10  A    between atoms: O_32  and  C_33
REMARK                            x       y       z     vdW  Elec       q    Type
REMARK                         _______ _______ _______ _____ _____    ______ ____
ROOT
ATOM      1  C   UNL     1       1.301   5.849   2.555  0.00  0.00    +0.032 C 
ATOM      2  C   UNL     1       1.446   5.449   1.087  0.00  0.00    +0.059 C 
ATOM      3  C   UNL     1       0.583   4.234   0.793  0.00  0.00    +0.017 C 
ATOM      4  C   UNL     1      -0.580   4.049   1.443  0.00  0.00    +0.036 C 
ATOM      5  C   UNL     1      -1.536   2.900   1.238  0.00  0.00    +0.136 C 
ATOM      6  N   UNL     1      -1.261   2.085   0.073  0.00  0.00    -0.331 N 
ATOM      7  C   UNL     1      -0.087   1.336  -0.020  0.00  0.00    +0.049 A 
ATOM      8  C   UNL     1      -0.109  -0.049  -0.026  0.00  0.00    +0.025 A 
ATOM      9  C   UNL     1       1.087  -0.746  -0.030  0.00  0.00    +0.002 A 
ATOM     10  C   UNL     1       2.292  -0.068  -0.027  0.00  0.00    +0.002 A 
ATOM     11  C   UNL     1       2.316   1.316  -0.039  0.00  0.00    +0.025 A 
ATOM     12  C   UNL     1       1.121   2.015  -0.053  0.00  0.00    +0.052 A 
ATOM     13  N   UNL     1       1.073   3.400  -0.158  0.00  0.00    -0.316 N 
ATOM     14  C   UNL     1      -0.999   4.976   2.427  0.00  0.00    +0.163 C 
ATOM     15  O   UNL     1      -2.065   4.797   2.983  0.00  0.00    -0.292 OA
ATOM     16  C   UNL     1      -0.177   6.171   2.806  0.00  0.00    +0.088 C 
ATOM     17  H   UNL     1      -1.982   2.051  -0.756  0.00  0.00    +0.147 HD
ATOM     18  H   UNL     1       1.471   3.810  -1.097  0.00  0.00    +0.152 HD
ENDROOT
BRANCH   1  22
ATOM     19  C   UNL     1       3.695   9.295   3.361  0.00  0.00    +0.121 A 
ATOM     20  C   UNL     1       3.926   8.113   4.049  0.00  0.00    +0.046 A 
ATOM     21  C   UNL     1       3.150   7.000   3.787  0.00  0.00    +0.007 A 
ATOM     22  C   UNL     1       2.145   7.064   2.839  0.00  0.00    -0.043 A 
ATOM     23  C   UNL     1       1.917   8.240   2.148  0.00  0.00    +0.007 A 
ATOM     24  C   UNL     1       2.686   9.357   2.411  0.00  0.00    +0.046 A 
BRANCH  19  25
ATOM     25  O   UNL     1       4.456  10.391   3.618  0.00  0.00    -0.492 OA
BRANCH  25  26
ATOM     26  C   UNL     1       4.163  11.574   2.872  0.00  0.00    +0.229 C 
BRANCH  26  28
ATOM     27  C   UNL     1       4.802  13.960   2.497  0.00  0.00    +0.007 C 
ATOM     28  C   UNL     1       5.116  12.694   3.296  0.00  0.00    +0.038 C 
ENDBRANCH  26  28
ENDBRANCH  25  26
ENDBRANCH  19  25
ENDBRANCH   1  22
BRANCH   5  29
ATOM     29  C   UNL     1      -1.485   2.015   2.457  0.00  0.00    -0.017 A 
ATOM     30  C   UNL     1      -0.309   1.370   2.793  0.00  0.00    +0.042 A 
ATOM     31  C   UNL     1      -0.258   0.557   3.910  0.00  0.00    +0.171 A 
ATOM     32  C   UNL     1      -1.387   0.388   4.696  0.00  0.00    +0.189 A 
ATOM     33  C   UNL     1      -2.570   1.037   4.358  0.00  0.00    +0.164 A 
ATOM     34  C   UNL     1      -2.613   1.854   3.240  0.00  0.00    +0.055 A 
BRANCH  31  35
ATOM     35  N   UNL     1       1.002  -0.133   4.266  0.00  0.00    +0.060 N 
ATOM     36  O   UNL     1       1.994   0.015   3.575  0.00  0.00    -0.126 OA
ATOM     37  O   UNL     1       1.047  -0.849   5.250  0.00  0.00    -0.126 OA
ENDBRANCH  31  35
BRANCH  33  38
ATOM     38  O   UNL     1      -3.680   0.874   5.126  0.00  0.00    -0.491 OA
ATOM     39  C   UNL     1      -4.859   1.572   4.719  0.00  0.00    +0.277 C 
ENDBRANCH  33  38
BRANCH  32  40
ATOM     40  O   UNL     1      -1.338  -0.412   5.795  0.00  0.00    -0.502 OA
ATOM     41  H   UNL     1      -2.235  -0.546   6.418  0.00  0.00    +0.292 HD
ENDBRANCH  32  40
ENDBRANCH   5  29
TORSDOF 8
