REMARK  Name = ZINC04676202
REMARK  4 active torsions:
REMARK  status: ('A' for Active; 'I' for Inactive)
REMARK    1  A    between atoms: C_3  and  C_13
REMARK    2  A    between atoms: N_4  and  C_6
REMARK    3  A    between atoms: C_9  and  O_12
REMARK    4  A    between atoms: N_19  and  C_20
REMARK                            x       y       z     vdW  Elec       q    Type
REMARK                         _______ _______ _______ _____ _____    ______ ____
ROOT
ATOM      1  C   UNL     1      -1.830   5.885  -1.702  0.00  0.00    +0.046 C 
ATOM      2  C   UNL     1      -2.136   4.559  -1.794  0.00  0.00    +0.079 C 
ATOM      3  C   UNL     1      -3.005   3.867  -2.758  0.00  0.00    +0.256 C 
ATOM      4  O   UNL     1      -3.584   4.474  -3.642  0.00  0.00    -0.269 OA
ATOM      5  N   UNL     1      -3.131   2.558  -2.623  0.00  0.00    -0.260 N 
ATOM      6  C   UNL     1      -2.469   1.889  -1.617  0.00  0.00    +0.166 C 
ATOM      7  N   UNL     1      -2.483   0.604  -1.342  0.00  0.00    -0.226 NA
ATOM      8  S   UNL     1      -1.581   3.195  -0.783  0.00  0.00    -0.049 S 
ATOM      9  H   UNL     1      -3.696   2.064  -3.239  0.00  0.00    +0.157 HD
ENDROOT
BRANCH   7  10
ATOM     10  C   UNL     1      -3.228  -0.252  -2.108  0.00  0.00    +0.067 A 
ATOM     11  C   UNL     1      -4.538   0.081  -2.459  0.00  0.00    +0.030 A 
ATOM     12  C   UNL     1      -5.282  -0.783  -3.235  0.00  0.00    +0.040 A 
ATOM     13  C   UNL     1      -4.736  -1.984  -3.657  0.00  0.00    +0.124 A 
ATOM     14  C   UNL     1      -3.438  -2.323  -3.307  0.00  0.00    +0.040 A 
ATOM     15  C   UNL     1      -2.683  -1.464  -2.536  0.00  0.00    +0.030 A 
ATOM     16  F   UNL     1      -5.471  -2.829  -4.413  0.00  0.00    -0.205 F 
ENDBRANCH   7  10
BRANCH   1  19
ATOM     17  C   UNL     1       0.737   6.364   0.797  0.00  0.00    +0.020 A 
ATOM     18  C   UNL     1      -0.064   5.518   0.024  0.00  0.00    +0.027 A 
ATOM     19  C   UNL     1      -0.863   6.324  -0.768  0.00  0.00    +0.048 A 
ATOM     20  N   UNL     1      -0.542   7.634  -0.481  0.00  0.00    -0.316 N 
ATOM     21  C   UNL     1       0.429   7.643   0.473  0.00  0.00    +0.092 A 
BRANCH  20  22
ATOM     22  C   UNL     1      -1.122   8.766  -1.070  0.00  0.00    +0.047 A 
ATOM     23  C   UNL     1      -1.708   9.740  -0.272  0.00  0.00    +0.030 A 
ATOM     24  C   UNL     1      -2.280  10.855  -0.852  0.00  0.00    +0.047 A 
ATOM     25  C   UNL     1      -2.268  11.003  -2.232  0.00  0.00    +0.117 A 
ATOM     26  C   UNL     1      -1.687  10.028  -3.030  0.00  0.00    +0.047 A 
ATOM     27  C   UNL     1      -1.110   8.915  -2.450  0.00  0.00    +0.030 A 
BRANCH  25  28
ATOM     28  O   UNL     1      -2.831  12.101  -2.802  0.00  0.00    -0.507 OA
ATOM     29  H   UNL     1      -2.220  12.842  -2.916  0.00  0.00    +0.292 HD
ENDBRANCH  25  28
ENDBRANCH  20  22
ENDBRANCH   1  19
TORSDOF 4
