REMARK  Name = ZINC01902141
REMARK  10 active torsions:
REMARK  status: ('A' for Active; 'I' for Inactive)
REMARK    1  A    between atoms: C_1  and  C_2
REMARK    2  A    between atoms: C_5  and  C_8
REMARK    3  A    between atoms: C_8  and  C_16
REMARK    4  A    between atoms: C_12  and  C_14
REMARK    5  A    between atoms: C_12  and  C_15
REMARK    6  A    between atoms: C_16  and  C_17
REMARK    7  A    between atoms: C_17  and  N_58
REMARK    8  A    between atoms: C_18  and  C_20
REMARK    9  A    between atoms: C_18  and  C_21
REMARK   10  A    between atoms: C_18  and  N_58
REMARK                            x       y       z     vdW  Elec       q    Type
REMARK                         _______ _______ _______ _____ _____    ______ ____
ROOT
ATOM      1  C   UNL     1      -0.588   0.798  -2.694  0.00  0.00    -0.001 C 
ATOM      2  C   UNL     1       0.852   0.882  -2.177  0.00  0.00    +0.039 C 
ATOM      3  C   UNL     1       1.262   2.353  -2.069  0.00  0.00    +0.161 C 
ATOM      4  O   UNL     1       1.124   2.980  -3.345  0.00  0.00    -0.374 OA
ATOM      5  C   UNL     1      -0.210   2.973  -3.857  0.00  0.00    +0.065 C 
ATOM      6  C   UNL     1      -0.680   1.527  -4.037  0.00  0.00    +0.046 C 
ATOM      7  C   UNL     1      -1.137   3.692  -2.874  0.00  0.00    +0.041 C 
ATOM      8  C   UNL     1      -0.242   3.692  -5.207  0.00  0.00    +0.041 C 
ENDROOT
BRANCH   1  13
ATOM      9  C   UNL     1      -2.070  -4.744  -3.390  0.00  0.00    +0.044 C 
ATOM     10  C   UNL     1      -1.685  -3.299  -3.208  0.00  0.00    -0.050 A 
ATOM     11  C   UNL     1      -1.212  -2.858  -1.986  0.00  0.00    +0.003 A 
ATOM     12  C   UNL     1      -0.857  -1.532  -1.820  0.00  0.00    +0.004 A 
ATOM     13  C   UNL     1      -0.975  -0.648  -2.875  0.00  0.00    -0.041 A 
ATOM     14  C   UNL     1      -1.452  -1.087  -4.096  0.00  0.00    +0.004 A 
ATOM     15  C   UNL     1      -1.803  -2.414  -4.264  0.00  0.00    +0.003 A 
ENDBRANCH   1  13
BRANCH   1  16
ATOM     16  C   UNL     1      -1.532   1.458  -1.687  0.00  0.00    -0.007 C 
BRANCH  16  17
ATOM     17  C   UNL     1      -2.957   1.451  -2.245  0.00  0.00    -0.081 C 
BRANCH  17  18
ATOM     18  N   UNL     1      -3.834   2.214  -1.337  0.00  0.00    +0.383 N 
ATOM     19  H   UNL     1      -3.492   3.179  -1.266  0.00  0.00    -0.085 HD
ATOM     20  H   UNL     1      -3.822   1.777  -0.407  0.00  0.00    -0.085 HD
BRANCH  18  21
ATOM     21  C   UNL     1      -5.217   2.224  -1.850  0.00  0.00    -0.044 C 
ATOM     22  C   UNL     1      -5.378   3.362  -2.860  0.00  0.00    -0.009 C 
BRANCH  21  23
ATOM     23  C   UNL     1      -6.170   2.434  -0.702  0.00  0.00    -0.062 A 
ATOM     24  C   UNL     1      -5.850   3.322   0.308  0.00  0.00    +0.003 A 
ATOM     25  C   UNL     1      -6.726   3.519   1.359  0.00  0.00    +0.020 A 
ATOM     26  C   UNL     1      -7.918   2.818   1.406  0.00  0.00    +0.041 A 
ATOM     27  C   UNL     1      -8.235   1.925   0.398  0.00  0.00    +0.020 A 
ATOM     28  C   UNL     1      -7.361   1.734  -0.655  0.00  0.00    +0.003 A 
ATOM     29 CL   UNL     1      -9.015   3.059   2.730  0.00  0.00    -0.084 Cl
ENDBRANCH  21  23
ENDBRANCH  18  21
ENDBRANCH  17  18
ENDBRANCH  16  17
ENDBRANCH   1  16
TORSDOF 6
