REMARK  Name = ZINC03769942
REMARK  12 active torsions:
REMARK  status: ('A' for Active; 'I' for Inactive)
REMARK    1  A    between atoms: C_1  and  C_2
REMARK    2  A    between atoms: C_5  and  N_9
REMARK    3  A    between atoms: C_6  and  C_8
REMARK    4  A    between atoms: C_10  and  C_12
REMARK    5  A    between atoms: C_18  and  C_19
REMARK    6  A    between atoms: C_19  and  O_21
REMARK    7  A    between atoms: O_21  and  C_22
REMARK    8  A    between atoms: C_24  and  N_38
REMARK    9  A    between atoms: C_25  and  C_36
REMARK   10  A    between atoms: C_26  and  C_28
REMARK   11  A    between atoms: C_31  and  O_34
REMARK   12  A    between atoms: O_34  and  C_35
REMARK                            x       y       z     vdW  Elec       q    Type
REMARK                         _______ _______ _______ _____ _____    ______ ____
ROOT
ATOM      1  C   UNL     1       3.244  -3.707  -5.632  0.00  0.00    +0.058 C 
ATOM      2  C   UNL     1       2.590  -3.561  -4.454  0.00  0.00    +0.099 A 
ATOM      3  N   UNL     1       2.167  -4.610  -3.662  0.00  0.00    -0.257 N 
ATOM      4  C   UNL     1       1.526  -4.313  -2.514  0.00  0.00    +0.272 A 
ATOM      5  O   UNL     1       1.129  -5.191  -1.774  0.00  0.00    -0.266 OA
ATOM      6  C   UNL     1       1.320  -2.884  -2.180  0.00  0.00    +0.086 A 
ATOM      7  C   UNL     1       0.713  -2.329  -1.099  0.00  0.00    +0.112 C 
ATOM      8  S   UNL     1       2.080  -2.090  -3.587  0.00  0.00    -0.065 S 
ATOM      9  C   UNL     1       2.418  -5.923  -4.080  0.00  0.00    +0.118 C 
ATOM     10  C   UNL     1       3.057  -6.235  -5.228  0.00  0.00    +0.079 C 
ATOM     11  C   UNL     1       3.536  -5.111  -6.124  0.00  0.00    +0.100 C 
ENDROOT
BRANCH  11  12
ATOM     12  C   UNL     1       5.027  -5.249  -6.296  0.00  0.00    -0.034 A 
ATOM     13  C   UNL     1       5.867  -5.067  -5.213  0.00  0.00    +0.008 A 
ATOM     14  C   UNL     1       7.234  -5.198  -5.368  0.00  0.00    +0.046 A 
ATOM     15  C   UNL     1       7.764  -5.502  -6.613  0.00  0.00    +0.120 A 
ATOM     16  C   UNL     1       6.919  -5.678  -7.700  0.00  0.00    +0.046 A 
ATOM     17  C   UNL     1       5.553  -5.551  -7.539  0.00  0.00    +0.008 A 
BRANCH  15  18
ATOM     18  O   UNL     1       9.108  -5.627  -6.769  0.00  0.00    -0.495 OA
ATOM     19  C   UNL     1       9.916  -5.432  -5.607  0.00  0.00    +0.277 C 
ENDBRANCH  15  18
ENDBRANCH  11  12
BRANCH   1  21
ATOM     20  N   UNL     1       4.291  -2.748  -7.550  0.00  0.00    -0.281 N 
ATOM     21  C   UNL     1       3.642  -2.583  -6.381  0.00  0.00    +0.248 C 
ATOM     22  O   UNL     1       3.398  -1.461  -5.972  0.00  0.00    -0.270 OA
ATOM     23  H   UNL     1       4.414  -3.638  -7.916  0.00  0.00    +0.155 HD
BRANCH  20  28
ATOM     24  C   UNL     1       6.312   1.762 -10.334  0.00  0.00    +0.044 C 
ATOM     25  C   UNL     1       5.775   0.564  -9.594  0.00  0.00    -0.050 A 
ATOM     26  C   UNL     1       5.770   0.552  -8.211  0.00  0.00    +0.005 A 
ATOM     27  C   UNL     1       5.279  -0.545  -7.530  0.00  0.00    +0.024 A 
ATOM     28  C   UNL     1       4.789  -1.636  -8.236  0.00  0.00    +0.037 A 
ATOM     29  C   UNL     1       4.799  -1.622  -9.625  0.00  0.00    -0.029 A 
ATOM     30  C   UNL     1       5.288  -0.520 -10.300  0.00  0.00    +0.008 A 
ATOM     31  C   UNL     1       4.273  -2.806 -10.395  0.00  0.00    +0.045 C 
ENDBRANCH  20  28
ENDBRANCH   1  21
BRANCH   9  32
ATOM     32  N   UNL     1       1.988  -6.952  -3.276  0.00  0.00    -0.343 N 
ATOM     33  H   UNL     1       1.243  -6.816  -2.671  0.00  0.00    +0.144 HD
ATOM     34  H   UNL     1       2.431  -7.814  -3.315  0.00  0.00    +0.144 HD
ENDBRANCH   9  32
BRANCH   7  35
ATOM     35  C   UNL     1       0.624  -0.874  -0.977  0.00  0.00    +0.333 C 
ATOM     36  O   UNL     1       1.094  -0.161  -1.844  0.00  0.00    -0.246 OA
BRANCH  35  37
ATOM     37  O   UNL     1       0.021  -0.322   0.096  0.00  0.00    -0.465 OA
ATOM     38  C   UNL     1      -0.029   1.105   0.150  0.00  0.00    +0.280 C 
ENDBRANCH  35  37
ENDBRANCH   7  35
BRANCH  10  39
ATOM     39  C   UNL     1       3.278  -7.602  -5.591  0.00  0.00    +0.099 C 
ATOM     40  N   UNL     1       3.454  -8.687  -5.880  0.00  0.00    -0.191 NA
ENDBRANCH  10  39
TORSDOF 8
