REMARK  Name = ZINC02268632
REMARK  9 active torsions:
REMARK  status: ('A' for Active; 'I' for Inactive)
REMARK    1  A    between atoms: C_1  and  C_2
REMARK    2  A    between atoms: C_2  and  C_3
REMARK    3  A    between atoms: C_3  and  C_4
REMARK    4  A    between atoms: C_4  and  C_5
REMARK    5  A    between atoms: C_5  and  C_6
REMARK    6  A    between atoms: C_6  and  C_7
REMARK    7  A    between atoms: C_11  and  C_26
REMARK    8  A    between atoms: N_13  and  C_14
REMARK    9  A    between atoms: C_24  and  O_25
REMARK                            x       y       z     vdW  Elec       q    Type
REMARK                         _______ _______ _______ _____ _____    ______ ____
ROOT
ATOM      1  C   UNL     1       1.827  -5.402   3.692  0.00  0.00    -0.005 A 
ATOM      2  C   UNL     1       1.443  -6.287   4.657  0.00  0.00    +0.018 A 
ATOM      3  C   UNL     1       2.085  -6.283   5.904  0.00  0.00    +0.019 A 
ATOM      4  C   UNL     1       1.672  -7.173   6.927  0.00  0.00    +0.030 A 
ATOM      5  C   UNL     1       2.196  -6.998   8.200  0.00  0.00    +0.097 A 
ATOM      6  C   UNL     1       3.127  -5.870   8.401  0.00  0.00    +0.212 A 
ATOM      7  N   UNL     1       3.283  -5.318   9.585  0.00  0.00    -0.325 N 
ATOM      8  O   UNL     1       3.816  -5.422   7.319  0.00  0.00    -0.438 OA
ATOM      9  C   UNL     1       3.151  -5.392   6.138  0.00  0.00    +0.141 A 
ATOM     10  C   UNL     1       3.523  -4.496   5.151  0.00  0.00    +0.092 A 
ATOM     11  C   UNL     1       2.864  -4.503   3.930  0.00  0.00    +0.124 A 
ATOM     12  H   UNL     1       3.982  -4.660   9.725  0.00  0.00    +0.169 HD
ENDROOT
BRANCH   7  13
ATOM     13  C   UNL     1       2.460  -5.672  10.618  0.00  0.00    +0.042 A 
ATOM     14  C   UNL     1       3.001  -6.016  11.859  0.00  0.00    +0.027 A 
ATOM     15  C   UNL     1       2.165  -6.372  12.897  0.00  0.00    +0.017 A 
ATOM     16  C   UNL     1       0.793  -6.388  12.711  0.00  0.00    +0.018 A 
ATOM     17  C   UNL     1       0.251  -6.047  11.483  0.00  0.00    +0.017 A 
ATOM     18  C   UNL     1       1.075  -5.685  10.439  0.00  0.00    +0.027 A 
ATOM     19 BR   UNL     1      -0.345  -6.877  14.140  0.00  0.00    -0.050 Br
ENDBRANCH   7  13
BRANCH   5  20
ATOM     20  C   UNL     1       1.838  -7.901   9.306  0.00  0.00    +0.247 C 
ATOM     21  O   UNL     1       2.639  -8.121  10.195  0.00  0.00    -0.270 OA
ATOM     22  N   UNL     1       0.623  -8.483   9.334  0.00  0.00    -0.325 N 
ATOM     23  H   UNL     1      -0.035  -8.266   8.656  0.00  0.00    +0.145 HD
ATOM     24  H   UNL     1       0.407  -9.121  10.033  0.00  0.00    +0.145 HD
ENDBRANCH   5  20
BRANCH  11  25
ATOM     25  O   UNL     1       3.230  -3.625   2.962  0.00  0.00    -0.506 OA
ATOM     26  H   UNL     1       2.755  -2.783   2.995  0.00  0.00    +0.292 HD
ENDBRANCH  11  25
BRANCH   1  27
ATOM     27  C   UNL     1       1.128  -5.402   2.357  0.00  0.00    +0.039 C 
BRANCH  27  28
ATOM     28  C   UNL     1       0.104  -4.266   2.317  0.00  0.00    +0.005 C 
BRANCH  28  29
ATOM     29  C   UNL     1      -0.606  -4.266   0.962  0.00  0.00    +0.000 C 
BRANCH  29  30
ATOM     30  C   UNL     1      -1.630  -3.130   0.922  0.00  0.00    -0.000 C 
BRANCH  30  32
ATOM     31  C   UNL     1      -3.363  -1.994  -0.473  0.00  0.00    +0.004 C 
ATOM     32  C   UNL     1      -2.339  -3.130  -0.433  0.00  0.00    -0.003 C 
ENDBRANCH  30  32
ENDBRANCH  29  30
ENDBRANCH  28  29
ENDBRANCH  27  28
ENDBRANCH   1  27
TORSDOF 8
