REMARK  Name = ZINC17103933
REMARK  10 active torsions:
REMARK  status: ('A' for Active; 'I' for Inactive)
REMARK    1  A    between atoms: C_1  and  C_2
REMARK    2  A    between atoms: C_7  and  N_8
REMARK    3  A    between atoms: C_12  and  S_13
REMARK    4  A    between atoms: S_13  and  C_14
REMARK    5  A    between atoms: C_14  and  C_16
REMARK    6  A    between atoms: C_14  and  C_17
REMARK    7  A    between atoms: N_22  and  C_23
REMARK    8  A    between atoms: C_23  and  C_24
REMARK    9  A    between atoms: C_23  and  C_25
REMARK   10  A    between atoms: C_23  and  C_26
REMARK                            x       y       z     vdW  Elec       q    Type
REMARK                         _______ _______ _______ _____ _____    ______ ____
ROOT
ATOM      1  C   UNL     1      -3.347   2.238   3.329  0.00  0.00    +0.137 C 
ATOM      2  C   UNL     1      -2.567   3.549   3.444  0.00  0.00    +0.029 C 
ENDROOT
BRANCH   1   3
ATOM      3  C   UNL     1      -4.745   2.525   2.845  0.00  0.00    +0.233 C 
ATOM      4  O   UNL     1      -5.029   2.360   1.679  0.00  0.00    -0.274 OA
ATOM      5  N   UNL     1      -5.680   2.966   3.710  0.00  0.00    -0.239 N 
ATOM      6  C   UNL     1      -6.931   3.224   3.277  0.00  0.00    +0.306 C 
ATOM      7  O   UNL     1      -7.215   3.058   2.107  0.00  0.00    -0.252 OA
ATOM      8  N   UNL     1      -7.865   3.665   4.142  0.00  0.00    -0.294 N 
ATOM      9  H   UNL     1      -5.453   3.099   4.644  0.00  0.00    +0.159 HD
ATOM     10  H   UNL     1      -7.639   3.797   5.076  0.00  0.00    +0.151 HD
BRANCH   8  11
ATOM     11  C   UNL     1      -9.225   3.944   3.672  0.00  0.00    +0.028 C 
ATOM     12  C   UNL     1      -9.834   2.669   3.087  0.00  0.00    +0.031 C 
ATOM     13  C   UNL     1     -10.081   4.428   4.844  0.00  0.00    +0.031 C 
ATOM     14  C   UNL     1      -9.178   5.028   2.593  0.00  0.00    +0.031 C 
ENDBRANCH   8  11
ENDBRANCH   1   3
BRANCH   1  15
ATOM     15  S   UNL     1      -2.513   1.140   2.151  0.00  0.00    -0.073 S 
BRANCH  15  20
ATOM     16  N   UNL     1       0.025  -0.013   2.419  0.00  0.00    -0.277 N 
ATOM     17  C   UNL     1       1.026   0.013   3.355  0.00  0.00    +0.230 A 
ATOM     18  N   UNL     1       0.622   0.774   4.333  0.00  0.00    -0.137 NA
ATOM     19  N   UNL     1      -0.555   1.228   4.084  0.00  0.00    -0.122 NA
ATOM     20  C   UNL     1      -0.969   0.783   2.920  0.00  0.00    +0.197 A 
BRANCH  16  27
ATOM     21  C   UNL     1      -0.018   1.503   0.010  0.00  0.00    +0.046 C 
ATOM     22  C   UNL     1       0.002  -0.004   0.002  0.00  0.00    -0.027 A 
ATOM     23  C   UNL     1       0.006  -0.689  -1.198  0.00  0.00    +0.005 A 
ATOM     24  C   UNL     1       0.024  -2.071  -1.206  0.00  0.00    +0.000 A 
ATOM     25  C   UNL     1       0.039  -2.773  -0.014  0.00  0.00    +0.002 A 
ATOM     26  C   UNL     1       0.035  -2.093   1.188  0.00  0.00    +0.026 A 
ATOM     27  C   UNL     1       0.023  -0.705   1.200  0.00  0.00    +0.053 A 
ENDBRANCH  16  27
ENDBRANCH  15  20
ENDBRANCH   1  15
TORSDOF 5
