REMARK  Name = ZINC24984711
REMARK  13 active torsions:
REMARK  status: ('A' for Active; 'I' for Inactive)
REMARK    1  A    between atoms: C_1  and  C_2
REMARK    2  A    between atoms: C_2  and  C_3
REMARK    3  A    between atoms: C_3  and  C_4
REMARK    4  A    between atoms: C_4  and  N_5
REMARK    5  A    between atoms: N_5  and  C_6
REMARK    6  A    between atoms: C_7  and  N_22
REMARK    7  A    between atoms: N_8  and  C_15
REMARK    8  A    between atoms: C_15  and  C_16
REMARK    9  A    between atoms: C_23  and  C_25
REMARK   10  A    between atoms: C_25  and  N_26
REMARK   11  A    between atoms: N_26  and  C_27
REMARK   12  A    between atoms: N_26  and  C_28
REMARK   13  A    between atoms: C_28  and  C_29
REMARK                            x       y       z     vdW  Elec       q    Type
REMARK                         _______ _______ _______ _____ _____    ______ ____
ROOT
ATOM      1  C   UNL     1      -2.157  -0.670  -1.140  0.00  0.00    +0.140 A 
ATOM      2  C   UNL     1      -1.811  -1.586  -2.112  0.00  0.00    +0.128 A 
ATOM      3  N   UNL     1      -2.609  -1.718  -3.225  0.00  0.00    -0.276 N 
ATOM      4  C   UNL     1      -3.709  -0.956  -3.368  0.00  0.00    +0.331 A 
ATOM      5  O   UNL     1      -4.399  -1.085  -4.361  0.00  0.00    -0.246 OA
ATOM      6  N   UNL     1      -4.059  -0.054  -2.434  0.00  0.00    -0.273 N 
ATOM      7  H   UNL     1      -4.962   0.558  -2.571  0.00  0.00    +0.173 HD
ATOM      8  C   UNL     1      -3.314   0.111  -1.323  0.00  0.00    +0.277 A 
ATOM      9  O   UNL     1      -3.640   0.931  -0.482  0.00  0.00    -0.266 OA
ENDROOT
BRANCH   1  10
ATOM     10  N   UNL     1      -1.361  -0.514   0.015  0.00  0.00    -0.266 N 
ATOM     11  C   UNL     1      -1.857  -0.846   1.225  0.00  0.00    +0.203 C 
ATOM     12  O   UNL     1      -2.949  -1.367   1.312  0.00  0.00    -0.277 OA
BRANCH  10  13
ATOM     13  C   UNL     1       0.002   0.008  -0.100  0.00  0.00    +0.114 C 
BRANCH  13  14
ATOM     14  C   UNL     1      -0.035   1.538  -0.095  0.00  0.00    +0.019 C 
BRANCH  14  16
ATOM     15  C   UNL     1       1.353   3.612  -0.210  0.00  0.00    +0.004 C 
ATOM     16  C   UNL     1       1.390   2.083  -0.215  0.00  0.00    -0.002 C 
ENDBRANCH  14  16
ENDBRANCH  13  14
ENDBRANCH  10  13
BRANCH  11  17
ATOM     17  C   UNL     1      -1.054  -0.568   2.470  0.00  0.00    +0.019 C 
BRANCH  17  18
ATOM     18  N   UNL     1      -1.806  -1.019   3.649  0.00  0.00    +0.384 N 
ATOM     19  C   UNL     1      -1.958  -2.480   3.649  0.00  0.00    -0.096 C 
ATOM     20  H   UNL     1      -2.811  -0.574   3.598  0.00  0.00    -0.082 HD
BRANCH  18  21
ATOM     21  C   UNL     1      -1.169  -0.555   4.888  0.00  0.00    -0.075 C 
BRANCH  21  22
ATOM     22  C   UNL     1      -2.101  -0.823   6.072  0.00  0.00    -0.028 C 
ATOM     23  C   UNL     1      -3.367   0.023   5.926  0.00  0.00    +0.002 C 
ATOM     24  C   UNL     1      -4.299  -0.245   7.109  0.00  0.00    +0.000 C 
ATOM     25  C   UNL     1      -3.587   0.122   8.413  0.00  0.00    +0.000 C 
ATOM     26  C   UNL     1      -2.321  -0.724   8.559  0.00  0.00    +0.000 C 
ATOM     27  C   UNL     1      -1.389  -0.456   7.375  0.00  0.00    +0.002 C 
ENDBRANCH  21  22
ENDBRANCH  18  21
ENDBRANCH  17  18
ENDBRANCH  11  17
ENDBRANCH   1  10
BRANCH   2  28
ATOM     28  N   UNL     1      -0.685  -2.361  -1.968  0.00  0.00    -0.343 N 
ATOM     29  H   UNL     1      -0.416  -3.089  -2.747  0.00  0.00    +0.144 HD
ATOM     30  H   UNL     1      -0.054  -2.252  -1.074  0.00  0.00    +0.144 HD
ENDBRANCH   2  28
BRANCH   3  31
ATOM     31  C   UNL     1      -2.257  -2.690  -4.262  0.00  0.00    +0.163 C 
BRANCH  31  32
ATOM     32  C   UNL     1      -1.363  -2.034  -5.283  0.00  0.00    -0.028 A 
ATOM     33  C   UNL     1      -1.916  -1.411  -6.387  0.00  0.00    +0.005 A 
ATOM     34  C   UNL     1      -1.097  -0.805  -7.321  0.00  0.00    +0.000 A 
ATOM     35  C   UNL     1       0.275  -0.830  -7.157  0.00  0.00    +0.000 A 
ATOM     36  C   UNL     1       0.828  -1.457  -6.056  0.00  0.00    +0.000 A 
ATOM     37  C   UNL     1       0.009  -2.059  -5.119  0.00  0.00    +0.005 A 
ENDBRANCH  31  32
ENDBRANCH   3  31
TORSDOF 11
