REMARK  Name = ZINC25517333
REMARK  9 active torsions:
REMARK  status: ('A' for Active; 'I' for Inactive)
REMARK    1  A    between atoms: C_4  and  C_7
REMARK    2  A    between atoms: C_7  and  C_8
REMARK    3  A    between atoms: C_8  and  C_10
REMARK    4  A    between atoms: C_8  and  N_23
REMARK    5  A    between atoms: N_12  and  N_13
REMARK    6  A    between atoms: C_14  and  C_16
REMARK    7  A    between atoms: C_24  and  O_26
REMARK    8  A    between atoms: O_26  and  C_27
REMARK    9  A    between atoms: C_27  and  C_28
REMARK                            x       y       z     vdW  Elec       q    Type
REMARK                         _______ _______ _______ _____ _____    ______ ____
ROOT
ATOM      1  C   UNL     1      -2.945   0.711   1.462  0.00  0.00    +0.168 C 
ENDROOT
BRANCH   1   2
ATOM      2  C   UNL     1      -4.172  -0.164   1.465  0.00  0.00    +0.250 C 
ATOM      3  O   UNL     1      -5.200   0.234   1.972  0.00  0.00    -0.272 OA
ATOM      4  N   UNL     1      -4.127  -1.389   0.905  0.00  0.00    -0.233 N 
ATOM      5  H   UNL     1      -3.195  -1.750   0.446  0.00  0.00    +0.173 HD
BRANCH   4   6
ATOM      6  N   UNL     1      -5.268  -2.203   0.908  0.00  0.00    -0.230 N 
ATOM      7  C   UNL     1      -5.223  -3.428   0.348  0.00  0.00    +0.260 C 
ATOM      8  O   UNL     1      -4.194  -3.827  -0.160  0.00  0.00    -0.269 OA
ATOM      9  H   UNL     1      -6.200  -1.841   1.367  0.00  0.00    +0.173 HD
BRANCH   7  10
ATOM     10  C   UNL     1      -6.427  -4.286   0.351  0.00  0.00    +0.038 A 
ATOM     11  C   UNL     1      -7.610  -3.833   0.938  0.00  0.00    +0.014 A 
ATOM     12  C   UNL     1      -8.731  -4.636   0.933  0.00  0.00    +0.016 A 
ATOM     13  C   UNL     1      -8.682  -5.894   0.356  0.00  0.00    +0.018 A 
ATOM     14  C   UNL     1      -7.510  -6.352  -0.222  0.00  0.00    +0.016 A 
ATOM     15  C   UNL     1      -6.384  -5.555  -0.229  0.00  0.00    +0.014 A 
ATOM     16 BR   UNL     1     -10.221  -6.992   0.360  0.00  0.00    -0.050 Br
ENDBRANCH   7  10
ENDBRANCH   4   6
ENDBRANCH   1   2
BRANCH   1  17
ATOM     17  N   UNL     1      -3.249   1.981   2.126  0.00  0.00    -0.269 N 
ATOM     18  C   UNL     1      -2.260   2.700   2.692  0.00  0.00    +0.401 C 
ATOM     19  O   UNL     1      -1.115   2.294   2.652  0.00  0.00    -0.226 OA
ATOM     20  H   UNL     1      -4.286   2.348   2.162  0.00  0.00    +0.153 HD
BRANCH  18  21
ATOM     21  O   UNL     1      -2.540   3.867   3.301  0.00  0.00    -0.446 OA
BRANCH  21  22
ATOM     22  C   UNL     1      -1.425   4.588   3.889  0.00  0.00    +0.269 C 
BRANCH  22  23
ATOM     23  C   UNL     1      -1.926   5.860   4.522  0.00  0.00    -0.010 A 
ATOM     24  C   UNL     1      -1.981   7.026   3.780  0.00  0.00    +0.007 A 
ATOM     25  C   UNL     1      -2.446   8.192   4.359  0.00  0.00    +0.000 A 
ATOM     26  C   UNL     1      -2.846   8.195   5.682  0.00  0.00    +0.000 A 
ATOM     27  C   UNL     1      -2.785   7.031   6.425  0.00  0.00    +0.000 A 
ATOM     28  C   UNL     1      -2.326   5.864   5.845  0.00  0.00    +0.007 A 
ENDBRANCH  22  23
ENDBRANCH  21  22
ENDBRANCH  18  21
ENDBRANCH   1  17
BRANCH   1  29
ATOM     29  C   UNL     1      -2.514   0.980   0.019  0.00  0.00    +0.067 C 
BRANCH  29  33
ATOM     30  C   UNL     1       1.156   3.165   0.008  0.00  0.00    +0.000 A 
ATOM     31  C   UNL     1       1.175   1.783   0.000  0.00  0.00    +0.000 A 
ATOM     32  C   UNL     1      -0.013   1.076   0.008  0.00  0.00    +0.004 A 
ATOM     33  C   UNL     1      -1.219   1.751   0.017  0.00  0.00    -0.045 A 
ATOM     34  C   UNL     1      -1.238   3.133   0.030  0.00  0.00    +0.004 A 
ATOM     35  C   UNL     1      -0.050   3.840   0.022  0.00  0.00    +0.000 A 
ENDBRANCH  29  33
ENDBRANCH   1  29
TORSDOF 9
