REMARK  Name = ZINC36665953
REMARK  9 active torsions:
REMARK  status: ('A' for Active; 'I' for Inactive)
REMARK    1  A    between atoms: C_1  and  C_2
REMARK    2  A    between atoms: C_2  and  C_3
REMARK    3  A    between atoms: C_3  and  C_4
REMARK    4  A    between atoms: C_4  and  N_5
REMARK    5  A    between atoms: C_11  and  S_12
REMARK    6  A    between atoms: S_12  and  C_13
REMARK    7  A    between atoms: C_13  and  C_15
REMARK    8  A    between atoms: C_13  and  C_16
REMARK    9  A    between atoms: N_18  and  C_19
REMARK                            x       y       z     vdW  Elec       q    Type
REMARK                         _______ _______ _______ _____ _____    ______ ____
ROOT
ATOM      1  C   UNL     1       5.535  -3.058  -2.081  0.00  0.00    +0.137 C 
ATOM      2  C   UNL     1       5.494  -4.544  -2.443  0.00  0.00    +0.029 C 
ENDROOT
BRANCH   1   3
ATOM      3  C   UNL     1       6.669  -2.806  -1.121  0.00  0.00    +0.230 C 
ATOM      4  O   UNL     1       6.460  -2.795   0.074  0.00  0.00    -0.274 OA
ATOM      5  N   UNL     1       7.914  -2.594  -1.590  0.00  0.00    -0.282 N 
ATOM      6  H   UNL     1       8.094  -2.667  -2.540  0.00  0.00    +0.155 HD
BRANCH   5   7
ATOM      7  C   UNL     1       8.950  -2.268  -0.704  0.00  0.00    +0.072 A 
ATOM      8  C   UNL     1       8.973  -2.816   0.571  0.00  0.00    +0.029 A 
ATOM      9  C   UNL     1       9.995  -2.494   1.444  0.00  0.00    +0.043 A 
ATOM     10  C   UNL     1      10.997  -1.624   1.049  0.00  0.00    +0.161 A 
ATOM     11  C   UNL     1      10.978  -1.074  -0.223  0.00  0.00    +0.195 A 
ATOM     12  C   UNL     1       9.959  -1.399  -1.103  0.00  0.00    +0.182 A 
ATOM     13  F   UNL     1       9.943  -0.868  -2.345  0.00  0.00    -0.200 F 
ATOM     14  F   UNL     1      11.956  -0.224  -0.607  0.00  0.00    -0.199 F 
ATOM     15  F   UNL     1      11.994  -1.311   1.905  0.00  0.00    -0.202 F 
ENDBRANCH   5   7
ENDBRANCH   1   3
BRANCH   1  16
ATOM     16  S   UNL     1       3.967  -2.581  -1.304  0.00  0.00    -0.073 S 
BRANCH  16  23
ATOM     17  N   UNL     1       1.424  -2.551  -2.471  0.00  0.00    -0.271 N 
ATOM     18  C   UNL     1       0.845  -2.819  -3.658  0.00  0.00    +0.345 A 
ATOM     19  O   UNL     1      -0.340  -2.712  -3.921  0.00  0.00    -0.245 OA
ATOM     20  N   UNL     1       1.815  -3.227  -4.502  0.00  0.00    -0.226 N 
ATOM     21  H   UNL     1       1.698  -3.488  -5.429  0.00  0.00    +0.194 HD
ATOM     22  N   UNL     1       3.024  -3.203  -3.794  0.00  0.00    -0.145 NA
ATOM     23  C   UNL     1       2.775  -2.791  -2.584  0.00  0.00    +0.193 A 
BRANCH  17  24
ATOM     24  C   UNL     1       0.735  -2.078  -1.268  0.00  0.00    +0.129 C 
BRANCH  24  25
ATOM     25  C   UNL     1       0.703  -0.548  -1.266  0.00  0.00    +0.021 C 
BRANCH  25  27
ATOM     26  C   UNL     1      -0.048   1.475  -0.007  0.00  0.00    +0.004 C 
ATOM     27  C   UNL     1      -0.017  -0.055  -0.009  0.00  0.00    -0.002 C 
ENDBRANCH  25  27
ENDBRANCH  24  25
ENDBRANCH  17  24
ENDBRANCH  16  23
ENDBRANCH   1  16
TORSDOF 7
