REMARK  Name = ZINC09598397
REMARK  9 active torsions:
REMARK  status: ('A' for Active; 'I' for Inactive)
REMARK    1  A    between atoms: C_1  and  C_2
REMARK    2  A    between atoms: C_4  and  N_25
REMARK    3  A    between atoms: C_8  and  N_11
REMARK    4  A    between atoms: C_12  and  C_14
REMARK    5  A    between atoms: C_14  and  C_15
REMARK    6  A    between atoms: C_15  and  C_16
REMARK    7  A    between atoms: C_21  and  C_24
REMARK    8  A    between atoms: C_27  and  C_34
REMARK    9  A    between atoms: C_30  and  C_33
REMARK                            x       y       z     vdW  Elec       q    Type
REMARK                         _______ _______ _______ _____ _____    ______ ____
ROOT
ATOM      1  C   UNL     1      -1.114   0.757  -6.022  0.00  0.00    +0.044 C 
ATOM      2  C   UNL     1      -0.427   0.560  -4.696  0.00  0.00    -0.038 A 
ATOM      3  C   UNL     1      -0.950   1.086  -3.553  0.00  0.00    +0.045 A 
ATOM      4  C   UNL     1      -0.293   0.890  -2.330  0.00  0.00    +0.099 A 
ATOM      5  C   UNL     1       1.390  -0.335  -3.341  0.00  0.00    +0.048 A 
ATOM      6  C   UNL     1       0.775  -0.172  -4.606  0.00  0.00    +0.003 A 
ATOM      7  C   UNL     1       1.367  -0.738  -5.745  0.00  0.00    +0.033 A 
ATOM      8  C   UNL     1       2.541  -1.448  -5.617  0.00  0.00    +0.034 A 
ATOM      9  C   UNL     1       3.144  -1.605  -4.364  0.00  0.00    +0.025 A 
ATOM     10  C   UNL     1       2.588  -1.064  -3.247  0.00  0.00    +0.028 A 
ATOM     11  N   UNL     1       0.866   0.201  -2.185  0.00  0.00    -0.343 N 
ATOM     12  H   UNL     1       1.322   0.085  -1.272  0.00  0.00    +0.167 HD
ENDROOT
BRANCH   4  13
ATOM     13  N   UNL     1      -0.839   1.430  -1.174  0.00  0.00    -0.316 N 
ATOM     14  C   UNL     1      -0.008   1.117  -0.004  0.00  0.00    +0.109 C 
ATOM     15  C   UNL     1      -0.711   1.601   1.266  0.00  0.00    +0.004 C 
ATOM     16  C   UNL     1      -0.943   3.111   1.171  0.00  0.00    +0.009 C 
ATOM     17  C   UNL     1      -1.769   3.415  -0.081  0.00  0.00    +0.004 C 
ATOM     18  C   UNL     1      -1.036   2.879  -1.313  0.00  0.00    +0.109 C 
ATOM     19  C   UNL     1      -1.955   4.928  -0.216  0.00  0.00    +0.009 C 
ATOM     20  C   UNL     1      -2.056   0.886   1.410  0.00  0.00    +0.009 C 
ENDBRANCH   4  13
BRANCH   8  21
ATOM     21  N   UNL     1       3.136  -2.015  -6.750  0.00  0.00    -0.285 N 
ATOM     22  C   UNL     1       3.043  -1.394  -7.942  0.00  0.00    +0.218 C 
ATOM     23  O   UNL     1       2.527  -0.299  -8.017  0.00  0.00    -0.275 OA
ATOM     24  H   UNL     1       3.616  -2.855  -6.676  0.00  0.00    +0.155 HD
BRANCH  22  25
ATOM     25  C   UNL     1       3.579  -2.061  -9.183  0.00  0.00    +0.105 C 
BRANCH  25  26
ATOM     26  C   UNL     1       3.349  -1.151 -10.391  0.00  0.00    +0.105 C 
BRANCH  26  27
ATOM     27  C   UNL     1       3.885  -1.817 -11.632  0.00  0.00    +0.216 C 
ATOM     28  O   UNL     1       4.401  -2.912 -11.557  0.00  0.00    -0.276 OA
ATOM     29  N   UNL     1       3.792  -1.196 -12.824  0.00  0.00    -0.301 N 
ATOM     30  C   UNL     1       3.164   0.128 -12.932  0.00  0.00    +0.108 C 
ATOM     31  C   UNL     1       4.145   1.078 -13.635  0.00  0.00    +0.022 C 
ATOM     32  C   UNL     1       4.562   0.470 -14.976  0.00  0.00    -0.011 C 
ATOM     33  C   UNL     1       5.274  -0.864 -14.734  0.00  0.00    +0.022 C 
ATOM     34  C   UNL     1       4.310  -1.833 -14.043  0.00  0.00    +0.108 C 
ATOM     35  C   UNL     1       5.511   1.429 -15.698  0.00  0.00    +0.007 C 
ENDBRANCH  26  27
ENDBRANCH  25  26
ENDBRANCH  22  25
ENDBRANCH   8  21
TORSDOF 5
