REMARK  Name = ZINC35486822
REMARK  9 active torsions:
REMARK  status: ('A' for Active; 'I' for Inactive)
REMARK    1  A    between atoms: C_1  and  C_2
REMARK    2  A    between atoms: C_2  and  O_3
REMARK    3  A    between atoms: O_3  and  C_4
REMARK    4  A    between atoms: C_7  and  C_10
REMARK    5  A    between atoms: N_25  and  C_26
REMARK    6  A    between atoms: C_26  and  C_27
REMARK    7  A    between atoms: C_27  and  N_28
REMARK    8  A    between atoms: N_28  and  C_29
REMARK    9  A    between atoms: N_28  and  C_30
REMARK                            x       y       z     vdW  Elec       q    Type
REMARK                         _______ _______ _______ _____ _____    ______ ____
ROOT
ATOM      1  C   UNL     1      -2.001  -6.092  -0.011  0.00  0.00    +0.144 C 
ATOM      2  C   UNL     1      -2.368  -6.561  -1.380  0.00  0.00    +0.072 A 
ATOM      3  C   UNL     1      -1.657  -6.461  -2.659  0.00  0.00    +0.199 A 
ATOM      4  O   UNL     1      -0.501  -6.090  -2.753  0.00  0.00    -0.287 OA
ATOM      5  C   UNL     1      -2.482  -6.854  -3.830  0.00  0.00    +0.066 A 
ATOM      6  C   UNL     1      -2.021  -6.627  -5.126  0.00  0.00    +0.035 A 
ATOM      7  C   UNL     1      -2.802  -6.994  -6.201  0.00  0.00    +0.042 A 
ATOM      8  C   UNL     1      -4.041  -7.586  -5.991  0.00  0.00    +0.023 A 
ATOM      9  C   UNL     1      -4.505  -7.816  -4.715  0.00  0.00    +0.048 A 
ATOM     10  C   UNL     1      -3.732  -7.457  -3.611  0.00  0.00    +0.140 A 
ATOM     11  O   UNL     1      -4.207  -7.704  -2.369  0.00  0.00    -0.450 OA
ATOM     12  C   UNL     1      -3.591  -7.164  -1.300  0.00  0.00    +0.199 A 
ATOM     13  C   UNL     1      -4.048  -7.098   0.100  0.00  0.00    +0.283 C 
ATOM     14  O   UNL     1      -5.103  -7.540   0.509  0.00  0.00    -0.267 OA
ATOM     15  N   UNL     1      -3.123  -6.474   0.861  0.00  0.00    -0.285 N 
ATOM     16 CL   UNL     1      -2.237  -6.715  -7.819  0.00  0.00    -0.084 Cl
ENDROOT
BRANCH   1  20
ATOM     17  C   UNL     1      -1.498  -1.848   0.006  0.00  0.00    +0.121 A 
ATOM     18  C   UNL     1      -0.388  -2.679  -0.003  0.00  0.00    +0.046 A 
ATOM     19  C   UNL     1      -0.553  -4.051  -0.008  0.00  0.00    +0.009 A 
ATOM     20  C   UNL     1      -1.823  -4.596  -0.005  0.00  0.00    -0.022 A 
ATOM     21  C   UNL     1      -2.932  -3.769   0.004  0.00  0.00    +0.009 A 
ATOM     22  C   UNL     1      -2.772  -2.397   0.016  0.00  0.00    +0.046 A 
BRANCH  17  23
ATOM     23  O   UNL     1      -1.339  -0.499   0.012  0.00  0.00    -0.492 OA
BRANCH  23  25
ATOM     24  C   UNL     1      -0.019   1.526   0.010  0.00  0.00    +0.048 C 
ATOM     25  C   UNL     1       0.002  -0.004   0.002  0.00  0.00    +0.225 C 
ENDBRANCH  23  25
ENDBRANCH  17  23
ENDBRANCH   1  20
BRANCH  15  26
ATOM     26  C   UNL     1      -3.220  -6.222   2.301  0.00  0.00    +0.090 C 
BRANCH  26  27
ATOM     27  C   UNL     1      -3.889  -4.867   2.538  0.00  0.00    -0.060 C 
BRANCH  27  28
ATOM     28  N   UNL     1      -3.986  -4.615   3.982  0.00  0.00    +0.377 N 
ATOM     29  C   UNL     1      -2.636  -4.486   4.548  0.00  0.00    -0.097 C 
ATOM     30  C   UNL     1      -4.734  -3.372   4.213  0.00  0.00    -0.097 C 
ATOM     31  H   UNL     1      -4.464  -5.384   4.427  0.00  0.00    -0.083 HD
ENDBRANCH  27  28
ENDBRANCH  26  27
ENDBRANCH  15  26
TORSDOF 6
