REMARK  Name = ZINC39836494
REMARK  12 active torsions:
REMARK  status: ('A' for Active; 'I' for Inactive)
REMARK    1  A    between atoms: C_1  and  C_2
REMARK    2  A    between atoms: C_6  and  C_38
REMARK    3  A    between atoms: C_7  and  O_8
REMARK    4  A    between atoms: O_8  and  C_9
REMARK    5  A    between atoms: C_9  and  C_10
REMARK    6  A    between atoms: N_12  and  C_13
REMARK    7  A    between atoms: C_14  and  C_27
REMARK    8  A    between atoms: C_19  and  C_23
REMARK    9  A    between atoms: C_23  and  C_24
REMARK   10  A    between atoms: C_23  and  C_25
REMARK   11  A    between atoms: C_23  and  C_26
REMARK   12  A    between atoms: N_29  and  C_30
REMARK                            x       y       z     vdW  Elec       q    Type
REMARK                         _______ _______ _______ _____ _____    ______ ____
ROOT
ATOM      1  C   UNL     1      -1.929   2.084   6.172  0.00  0.00    +0.084 A 
ATOM      2  C   UNL     1      -2.899   2.554   7.043  0.00  0.00    +0.069 A 
ATOM      3  C   UNL     1      -2.441   3.243   8.237  0.00  0.00    -0.023 A 
ATOM      4  C   UNL     1      -1.098   3.335   8.342  0.00  0.00    -0.004 A 
ATOM      5  S   UNL     1      -0.479   2.523   6.897  0.00  0.00    -0.077 S 
ATOM      6  C   UNL     1      -0.324   3.980   9.449  0.00  0.00    +0.046 C 
ATOM      7  C   UNL     1      -1.271   4.192  10.639  0.00  0.00    -0.000 C 
ATOM      8  C   UNL     1      -2.565   4.836  10.134  0.00  0.00    +0.009 C 
ATOM      9  C   UNL     1      -3.359   3.825   9.302  0.00  0.00    +0.037 C 
ENDROOT
BRANCH   1  12
ATOM     10  C   UNL     1      -1.046   1.011   4.254  0.00  0.00    +0.255 C 
ATOM     11  O   UNL     1       0.075   1.255   4.646  0.00  0.00    -0.272 OA
ATOM     12  N   UNL     1      -2.113   1.403   4.978  0.00  0.00    -0.277 N 
ATOM     13  H   UNL     1      -3.010   1.207   4.665  0.00  0.00    +0.155 HD
BRANCH  10  14
ATOM     14  C   UNL     1      -1.246   0.270   2.957  0.00  0.00    +0.324 C 
BRANCH  14  15
ATOM     15  O   UNL     1       0.025  -0.033   2.381  0.00  0.00    -0.482 OA
BRANCH  15  22
ATOM     16  C   UNL     1      -0.018   1.503   0.010  0.00  0.00    +0.047 C 
ATOM     17  C   UNL     1       0.002  -0.004   0.002  0.00  0.00    -0.009 A 
ATOM     18  C   UNL     1       0.006  -0.689  -1.198  0.00  0.00    +0.007 A 
ATOM     19  C   UNL     1       0.024  -2.071  -1.206  0.00  0.00    +0.001 A 
ATOM     20  C   UNL     1       0.040  -2.772  -0.014  0.00  0.00    +0.007 A 
ATOM     21  C   UNL     1       0.036  -2.092   1.188  0.00  0.00    -0.009 A 
ATOM     22  C   UNL     1       0.023  -0.705   1.199  0.00  0.00    +0.127 A 
ATOM     23  C   UNL     1       0.052  -2.856   2.487  0.00  0.00    +0.047 C 
ENDBRANCH  15  22
ENDBRANCH  14  15
ENDBRANCH  10  14
ENDBRANCH   1  12
BRANCH   7  24
ATOM     24  C   UNL     1      -0.606   5.112  11.666  0.00  0.00    -0.035 C 
ATOM     25  C   UNL     1      -0.294   6.461  11.016  0.00  0.00    +0.011 C 
ATOM     26  C   UNL     1      -1.551   5.322  12.850  0.00  0.00    +0.011 C 
ATOM     27  C   UNL     1       0.694   4.471  12.158  0.00  0.00    +0.011 C 
ENDBRANCH   7  24
BRANCH   2  28
ATOM     28  C   UNL     1      -4.327   2.365   6.770  0.00  0.00    +0.247 C 
ATOM     29  O   UNL     1      -4.898   1.370   7.177  0.00  0.00    -0.270 OA
ATOM     30  N   UNL     1      -5.008   3.293   6.069  0.00  0.00    -0.307 N 
ATOM     31  H   UNL     1      -4.553   4.086   5.745  0.00  0.00    +0.149 HD
BRANCH  30  32
ATOM     32  C   UNL     1      -6.435   3.104   5.796  0.00  0.00    +0.096 C 
ATOM     33  C   UNL     1      -7.256   3.629   6.986  0.00  0.00    +0.046 C 
ATOM     34  C   UNL     1      -8.746   3.708   6.549  0.00  0.00    +0.168 C 
ATOM     35  S   UNL     1      -8.561   4.364   4.838  0.00  0.00    -0.029 S 
ATOM     36  O   UNL     1      -8.643   5.782   4.875  0.00  0.00    -0.174 OA
ATOM     37  O   UNL     1      -9.418   3.637   3.968  0.00  0.00    -0.174 OA
ATOM     38  C   UNL     1      -6.819   3.876   4.511  0.00  0.00    +0.188 C 
ENDBRANCH  30  32
ENDBRANCH   2  28
TORSDOF 7
