REMARK  Name = ZINC45033000
REMARK  7 active torsions:
REMARK  status: ('A' for Active; 'I' for Inactive)
REMARK    1  A    between atoms: C_1  and  C_2
REMARK    2  A    between atoms: C_2  and  C_22
REMARK    3  A    between atoms: N_5  and  N_9
REMARK    4  A    between atoms: C_10  and  C_12
REMARK    5  A    between atoms: C_12  and  C_13
REMARK    6  A    between atoms: C_13  and  C_14
REMARK    7  A    between atoms: C_14  and  C_15
REMARK                            x       y       z     vdW  Elec       q    Type
REMARK                         _______ _______ _______ _____ _____    ______ ____
ROOT
ATOM      1  C   UNL     1      -0.019   1.526   0.010  0.00  0.00    +0.047 C 
ATOM      2  C   UNL     1       0.002  -0.004   0.002  0.00  0.00    +0.137 C 
ATOM      3  C   UNL     1       0.815  -0.520  -1.169  0.00  0.00    +0.267 C 
ATOM      4  O   UNL     1       0.595  -0.342  -2.348  0.00  0.00    -0.271 OA
ATOM      5  N   UNL     1       1.833  -1.217  -0.627  0.00  0.00    -0.137 N 
ATOM      6  C   UNL     1       1.777  -1.214   0.710  0.00  0.00    +0.327 C 
ATOM      7  O   UNL     1       2.586  -1.776   1.421  0.00  0.00    -0.251 OA
ATOM      8  N   UNL     1       0.724  -0.519   1.178  0.00  0.00    -0.280 N 
ATOM      9  H   UNL     1       0.487  -0.383   2.109  0.00  0.00    +0.152 HD
ENDROOT
BRANCH   2  10
ATOM     10  C   UNL     1      -1.401  -0.551  -0.040  0.00  0.00    -0.015 A 
ATOM     11  C   UNL     1      -2.005  -0.815  -1.256  0.00  0.00    +0.006 A 
ATOM     12  C   UNL     1      -3.292  -1.317  -1.294  0.00  0.00    +0.000 A 
ATOM     13  C   UNL     1      -3.976  -1.556  -0.117  0.00  0.00    +0.000 A 
ATOM     14  C   UNL     1      -3.372  -1.294   1.099  0.00  0.00    +0.000 A 
ATOM     15  C   UNL     1      -2.083  -0.796   1.137  0.00  0.00    +0.006 A 
ENDBRANCH   2  10
BRANCH   5  16
ATOM     16  N   UNL     1       2.826  -1.867  -1.372  0.00  0.00    -0.224 N 
ATOM     17  C   UNL     1       4.063  -1.337  -1.451  0.00  0.00    +0.230 C 
ATOM     18  O   UNL     1       4.316  -0.299  -0.878  0.00  0.00    -0.274 OA
ATOM     19  H   UNL     1       2.623  -2.697  -1.830  0.00  0.00    +0.174 HD
BRANCH  17  20
ATOM     20  C   UNL     1       5.131  -2.036  -2.252  0.00  0.00    +0.097 C 
BRANCH  20  21
ATOM     21  C   UNL     1       6.431  -1.232  -2.178  0.00  0.00    +0.014 C 
BRANCH  21  22
ATOM     22  C   UNL     1       7.516  -1.941  -2.991  0.00  0.00    +0.035 C 
BRANCH  22  23
ATOM     23  C   UNL     1       8.796  -1.149  -2.919  0.00  0.00    -0.047 A 
ATOM     24  C   UNL     1       9.055  -0.165  -3.855  0.00  0.00    +0.005 A 
ATOM     25  C   UNL     1      10.229   0.561  -3.789  0.00  0.00    +0.020 A 
ATOM     26  C   UNL     1      11.145   0.304  -2.785  0.00  0.00    +0.041 A 
ATOM     27  C   UNL     1      10.886  -0.681  -1.848  0.00  0.00    +0.020 A 
ATOM     28  C   UNL     1       9.710  -1.403  -1.912  0.00  0.00    +0.005 A 
ATOM     29 CL   UNL     1      12.620   1.215  -2.702  0.00  0.00    -0.084 Cl
ENDBRANCH  22  23
ENDBRANCH  21  22
ENDBRANCH  20  21
ENDBRANCH  17  20
ENDBRANCH   5  16
TORSDOF 6
