REMARK  Name = ZINC37640086
REMARK  4 active torsions:
REMARK  status: ('A' for Active; 'I' for Inactive)
REMARK    1  A    between atoms: C_1  and  C_2
REMARK    2  A    between atoms: C_2  and  C_4
REMARK    3  A    between atoms: C_4  and  N_5
REMARK    4  A    between atoms: N_16  and  C_19
REMARK                            x       y       z     vdW  Elec       q    Type
REMARK                         _______ _______ _______ _____ _____    ______ ____
ROOT
ATOM      1  N   UNL     1      -1.761  -0.929   1.390  0.00  0.00    -0.283 N 
ATOM      2  C   UNL     1      -1.365  -2.018   2.125  0.00  0.00    +0.097 A 
ATOM      3  C   UNL     1      -1.792  -2.191   3.437  0.00  0.00    +0.074 A 
ATOM      4  C   UNL     1      -1.297  -3.399   4.114  0.00  0.00    -0.023 A 
ATOM      5  C   UNL     1      -0.494  -4.173   3.367  0.00  0.00    -0.004 A 
ATOM      6  S   UNL     1      -0.391  -3.335   1.806  0.00  0.00    -0.075 S 
ATOM      7  C   UNL     1      -0.021  -5.386   4.122  0.00  0.00    +0.043 C 
ATOM      8  C   UNL     1      -0.298  -5.055   5.605  0.00  0.00    +0.010 C 
ATOM      9  C   UNL     1      -1.456  -4.042   5.490  0.00  0.00    +0.037 C 
ATOM     10  C   UNL     1      -2.684  -1.142   3.975  0.00  0.00    +0.265 A 
ATOM     11  O   UNL     1      -3.105  -1.215   5.115  0.00  0.00    -0.267 OA
ATOM     12  N   UNL     1      -3.024  -0.105   3.187  0.00  0.00    -0.263 N 
ATOM     13  C   UNL     1      -2.571   0.002   1.928  0.00  0.00    +0.333 A 
ATOM     14  O   UNL     1      -2.903   0.960   1.256  0.00  0.00    -0.246 OA
ATOM     15  C   UNL     1      -3.908   0.935   3.719  0.00  0.00    +0.157 C 
ENDROOT
BRANCH   1  16
ATOM     16  C   UNL     1      -1.293  -0.775   0.010  0.00  0.00    +0.157 C 
BRANCH  16  18
ATOM     17  C   UNL     1      -0.018   1.503   0.010  0.00  0.00    +0.040 C 
ATOM     18  C   UNL     1       0.002  -0.004   0.002  0.00  0.00    -0.060 C 
ATOM     19  C   UNL     1       1.145  -0.644  -0.012  0.00  0.00    +0.009 C 
ENDBRANCH  16  18
ENDBRANCH   1  16
TORSDOF 2
