REMARK  Name = ZINC60142612
REMARK  14 active torsions:
REMARK  status: ('A' for Active; 'I' for Inactive)
REMARK    1  A    between atoms: C_1  and  C_2
REMARK    2  A    between atoms: C_6  and  O_9
REMARK    3  A    between atoms: C_7  and  C_8
REMARK    4  A    between atoms: O_9  and  C_10
REMARK    5  A    between atoms: C_10  and  C_12
REMARK    6  A    between atoms: C_10  and  C_13
REMARK    7  A    between atoms: N_15  and  N_16
REMARK    8  A    between atoms: C_17  and  C_19
REMARK    9  A    between atoms: C_19  and  C_20
REMARK   10  A    between atoms: C_26  and  O_28
REMARK   11  A    between atoms: O_28  and  C_29
REMARK   12  A    between atoms: C_29  and  C_30
REMARK   13  A    between atoms: C_29  and  C_31
REMARK   14  A    between atoms: C_29  and  C_32
REMARK                            x       y       z     vdW  Elec       q    Type
REMARK                         _______ _______ _______ _____ _____    ______ ____
ROOT
ATOM      1  N   UNL     1       1.280  -6.725   4.739  0.00  0.00    -0.234 N 
ATOM      2  C   UNL     1       1.399  -8.064   4.835  0.00  0.00    +0.229 C 
ATOM      3  O   UNL     1       1.004  -8.774   3.934  0.00  0.00    -0.274 OA
ATOM      4  H   UNL     1       1.597  -6.157   5.459  0.00  0.00    +0.173 HD
ENDROOT
BRANCH   1   7
ATOM      5  C   UNL     1       0.582  -4.814   3.503  0.00  0.00    +0.270 C 
ATOM      6  O   UNL     1       0.977  -4.104   4.403  0.00  0.00    -0.270 OA
ATOM      7  N   UNL     1       0.701  -6.153   3.599  0.00  0.00    -0.231 N 
ATOM      8  H   UNL     1       0.385  -6.721   2.879  0.00  0.00    +0.173 HD
BRANCH   5   9
ATOM      9  C   UNL     1      -0.043  -4.199   2.277  0.00  0.00    +0.257 C 
ATOM     10  C   UNL     1      -1.514  -4.611   2.192  0.00  0.00    +0.062 C 
BRANCH   9  11
ATOM     11  O   UNL     1       0.050  -2.776   2.358  0.00  0.00    -0.480 OA
BRANCH  11  17
ATOM     12  C   UNL     1       0.438   1.473  -0.013  0.00  0.00    +0.044 C 
ATOM     13  C   UNL     1       0.221  -0.018  -0.009  0.00  0.00    -0.044 A 
ATOM     14  C   UNL     1       0.006  -0.688  -1.200  0.00  0.00    +0.004 A 
ATOM     15  C   UNL     1      -0.194  -2.056  -1.200  0.00  0.00    +0.004 A 
ATOM     16  C   UNL     1      -0.179  -2.757  -0.009  0.00  0.00    +0.046 A 
ATOM     17  C   UNL     1       0.036  -2.088   1.186  0.00  0.00    +0.125 A 
ATOM     18  C   UNL     1       0.242  -0.716   1.183  0.00  0.00    -0.006 A 
ATOM     19  C   UNL     1       0.482   0.014   2.479  0.00  0.00    +0.048 C 
ENDBRANCH  11  17
ENDBRANCH   9  11
ENDBRANCH   5   9
ENDBRANCH   1   7
BRANCH   2  20
ATOM     20  C   UNL     1       2.023  -8.679   6.061  0.00  0.00    +0.101 C 
BRANCH  20  21
ATOM     21  C   UNL     1       2.037 -10.203   5.917  0.00  0.00    +0.001 C 
ATOM     22  C   UNL     1       0.599 -10.725   5.887  0.00  0.00    +0.023 C 
ATOM     23  C   UNL     1       0.615 -12.246   5.708  0.00  0.00    +0.111 C 
ATOM     24  N   UNL     1       1.450 -12.837   6.762  0.00  0.00    -0.267 N 
ATOM     25  C   UNL     1       2.823 -12.343   6.937  0.00  0.00    +0.111 C 
ATOM     26  C   UNL     1       2.781 -10.820   7.102  0.00  0.00    +0.023 C 
ATOM     27  C   UNL     1       0.966 -13.814   7.555  0.00  0.00    +0.403 C 
ATOM     28  O   UNL     1      -0.171 -14.214   7.400  0.00  0.00    -0.226 OA
BRANCH  27  29
ATOM     29  O   UNL     1       1.742 -14.347   8.517  0.00  0.00    -0.445 OA
BRANCH  29  30
ATOM     30  C   UNL     1       1.165 -15.378   9.320  0.00  0.00    +0.107 C 
ATOM     31  C   UNL     1       0.755 -16.550   8.426  0.00  0.00    +0.055 C 
ATOM     32  C   UNL     1       2.189 -15.856  10.351  0.00  0.00    +0.055 C 
ATOM     33  C   UNL     1      -0.069 -14.832  10.042  0.00  0.00    +0.055 C 
ENDBRANCH  29  30
ENDBRANCH  27  29
ENDBRANCH  20  21
ENDBRANCH   2  20
TORSDOF 8
