REMARK  Name = ZINC64392161
REMARK  5 active torsions:
REMARK  status: ('A' for Active; 'I' for Inactive)
REMARK    1  A    between atoms: C_1  and  C_2
REMARK    2  A    between atoms: C_5  and  C_8
REMARK    3  A    between atoms: C_10  and  C_14
REMARK    4  A    between atoms: N_24  and  C_27
REMARK    5  A    between atoms: C_27  and  C_28
REMARK                            x       y       z     vdW  Elec       q    Type
REMARK                         _______ _______ _______ _____ _____    ______ ____
ROOT
ATOM      1  C   UNL     1      -1.503  -7.196   0.369  0.00  0.00    +0.006 A 
ATOM      2  C   UNL     1      -2.583  -6.479  -0.124  0.00  0.00    +0.009 A 
ATOM      3  C   UNL     1      -3.808  -7.090  -0.293  0.00  0.00    +0.016 A 
ATOM      4  C   UNL     1      -3.955  -8.435   0.037  0.00  0.00    +0.063 A 
ATOM      5  C   UNL     1      -2.860  -9.160   0.537  0.00  0.00    +0.056 A 
ATOM      6  C   UNL     1      -1.634  -8.531   0.695  0.00  0.00    +0.034 A 
ATOM      7  N   UNL     1      -3.035 -10.499   0.857  0.00  0.00    -0.307 N 
ATOM      8  H   UNL     1      -2.289 -11.012   1.204  0.00  0.00    +0.170 HD
ATOM      9  C   UNL     1      -4.231 -11.091   0.692  0.00  0.00    +0.330 A 
ATOM     10  O   UNL     1      -4.343 -12.266   0.984  0.00  0.00    -0.246 OA
ATOM     11  N   UNL     1      -5.305 -10.442   0.218  0.00  0.00    -0.256 N 
ATOM     12  C   UNL     1      -5.241  -9.136  -0.123  0.00  0.00    +0.265 A 
ATOM     13  O   UNL     1      -6.219  -8.555  -0.552  0.00  0.00    -0.267 OA
ENDROOT
BRANCH   1  16
ATOM     14  C   UNL     1       0.193  -4.386  -0.090  0.00  0.00    +0.134 C 
ATOM     15  N   UNL     1      -0.368  -5.088   0.846  0.00  0.00    -0.339 N 
ATOM     16  C   UNL     1      -0.172  -6.512   0.546  0.00  0.00    +0.274 C 
ATOM     17  O   UNL     1       0.574  -6.546  -0.680  0.00  0.00    -0.243 OA
ATOM     18  N   UNL     1       0.772  -5.188  -1.041  0.00  0.00    -0.247 N 
ATOM     19  H   UNL     1       1.243  -4.877  -1.830  0.00  0.00    +0.196 HD
ATOM     20  H   UNL     1      -0.838  -4.732   1.615  0.00  0.00    +0.164 HD
BRANCH  14  25
ATOM     21  C   UNL     1       0.227   1.369  -0.243  0.00  0.00    +0.044 C 
ATOM     22  C   UNL     1       0.218  -0.138  -0.203  0.00  0.00    -0.050 A 
ATOM     23  C   UNL     1       0.235  -0.858  -1.384  0.00  0.00    +0.004 A 
ATOM     24  C   UNL     1       0.228  -2.238  -1.353  0.00  0.00    +0.012 A 
ATOM     25  C   UNL     1       0.202  -2.905  -0.129  0.00  0.00    +0.017 A 
ATOM     26  C   UNL     1       0.185  -2.173   1.058  0.00  0.00    +0.012 A 
ATOM     27  C   UNL     1       0.199  -0.794   1.015  0.00  0.00    +0.004 A 
ENDBRANCH  14  25
ENDBRANCH   1  16
BRANCH  11  28
ATOM     28  C   UNL     1      -6.572 -11.162   0.068  0.00  0.00    +0.166 C 
BRANCH  28  29
ATOM     29  C   UNL     1      -7.285 -11.206   1.395  0.00  0.00    -0.009 A 
ATOM     30  C   UNL     1      -7.119 -12.292   2.233  0.00  0.00    +0.007 A 
ATOM     31  C   UNL     1      -7.773 -12.332   3.450  0.00  0.00    +0.000 A 
ATOM     32  C   UNL     1      -8.594 -11.286   3.830  0.00  0.00    +0.001 A 
ATOM     33  C   UNL     1      -8.760 -10.200   2.992  0.00  0.00    +0.020 A 
ATOM     34  C   UNL     1      -8.101 -10.156   1.776  0.00  0.00    +0.046 A 
ATOM     35 CL   UNL     1      -8.305  -8.789   0.727  0.00  0.00    -0.083 Cl
ENDBRANCH  28  29
ENDBRANCH  11  28
TORSDOF 4
