REMARK  Name = ZINC21093066
REMARK  11 active torsions:
REMARK  status: ('A' for Active; 'I' for Inactive)
REMARK    1  A    between atoms: C_1  and  C_2
REMARK    2  A    between atoms: C_3  and  C_7
REMARK    3  A    between atoms: C_10  and  S_13
REMARK    4  A    between atoms: N_11  and  N_12
REMARK    5  A    between atoms: S_13  and  C_14
REMARK    6  A    between atoms: C_14  and  C_15
REMARK    7  A    between atoms: N_17  and  C_18
REMARK    8  A    between atoms: C_18  and  C_19
REMARK    9  A    between atoms: C_19  and  C_20
REMARK   10  A    between atoms: C_23  and  O_26
REMARK   11  A    between atoms: O_26  and  C_27
REMARK                            x       y       z     vdW  Elec       q    Type
REMARK                         _______ _______ _______ _____ _____    ______ ____
ROOT
ATOM      1  S   UNL     1      -1.696  -0.631   0.015  0.00  0.00    -0.075 S 
ENDROOT
BRANCH   1   5
ATOM      2  C   UNL     1      -1.613  -4.537  -0.007  0.00  0.00    +0.185 A 
ATOM      3  N   UNL     1      -0.339  -4.221  -0.017  0.00  0.00    -0.127 NA
ATOM      4  N   UNL     1      -0.204  -2.943  -0.011  0.00  0.00    -0.121 NA
ATOM      5  C   UNL     1      -1.383  -2.364   0.003  0.00  0.00    +0.209 A 
ATOM      6  N   UNL     1      -2.321  -3.358   0.012  0.00  0.00    -0.224 N 
BRANCH   2   9
ATOM      7  C   UNL     1       0.008  -7.220  -0.050  0.00  0.00    +0.087 C 
ATOM      8  C   UNL     1      -1.492  -7.077  -0.028  0.00  0.00    +0.112 A 
ATOM      9  C   UNL     1      -2.179  -5.903  -0.009  0.00  0.00    +0.061 A 
ATOM     10  C   UNL     1      -3.600  -6.274   0.002  0.00  0.00    +0.053 A 
ATOM     11  C   UNL     1      -3.633  -7.617  -0.006  0.00  0.00    +0.196 A 
ATOM     12  O   UNL     1      -2.376  -8.086  -0.021  0.00  0.00    -0.467 OA
ENDBRANCH   2   9
BRANCH   6  13
ATOM     13  N   UNL     1      -3.679  -3.212   0.032  0.00  0.00    -0.295 N 
ATOM     14  H   UNL     1      -4.123  -2.205   0.046  0.00  0.00    +0.163 HD
ATOM     15  H   UNL     1      -4.328  -4.099   0.035  0.00  0.00    +0.163 HD
ENDBRANCH   6  13
ENDBRANCH   1   5
BRANCH   1  16
ATOM     16  C   UNL     1       0.002  -0.004   0.002  0.00  0.00    +0.173 C 
BRANCH  16  17
ATOM     17  C   UNL     1      -0.018   1.503   0.010  0.00  0.00    +0.223 C 
ATOM     18  O   UNL     1      -1.077   2.095   0.018  0.00  0.00    -0.275 OA
ATOM     19  N   UNL     1       1.139   2.192   0.003  0.00  0.00    -0.314 N 
ATOM     20  H   UNL     1       2.099   1.655  -0.009  0.00  0.00    +0.149 HD
BRANCH  19  21
ATOM     21  C   UNL     1       1.120   3.657   0.011  0.00  0.00    +0.109 C 
BRANCH  21  22
ATOM     22  C   UNL     1       2.555   4.187   0.000  0.00  0.00    +0.054 C 
BRANCH  22  23
ATOM     23  C   UNL     1       2.535   5.694   0.008  0.00  0.00    -0.046 A 
ATOM     24  C   UNL     1       2.519   6.390  -1.186  0.00  0.00    +0.007 A 
ATOM     25  C   UNL     1       2.495   7.772  -1.181  0.00  0.00    +0.046 A 
ATOM     26  C   UNL     1       2.497   8.460   0.024  0.00  0.00    +0.120 A 
ATOM     27  C   UNL     1       2.518   7.759   1.220  0.00  0.00    +0.046 A 
ATOM     28  C   UNL     1       2.537   6.377   1.210  0.00  0.00    +0.007 A 
BRANCH  26  29
ATOM     29  O   UNL     1       2.478   9.819   0.031  0.00  0.00    -0.495 OA
ATOM     30  C   UNL     1       2.457  10.474  -1.238  0.00  0.00    +0.277 C 
ENDBRANCH  26  29
ENDBRANCH  22  23
ENDBRANCH  21  22
ENDBRANCH  19  21
ENDBRANCH  16  17
ENDBRANCH   1  16
TORSDOF 9
