REMARK  Name = ZINC38530262
REMARK  7 active torsions:
REMARK  status: ('A' for Active; 'I' for Inactive)
REMARK    1  A    between atoms: C_1  and  N_2
REMARK    2  A    between atoms: N_2  and  C_3
REMARK    3  A    between atoms: C_4  and  C_6
REMARK    4  A    between atoms: C_6  and  N_7
REMARK    5  A    between atoms: N_10  and  C_13
REMARK    6  A    between atoms: C_13  and  C_14
REMARK    7  A    between atoms: C_19  and  C_24
REMARK                            x       y       z     vdW  Elec       q    Type
REMARK                         _______ _______ _______ _____ _____    ______ ____
ROOT
ATOM      1  C   UNL     1       1.268  -6.213  -6.056  0.00  0.00    +0.138 C 
ATOM      2  N   UNL     1       1.310  -6.826  -4.894  0.00  0.00    -0.160 NA
ATOM      3  C   UNL     1       1.410  -8.154  -4.799  0.00  0.00    +0.272 C 
ATOM      4  O   UNL     1       1.446  -8.702  -3.708  0.00  0.00    -0.268 OA
ATOM      5  C   UNL     1       1.477  -8.952  -6.055  0.00  0.00    +0.078 C 
ATOM      6  C   UNL     1       1.581 -10.331  -6.171  0.00  0.00    +0.020 C 
ATOM      7  C   UNL     1       1.630 -10.889  -7.576  0.00  0.00    +0.115 C 
ATOM      8  S   UNL     1       1.518  -9.352  -8.577  0.00  0.00    -0.100 S 
ATOM      9  C   UNL     1       1.423  -8.179  -7.246  0.00  0.00    +0.112 C 
ATOM     10  N   UNL     1       1.319  -6.867  -7.203  0.00  0.00    -0.226 NA
ENDROOT
BRANCH   6  11
ATOM     11  C   UNL     1       1.640 -11.162  -5.046  0.00  0.00    +0.132 A 
ATOM     12  C   UNL     1       0.692 -12.110  -4.676  0.00  0.00    +0.049 A 
ATOM     13  C   UNL     1       1.159 -12.697  -3.498  0.00  0.00    +0.042 A 
ATOM     14  C   UNL     1       2.343 -12.107  -3.194  0.00  0.00    +0.195 A 
ATOM     15  O   UNL     1       2.630 -11.192  -4.127  0.00  0.00    -0.463 OA
ENDBRANCH   6  11
BRANCH   1  16
ATOM     16  C   UNL     1       1.154  -4.711  -6.081  0.00  0.00    +0.158 C 
BRANCH  16  20
ATOM     17  N   UNL     1       0.014  -2.661  -2.565  0.00  0.00    +0.387 N 
ATOM     18  C   UNL     1       1.257  -2.250  -3.231  0.00  0.00    -0.063 C 
ATOM     19  C   UNL     1       1.242  -2.736  -4.682  0.00  0.00    +0.066 C 
ATOM     20  N   UNL     1       1.115  -4.200  -4.705  0.00  0.00    -0.299 NA
ATOM     21  C   UNL     1      -0.113  -4.627  -4.019  0.00  0.00    +0.066 C 
ATOM     22  C   UNL     1      -0.087  -4.126  -2.573  0.00  0.00    -0.063 C 
ATOM     23  H   UNL     1      -0.776  -2.267  -3.054  0.00  0.00    -0.081 HD
BRANCH  17  24
ATOM     24  C   UNL     1       0.021  -2.178  -1.177  0.00  0.00    +0.019 C 
BRANCH  24  28
ATOM     25  C   UNL     1      -0.018   1.461   0.010  0.00  0.00    +0.131 C 
ATOM     26  N   UNL     1       0.002  -0.004   0.002  0.00  0.00    -0.309 N 
ATOM     27  C   UNL     1       0.024  -0.743   1.267  0.00  0.00    +0.131 C 
ATOM     28  C   UNL     1       0.000  -0.672  -1.169  0.00  0.00    +0.199 C 
ATOM     29  O   UNL     1      -0.018  -0.060  -2.216  0.00  0.00    -0.278 OA
ENDBRANCH  24  28
ENDBRANCH  17  24
ENDBRANCH  16  20
ENDBRANCH   1  16
TORSDOF 5
