REMARK  Name = ZINC64405055
REMARK  11 active torsions:
REMARK  status: ('A' for Active; 'I' for Inactive)
REMARK    1  A    between atoms: C_1  and  C_2
REMARK    2  A    between atoms: C_3  and  C_15
REMARK    3  A    between atoms: C_4  and  C_14
REMARK    4  A    between atoms: N_5  and  C_7
REMARK    5  A    between atoms: C_15  and  C_16
REMARK    6  A    between atoms: N_18  and  C_19
REMARK    7  A    between atoms: C_19  and  C_20
REMARK    8  A    between atoms: N_22  and  C_23
REMARK    9  A    between atoms: C_23  and  C_24
REMARK   10  A    between atoms: C_24  and  C_25
REMARK   11  A    between atoms: C_24  and  C_26
REMARK                            x       y       z     vdW  Elec       q    Type
REMARK                         _______ _______ _______ _____ _____    ______ ____
ROOT
ATOM      1  C   UNL     1      -0.339   1.479   0.029  0.00  0.00    +0.068 C 
ATOM      2  C   UNL     1      -0.137  -0.015   0.010  0.00  0.00    +0.064 A 
ATOM      3  C   UNL     1      -0.127  -0.827  -1.129  0.00  0.00    +0.005 A 
ATOM      4  C   UNL     1       0.084  -2.102  -0.730  0.00  0.00    +0.046 A 
ATOM      5  N   UNL     1       0.203  -2.097   0.617  0.00  0.00    -0.236 N 
ATOM      6  N   UNL     1       0.066  -0.774   1.056  0.00  0.00    -0.171 NA
ATOM      7  C   UNL     1       0.170  -3.312  -1.625  0.00  0.00    +0.066 C 
ENDROOT
BRANCH   5   8
ATOM      8  C   UNL     1       0.430  -3.217   1.429  0.00  0.00    +0.066 A 
ATOM      9  C   UNL     1       1.348  -4.184   1.042  0.00  0.00    +0.029 A 
ATOM     10  C   UNL     1       1.569  -5.286   1.843  0.00  0.00    +0.022 A 
ATOM     11  C   UNL     1       0.876  -5.428   3.033  0.00  0.00    +0.041 A 
ATOM     12  C   UNL     1      -0.040  -4.466   3.422  0.00  0.00    +0.022 A 
ATOM     13  C   UNL     1      -0.260  -3.359   2.626  0.00  0.00    +0.029 A 
ATOM     14 CL   UNL     1       1.155  -6.816   4.038  0.00  0.00    -0.084 Cl
ENDBRANCH   5   8
BRANCH   3  15
ATOM     15  C   UNL     1      -0.317  -0.363  -2.550  0.00  0.00    +0.134 C 
BRANCH  15  16
ATOM     16  C   UNL     1       1.021  -0.016  -3.150  0.00  0.00    +0.218 C 
ATOM     17  O   UNL     1       2.031  -0.134  -2.488  0.00  0.00    -0.275 OA
ATOM     18  N   UNL     1       1.097   0.425  -4.421  0.00  0.00    -0.306 N 
ATOM     19  H   UNL     1       0.289   0.520  -4.950  0.00  0.00    +0.149 HD
BRANCH  18  20
ATOM     20  C   UNL     1       2.398   0.762  -5.003  0.00  0.00    +0.200 C 
BRANCH  20  21
ATOM     21  C   UNL     1       2.208   1.226  -6.424  0.00  0.00    +0.230 C 
ATOM     22  O   UNL     1       1.094   1.271  -6.903  0.00  0.00    -0.274 OA
ATOM     23  N   UNL     1       3.274   1.591  -7.163  0.00  0.00    -0.314 N 
ATOM     24  H   UNL     1       4.165   1.555  -6.779  0.00  0.00    +0.149 HD
BRANCH  23  25
ATOM     25  C   UNL     1       3.089   2.042  -8.544  0.00  0.00    +0.107 C 
BRANCH  25  26
ATOM     26  C   UNL     1       4.448   2.394  -9.152  0.00  0.00    -0.000 C 
ATOM     27  C   UNL     1       5.305   1.130  -9.251  0.00  0.00    +0.009 C 
ATOM     28  C   UNL     1       4.245   2.982 -10.550  0.00  0.00    +0.009 C 
ENDBRANCH  25  26
ENDBRANCH  23  25
ENDBRANCH  20  21
ENDBRANCH  18  20
ENDBRANCH  15  16
ENDBRANCH   3  15
TORSDOF 7
