REMARK  Name = ZINC39697744
REMARK  9 active torsions:
REMARK  status: ('A' for Active; 'I' for Inactive)
REMARK    1  A    between atoms: C_1  and  C_2
REMARK    2  A    between atoms: C_9  and  C_16
REMARK    3  A    between atoms: C_10  and  N_11
REMARK    4  A    between atoms: N_11  and  C_12
REMARK    5  A    between atoms: C_12  and  C_13
REMARK    6  A    between atoms: C_13  and  O_14
REMARK    7  A    between atoms: O_14  and  C_15
REMARK    8  A    between atoms: C_22  and  O_28
REMARK    9  A    between atoms: O_28  and  C_29
REMARK                            x       y       z     vdW  Elec       q    Type
REMARK                         _______ _______ _______ _____ _____    ______ ____
ROOT
ATOM      1  C   UNL     1      -0.018   1.503   0.010  0.00  0.00    +0.044 C 
ATOM      2  C   UNL     1       0.002  -0.004   0.002  0.00  0.00    -0.046 A 
ATOM      3  C   UNL     1       0.006  -0.703  -1.219  0.00  0.00    +0.021 A 
ATOM      4  C   UNL     1       0.024  -2.051  -1.232  0.00  0.00    +0.094 A 
ATOM      5  N   UNL     1       0.039  -2.758  -0.061  0.00  0.00    -0.289 N 
ATOM      6  C   UNL     1       0.036  -2.102   1.148  0.00  0.00    +0.117 A 
ATOM      7  C   UNL     1       0.023  -0.692   1.174  0.00  0.00    +0.048 A 
ATOM      8  N   UNL     1       0.052  -3.011   2.110  0.00  0.00    -0.341 N 
ATOM      9  C   UNL     1       0.066  -4.232   1.562  0.00  0.00    +0.072 A 
ATOM     10  C   UNL     1       0.058  -4.099   0.211  0.00  0.00    +0.125 A 
ATOM     11  H   UNL     1       0.054  -2.823   3.061  0.00  0.00    +0.167 HD
ENDROOT
BRANCH   9  12
ATOM     12  C   UNL     1       0.086  -5.535   2.317  0.00  0.00    +0.148 C 
ATOM     13  C   UNL     1       1.385  -5.601   3.095  0.00  0.00    +0.001 C 
ATOM     14  C   UNL     1       1.299  -5.746   4.446  0.00  0.00    -0.006 A 
ATOM     15  C   UNL     1       2.508  -5.818   5.269  0.00  0.00    +0.013 A 
ATOM     16  C   UNL     1       2.384  -5.962   6.610  0.00  0.00    +0.046 A 
ATOM     17  C   UNL     1       1.123  -6.044   7.220  0.00  0.00    +0.122 A 
ATOM     18  C   UNL     1      -0.049  -5.983   6.498  0.00  0.00    +0.069 A 
ATOM     19  C   UNL     1      -0.017  -5.834   5.106  0.00  0.00    +0.044 A 
ATOM     20  N   UNL     1      -1.159  -5.776   4.416  0.00  0.00    -0.284 N 
ATOM     21  C   UNL     1      -1.202  -5.635   3.104  0.00  0.00    +0.230 C 
ATOM     22  O   UNL     1      -2.273  -5.587   2.530  0.00  0.00    -0.274 OA
ATOM     23  H   UNL     1      -1.996  -5.839   4.902  0.00  0.00    +0.155 HD
BRANCH  17  24
ATOM     24  O   UNL     1       1.056  -6.188   8.565  0.00  0.00    -0.495 OA
ATOM     25  C   UNL     1       2.295  -6.246   9.274  0.00  0.00    +0.277 C 
ENDBRANCH  17  24
ENDBRANCH   9  12
BRANCH  10  26
ATOM     26  N   UNL     1       0.067  -5.139  -0.727  0.00  0.00    -0.327 N 
ATOM     27  H   UNL     1       0.080  -6.061  -0.428  0.00  0.00    +0.148 HD
BRANCH  26  28
ATOM     28  C   UNL     1       0.057  -4.832  -2.159  0.00  0.00    +0.131 C 
BRANCH  28  29
ATOM     29  C   UNL     1       0.070  -6.136  -2.960  0.00  0.00    +0.178 C 
BRANCH  29  30
ATOM     30  O   UNL     1      -1.141  -6.856  -2.718  0.00  0.00    -0.381 OA
ATOM     31  C   UNL     1      -1.231  -8.096  -3.422  0.00  0.00    +0.194 C 
ENDBRANCH  29  30
ENDBRANCH  28  29
ENDBRANCH  26  28
ENDBRANCH  10  26
TORSDOF 6
