REMARK  Name = ZINC13148329
REMARK  8 active torsions:
REMARK  status: ('A' for Active; 'I' for Inactive)
REMARK    1  A    between atoms: C_1  and  C_2
REMARK    2  A    between atoms: C_7  and  C_8
REMARK    3  A    between atoms: C_10  and  O_31
REMARK    4  A    between atoms: N_12  and  N_13
REMARK    5  A    between atoms: C_14  and  C_16
REMARK    6  A    between atoms: C_19  and  N_22
REMARK    7  A    between atoms: N_22  and  S_23
REMARK    8  A    between atoms: S_23  and  C_26
REMARK                            x       y       z     vdW  Elec       q    Type
REMARK                         _______ _______ _______ _____ _____    ______ ____
ROOT
ATOM      1  N   UNL     1       0.523   1.424   0.209  0.00  0.00    -0.202 N 
ATOM      2  C   UNL     1      -0.704   1.977   0.156  0.00  0.00    +0.263 C 
ATOM      3  O   UNL     1      -1.691   1.267   0.131  0.00  0.00    -0.268 OA
ATOM      4  H   UNL     1       1.311   1.990   0.224  0.00  0.00    +0.178 HD
ENDROOT
BRANCH   1  16
ATOM      5  C   UNL     1       4.175  -5.624   0.438  0.00  0.00    +0.044 C 
ATOM      6  C   UNL     1       3.485  -4.285   0.395  0.00  0.00    -0.045 A 
ATOM      7  C   UNL     1       2.100  -4.230   0.351  0.00  0.00    +0.004 A 
ATOM      8  C   UNL     1       1.454  -3.009   0.311  0.00  0.00    +0.012 A 
ATOM      9  C   UNL     1       2.197  -1.837   0.314  0.00  0.00    +0.033 A 
ATOM     10  C   UNL     1       3.605  -1.883   0.358  0.00  0.00    +0.080 A 
ATOM     11  C   UNL     1       4.237  -3.131   0.399  0.00  0.00    -0.021 A 
ATOM     12  C   UNL     1       5.741  -3.212   0.447  0.00  0.00    +0.046 C 
ATOM     13  N   UNL     1       4.095  -0.616   0.353  0.00  0.00    -0.211 NA
ATOM     14  C   UNL     1       3.153   0.290   0.303  0.00  0.00    +0.241 C 
ATOM     15  C   UNL     1       1.848  -0.399   0.280  0.00  0.00    +0.152 C 
ATOM     16  N   UNL     1       0.652   0.141   0.234  0.00  0.00    -0.174 NA
BRANCH  14  17
ATOM     17  O   UNL     1       3.343   1.631   0.280  0.00  0.00    -0.491 OA
ATOM     18  H   UNL     1       4.272   1.897   0.301  0.00  0.00    +0.294 HD
ENDBRANCH  14  17
ENDBRANCH   1  16
BRANCH   2  19
ATOM     19  C   UNL     1      -0.851   3.444   0.127  0.00  0.00    +0.038 A 
ATOM     20  C   UNL     1       0.282   4.262   0.161  0.00  0.00    +0.015 A 
ATOM     21  C   UNL     1       0.143   5.626   0.129  0.00  0.00    +0.025 A 
ATOM     22  C   UNL     1      -1.127   6.196   0.074  0.00  0.00    +0.048 A 
ATOM     23  C   UNL     1      -2.257   5.384   0.046  0.00  0.00    +0.025 A 
ATOM     24  C   UNL     1      -2.124   4.020   0.072  0.00  0.00    +0.015 A 
BRANCH  22  25
ATOM     25  N   UNL     1      -1.265   7.579   0.047  0.00  0.00    -0.216 N 
ATOM     26  H   UNL     1      -1.070   8.070  -0.766  0.00  0.00    +0.174 HD
BRANCH  25  27
ATOM     27  S   UNL     1      -1.764   8.388   1.403  0.00  0.00    +0.079 S 
ATOM     28  O   UNL     1      -1.762   9.771   1.075  0.00  0.00    -0.149 OA
ATOM     29  O   UNL     1      -2.926   7.718   1.872  0.00  0.00    -0.149 OA
BRANCH  27  30
ATOM     30  C   UNL     1      -0.521   8.160   2.632  0.00  0.00    +0.146 A 
ATOM     31  C   UNL     1       0.524   8.963   2.948  0.00  0.00    +0.036 A 
ATOM     32  C   UNL     1       1.382   8.579   3.961  0.00  0.00    +0.010 A 
ATOM     33  C   UNL     1       1.153   7.411   4.609  0.00  0.00    +0.047 A 
ATOM     34  S   UNL     1      -0.318   6.816   3.789  0.00  0.00    -0.077 S 
ENDBRANCH  27  30
ENDBRANCH  25  27
ENDBRANCH  22  25
ENDBRANCH   2  19
TORSDOF 6
