REMARK  Name = ZINC39635766
REMARK  4 active torsions:
REMARK  status: ('A' for Active; 'I' for Inactive)
REMARK    1  A    between atoms: C_1  and  C_2
REMARK    2  A    between atoms: C_8  and  N_10
REMARK    3  A    between atoms: C_11  and  C_13
REMARK    4  A    between atoms: C_24  and  C_26
REMARK                            x       y       z     vdW  Elec       q    Type
REMARK                         _______ _______ _______ _____ _____    ______ ____
ROOT
ATOM      1  C   UNL     1       4.134   0.335   2.373  0.00  0.00    +0.100 C 
ATOM      2  C   UNL     1       5.166  -0.605   1.712  0.00  0.00    +0.121 C 
ATOM      3  N   UNL     1       6.410  -0.402   2.492  0.00  0.00    -0.296 N 
ATOM      4  C   UNL     1       5.949  -0.281   3.896  0.00  0.00    +0.115 C 
ATOM      5  C   UNL     1       4.650   0.544   3.806  0.00  0.00    -0.004 C 
ATOM      6  C   UNL     1       3.629   0.031   4.817  0.00  0.00    -0.010 C 
ATOM      7  C   UNL     1       4.139   0.303   6.235  0.00  0.00    -0.082 C 
ATOM      8  N   UNL     1       4.351   1.745   6.412  0.00  0.00    +0.379 N 
ATOM      9  C   UNL     1       5.402   2.212   5.500  0.00  0.00    -0.082 C 
ATOM     10  C   UNL     1       4.946   2.021   4.051  0.00  0.00    -0.010 C 
ATOM     11  C   UNL     1       7.675  -0.341   2.029  0.00  0.00    +0.247 C 
ATOM     12  O   UNL     1       8.604  -0.259   2.809  0.00  0.00    -0.270 OA
ATOM     13  H   UNL     1       3.493   2.237   6.215  0.00  0.00    -0.086 HD
ATOM     14  H   UNL     1       4.629   1.928   7.365  0.00  0.00    -0.086 HD
ENDROOT
BRANCH  11  15
ATOM     15  C   UNL     1       7.931  -0.375   0.575  0.00  0.00    +0.045 A 
ATOM     16  C   UNL     1       7.339  -1.363  -0.220  0.00  0.00    +0.014 A 
ATOM     17  C   UNL     1       7.577  -1.397  -1.577  0.00  0.00    +0.001 A 
ATOM     18  C   UNL     1       8.404  -0.455  -2.169  0.00  0.00    +0.012 A 
ATOM     19  C   UNL     1       9.002   0.534  -1.397  0.00  0.00    +0.031 A 
ATOM     20  C   UNL     1       8.764   0.584  -0.015  0.00  0.00    +0.006 A 
ATOM     21  C   UNL     1       9.513   1.732   0.556  0.00  0.00    -0.006 A 
ATOM     22  C   UNL     1       9.622   2.214   1.854  0.00  0.00    +0.009 A 
ATOM     23  C   UNL     1      10.405   3.327   2.117  0.00  0.00    +0.001 A 
ATOM     24  C   UNL     1      11.080   3.965   1.094  0.00  0.00    +0.001 A 
ATOM     25  C   UNL     1      10.981   3.497  -0.206  0.00  0.00    +0.012 A 
ATOM     26  C   UNL     1      10.200   2.381  -0.483  0.00  0.00    +0.030 A 
ATOM     27  C   UNL     1       9.914   1.651  -1.741  0.00  0.00    +0.194 C 
ATOM     28  O   UNL     1      10.335   1.924  -2.847  0.00  0.00    -0.287 OA
ENDBRANCH  11  15
BRANCH   1  30
ATOM     29  N   UNL     1       1.665   0.450   2.476  0.00  0.00    -0.312 N 
ATOM     30  C   UNL     1       2.773  -0.312   2.395  0.00  0.00    +0.218 C 
ATOM     31  O   UNL     1       2.675  -1.520   2.340  0.00  0.00    -0.275 OA
ATOM     32  H   UNL     1       1.743   1.416   2.520  0.00  0.00    +0.149 HD
BRANCH  29  39
ATOM     33  C   UNL     1      -0.191   1.013   4.627  0.00  0.00    +0.009 C 
ATOM     34  C   UNL     1      -0.654   0.751   3.193  0.00  0.00    +0.006 C 
ATOM     35  C   UNL     1      -0.732   2.075   2.432  0.00  0.00    +0.005 C 
ATOM     36  C   UNL     1      -1.195   1.813   0.997  0.00  0.00    +0.000 C 
ATOM     37  C   UNL     1      -0.199   0.883   0.302  0.00  0.00    +0.002 C 
ATOM     38  C   UNL     1      -0.121  -0.442   1.063  0.00  0.00    +0.022 C 
ATOM     39  C   UNL     1       0.342  -0.179   2.498  0.00  0.00    +0.076 C 
ENDBRANCH  29  39
ENDBRANCH   1  30
TORSDOF 3
