REMARK  Name = ZINC36301901
REMARK  13 active torsions:
REMARK  status: ('A' for Active; 'I' for Inactive)
REMARK    1  A    between atoms: C_1  and  C_2
REMARK    2  A    between atoms: C_3  and  C_21
REMARK    3  A    between atoms: C_4  and  O_14
REMARK    4  A    between atoms: N_5  and  C_7
REMARK    5  A    between atoms: O_14  and  C_15
REMARK    6  A    between atoms: C_21  and  N_22
REMARK    7  A    between atoms: N_22  and  C_23
REMARK    8  A    between atoms: N_22  and  C_27
REMARK    9  A    between atoms: C_23  and  C_24
REMARK   10  A    between atoms: C_27  and  C_28
REMARK   11  A    between atoms: C_28  and  C_30
REMARK   12  A    between atoms: C_28  and  O_37
REMARK   13  A    between atoms: C_30  and  C_31
REMARK                            x       y       z     vdW  Elec       q    Type
REMARK                         _______ _______ _______ _____ _____    ______ ____
ROOT
ATOM      1  C   UNL     1       1.188   2.178  -0.495  0.00  0.00    +0.068 C 
ATOM      2  C   UNL     1       1.227   0.696  -0.222  0.00  0.00    +0.065 A 
ATOM      3  C   UNL     1       0.953  -0.313  -1.150  0.00  0.00    +0.021 A 
ATOM      4  C   UNL     1       1.096  -1.510  -0.519  0.00  0.00    +0.225 A 
ATOM      5  N   UNL     1       1.450  -1.253   0.768  0.00  0.00    -0.200 N 
ATOM      6  N   UNL     1       1.530   0.137   0.922  0.00  0.00    -0.168 NA
ENDROOT
BRANCH   5   7
ATOM      7  C   UNL     1       1.698  -2.210   1.763  0.00  0.00    +0.069 A 
ATOM      8  C   UNL     1       0.872  -3.320   1.881  0.00  0.00    +0.029 A 
ATOM      9  C   UNL     1       1.118  -4.261   2.862  0.00  0.00    +0.022 A 
ATOM     10  C   UNL     1       2.186  -4.098   3.726  0.00  0.00    +0.041 A 
ATOM     11  C   UNL     1       3.010  -2.992   3.611  0.00  0.00    +0.022 A 
ATOM     12  C   UNL     1       2.772  -2.051   2.628  0.00  0.00    +0.029 A 
ATOM     13 CL   UNL     1       2.492  -5.282   4.958  0.00  0.00    -0.084 Cl
ENDBRANCH   5   7
BRANCH   4  14
ATOM     14  O   UNL     1       0.917  -2.736  -1.074  0.00  0.00    -0.438 OA
BRANCH  14  15
ATOM     15  C   UNL     1      -0.342  -3.246  -1.101  0.00  0.00    +0.130 A 
ATOM     16  C   UNL     1      -1.413  -2.476  -0.673  0.00  0.00    +0.046 A 
ATOM     17  C   UNL     1      -2.692  -2.997  -0.702  0.00  0.00    +0.004 A 
ATOM     18  C   UNL     1      -2.905  -4.285  -1.157  0.00  0.00    +0.000 A 
ATOM     19  C   UNL     1      -1.839  -5.055  -1.585  0.00  0.00    +0.004 A 
ATOM     20  C   UNL     1      -0.559  -4.536  -1.564  0.00  0.00    +0.046 A 
ENDBRANCH  14  15
ENDBRANCH   4  14
BRANCH   3  21
ATOM     21  C   UNL     1       0.567  -0.111  -2.592  0.00  0.00    -0.036 C 
BRANCH  21  22
ATOM     22  N   UNL     1       1.777  -0.076  -3.423  0.00  0.00    +0.384 N 
ATOM     23  H   UNL     1       2.406   0.631  -3.072  0.00  0.00    -0.081 HD
BRANCH  22  24
ATOM     24  C   UNL     1       2.440  -1.387  -3.378  0.00  0.00    -0.075 C 
BRANCH  24  25
ATOM     25  C   UNL     1       3.767  -1.313  -4.136  0.00  0.00    -0.028 C 
ATOM     26  C   UNL     1       3.907  -2.162  -5.401  0.00  0.00    +0.002 C 
ATOM     27  C   UNL     1       4.656  -2.559  -4.127  0.00  0.00    +0.002 C 
ENDBRANCH  24  25
ENDBRANCH  22  24
BRANCH  22  28
ATOM     28  C   UNL     1       1.410   0.239  -4.810  0.00  0.00    -0.046 C 
BRANCH  28  29
ATOM     29  C   UNL     1       0.858   1.665  -4.880  0.00  0.00    +0.102 C 
BRANCH  29  30
ATOM     30  O   UNL     1       1.863   2.586  -4.451  0.00  0.00    -0.393 OA
ATOM     31  H   UNL     1       2.638   2.619  -5.028  0.00  0.00    +0.210 HD
ENDBRANCH  29  30
BRANCH  29  32
ATOM     32  C   UNL     1       0.454   1.985  -6.320  0.00  0.00    +0.064 C 
BRANCH  32  33
ATOM     33  C   UNL     1      -0.202   3.341  -6.368  0.00  0.00    -0.045 A 
ATOM     34  C   UNL     1      -1.570   3.454  -6.198  0.00  0.00    +0.004 A 
ATOM     35  C   UNL     1      -2.171   4.697  -6.241  0.00  0.00    +0.000 A 
ATOM     36  C   UNL     1      -1.406   5.829  -6.455  0.00  0.00    +0.000 A 
ATOM     37  C   UNL     1      -0.039   5.716  -6.623  0.00  0.00    +0.000 A 
ATOM     38  C   UNL     1       0.564   4.473  -6.576  0.00  0.00    +0.004 A 
ENDBRANCH  32  33
ENDBRANCH  29  32
ENDBRANCH  28  29
ENDBRANCH  22  28
ENDBRANCH  21  22
ENDBRANCH   3  21
TORSDOF 12
