REMARK  Name = ZINC11996313
REMARK  8 active torsions:
REMARK  status: ('A' for Active; 'I' for Inactive)
REMARK    1  A    between atoms: C_1  and  C_2
REMARK    2  A    between atoms: C_3  and  C_4
REMARK    3  A    between atoms: C_3  and  C_5
REMARK    4  A    between atoms: C_5  and  N_57
REMARK    5  A    between atoms: C_11  and  C_15
REMARK    6  A    between atoms: C_15  and  C_17
REMARK    7  A    between atoms: C_15  and  N_18
REMARK    8  A    between atoms: C_19  and  C_21
REMARK                            x       y       z     vdW  Elec       q    Type
REMARK                         _______ _______ _______ _____ _____    ______ ____
ROOT
ATOM      1  C   UNL     1      -2.246  -0.354  -0.963  0.00  0.00    -0.071 C 
ATOM      2  C   UNL     1      -1.221  -0.883   0.046  0.00  0.00    +0.058 C 
ATOM      3  C   UNL     1       0.002  -0.004   0.002  0.00  0.00    +0.132 A 
ATOM      4  N   UNL     1       1.248  -0.376  -0.034  0.00  0.00    -0.134 NA
ATOM      5  N   UNL     1       2.008   0.664  -0.032  0.00  0.00    -0.132 NA
ATOM      6  C   UNL     1       1.275   1.746  -0.001  0.00  0.00    +0.154 A 
ATOM      7  N   UNL     1      -0.016   1.351   0.009  0.00  0.00    -0.315 N 
ATOM      8  C   UNL     1      -1.211   2.196   0.011  0.00  0.00    +0.106 C 
ATOM      9  C   UNL     1      -2.362   1.438   0.679  0.00  0.00    -0.056 C 
ATOM     10  N   UNL     1      -3.110   0.678  -0.348  0.00  0.00    +0.384 N 
ATOM     11  H   UNL     1      -3.420   1.328  -1.079  0.00  0.00    -0.081 HD
ENDROOT
BRANCH   6  12
ATOM     12  C   UNL     1       1.776   3.167   0.020  0.00  0.00    +0.138 C 
ATOM     13  C   UNL     1       2.317   3.497   1.412  0.00  0.00    +0.036 C 
BRANCH  12  14
ATOM     14  N   UNL     1       2.846   3.321  -0.969  0.00  0.00    -0.305 N 
ATOM     15  C   UNL     1       3.105   4.534  -1.498  0.00  0.00    +0.217 C 
ATOM     16  O   UNL     1       2.452   5.497  -1.156  0.00  0.00    -0.275 OA
ATOM     17  H   UNL     1       3.368   2.551  -1.243  0.00  0.00    +0.149 HD
BRANCH  15  18
ATOM     18  C   UNL     1       4.206   4.692  -2.515  0.00  0.00    +0.079 C 
ATOM     19  C   UNL     1       5.543   4.278  -1.893  0.00  0.00    +0.041 C 
ATOM     20  C   UNL     1       6.665   4.517  -2.906  0.00  0.00    +0.160 C 
ATOM     21  O   UNL     1       6.669   5.892  -3.295  0.00  0.00    -0.380 OA
ATOM     22  C   UNL     1       5.462   6.324  -3.926  0.00  0.00    +0.160 C 
ATOM     23  C   UNL     1       4.291   6.158  -2.953  0.00  0.00    +0.041 C 
ENDBRANCH  15  18
ENDBRANCH  12  14
ENDBRANCH   6  12
BRANCH  10  24
ATOM     24  C   UNL     1      -4.293   0.042   0.260  0.00  0.00    -0.048 C 
BRANCH  24  27
ATOM     25  C   UNL     1      -5.934  -2.319  -2.286  0.00  0.00    +0.035 C 
ATOM     26  C   UNL     1      -5.066  -1.769  -1.184  0.00  0.00    -0.033 C 
ATOM     27  C   UNL     1      -5.162  -0.508  -0.842  0.00  0.00    -0.093 C 
ATOM     28  C   UNL     1      -6.141   0.393  -1.551  0.00  0.00    +0.037 C 
ENDBRANCH  24  27
ENDBRANCH  10  24
TORSDOF 5
