REMARK  Name = ZINC05127527
REMARK  9 active torsions:
REMARK  status: ('A' for Active; 'I' for Inactive)
REMARK    1  A    between atoms: C_1  and  C_2
REMARK    2  A    between atoms: C_3  and  C_19
REMARK    3  A    between atoms: C_4  and  C_10
REMARK    4  A    between atoms: C_13  and  N_16
REMARK    5  A    between atoms: N_16  and  C_17
REMARK    6  A    between atoms: N_16  and  C_18
REMARK    7  A    between atoms: C_19  and  O_21
REMARK    8  A    between atoms: O_21  and  C_22
REMARK    9  A    between atoms: C_22  and  C_23
REMARK                            x       y       z     vdW  Elec       q    Type
REMARK                         _______ _______ _______ _____ _____    ______ ____
ROOT
ATOM      1  C   UNL     1       0.220  -0.012   0.022  0.00  0.00    +0.061 C 
ATOM      2  C   UNL     1       0.116   1.491  -0.012  0.00  0.00    +0.019 C 
ATOM      3  C   UNL     1       1.243   2.235  -0.058  0.00  0.00    +0.078 C 
ATOM      4  C   UNL     1       1.092   3.742  -0.091  0.00  0.00    +0.141 C 
ATOM      5  N   UNL     1      -0.280   4.276  -0.070  0.00  0.00    -0.315 N 
ATOM      6  C   UNL     1      -1.307   3.404  -0.025  0.00  0.00    +0.135 C 
ATOM      7  S   UNL     1      -2.907   4.011  -0.001  0.00  0.00    -0.019 S 
ATOM      8  N   UNL     1      -1.116   2.079  -0.002  0.00  0.00    -0.300 N 
ATOM      9  H   UNL     1      -0.441   5.232  -0.090  0.00  0.00    +0.149 HD
ATOM     10  H   UNL     1      -1.897   1.505   0.026  0.00  0.00    +0.154 HD
ENDROOT
BRANCH   4  11
ATOM     11  C   UNL     1       1.828   4.309   1.096  0.00  0.00    -0.022 A 
ATOM     12  C   UNL     1       1.235   4.297   2.345  0.00  0.00    +0.007 A 
ATOM     13  C   UNL     1       1.908   4.810   3.436  0.00  0.00    +0.023 A 
ATOM     14  C   UNL     1       3.179   5.349   3.276  0.00  0.00    +0.029 A 
ATOM     15  C   UNL     1       3.770   5.364   2.019  0.00  0.00    +0.023 A 
ATOM     16  C   UNL     1       3.093   4.844   0.933  0.00  0.00    +0.007 A 
BRANCH  14  17
ATOM     17  N   UNL     1       3.861   5.873   4.376  0.00  0.00    -0.336 N 
ATOM     18  C   UNL     1       5.148   6.547   4.187  0.00  0.00    +0.129 C 
ATOM     19  C   UNL     1       3.289   5.750   5.719  0.00  0.00    +0.129 C 
ENDBRANCH  14  17
ENDBRANCH   4  11
BRANCH   3  20
ATOM     20  C   UNL     1       2.519   1.627  -0.073  0.00  0.00    +0.339 C 
ATOM     21  O   UNL     1       2.616   0.415  -0.138  0.00  0.00    -0.245 OA
BRANCH  20  22
ATOM     22  O   UNL     1       3.631   2.390  -0.016  0.00  0.00    -0.457 OA
BRANCH  22  23
ATOM     23  C   UNL     1       4.887   1.709  -0.036  0.00  0.00    +0.268 C 
BRANCH  23  24
ATOM     24  C   UNL     1       6.006   2.716   0.035  0.00  0.00    -0.010 A 
ATOM     25  C   UNL     1       6.539   3.239  -1.129  0.00  0.00    +0.007 A 
ATOM     26  C   UNL     1       7.562   4.167  -1.064  0.00  0.00    +0.000 A 
ATOM     27  C   UNL     1       8.059   4.564   0.164  0.00  0.00    +0.000 A 
ATOM     28  C   UNL     1       7.529   4.037   1.327  0.00  0.00    +0.000 A 
ATOM     29  C   UNL     1       6.502   3.113   1.262  0.00  0.00    +0.007 A 
ENDBRANCH  23  24
ENDBRANCH  22  23
ENDBRANCH  20  22
ENDBRANCH   3  20
TORSDOF 6
