REMARK  Name = ZINC59015558
REMARK  10 active torsions:
REMARK  status: ('A' for Active; 'I' for Inactive)
REMARK    1  A    between atoms: C_1  and  C_2
REMARK    2  A    between atoms: C_2  and  C_3
REMARK    3  A    between atoms: C_3  and  C_5
REMARK    4  A    between atoms: C_3  and  C_6
REMARK    5  A    between atoms: C_9  and  N_12
REMARK    6  A    between atoms: C_13  and  C_15
REMARK    7  A    between atoms: C_15  and  S_16
REMARK    8  A    between atoms: S_16  and  C_17
REMARK    9  A    between atoms: N_22  and  N_23
REMARK   10  A    between atoms: C_24  and  C_25
REMARK                            x       y       z     vdW  Elec       q    Type
REMARK                         _______ _______ _______ _____ _____    ______ ____
ROOT
ATOM      1  C   UNL     1      -3.128 -10.541  -2.908  0.00  0.00    +0.211 A 
ATOM      2  N   UNL     1      -3.739 -11.351  -3.778  0.00  0.00    -0.186 NA
ATOM      3  C   UNL     1      -3.530 -12.606  -3.438  0.00  0.00    +0.232 A 
ATOM      4  N   UNL     1      -2.767 -12.613  -2.324  0.00  0.00    -0.245 N 
ATOM      5  N   UNL     1      -2.517 -11.269  -2.004  0.00  0.00    -0.144 NA
ATOM      6  N   UNL     1      -4.006 -13.720  -4.104  0.00  0.00    -0.205 N 
ATOM      7  H   UNL     1      -3.798 -14.608  -3.774  0.00  0.00    +0.177 HD
ATOM      8  H   UNL     1      -2.451 -13.393  -1.841  0.00  0.00    +0.192 HD
ENDROOT
BRANCH   6   9
ATOM      9  N   UNL     1      -4.791 -13.566  -5.254  0.00  0.00    -0.188 NA
ATOM     10  C   UNL     1      -5.239 -14.611  -5.880  0.00  0.00    +0.138 C 
BRANCH  10  11
ATOM     11  C   UNL     1      -6.064 -14.449  -7.091  0.00  0.00    -0.005 A 
ATOM     12  C   UNL     1      -6.361 -13.171  -7.571  0.00  0.00    +0.010 A 
ATOM     13  C   UNL     1      -7.133 -13.026  -8.704  0.00  0.00    +0.016 A 
ATOM     14  C   UNL     1      -7.614 -14.144  -9.366  0.00  0.00    +0.018 A 
ATOM     15  C   UNL     1      -7.323 -15.413  -8.895  0.00  0.00    +0.016 A 
ATOM     16  C   UNL     1      -6.547 -15.572  -7.766  0.00  0.00    +0.010 A 
ATOM     17 BR   UNL     1      -8.672 -13.936 -10.919  0.00  0.00    -0.050 Br
ENDBRANCH  10  11
ENDBRANCH   6   9
BRANCH   1  18
ATOM     18  S   UNL     1      -3.137  -8.780  -2.969  0.00  0.00    -0.075 S 
BRANCH  18  19
ATOM     19  C   UNL     1      -2.137  -8.286  -1.538  0.00  0.00    +0.173 C 
BRANCH  19  21
ATOM     20  N   UNL     1      -1.368  -6.185  -0.484  0.00  0.00    -0.285 N 
ATOM     21  C   UNL     1      -2.063  -6.782  -1.472  0.00  0.00    +0.227 C 
ATOM     22  O   UNL     1      -2.628  -6.110  -2.309  0.00  0.00    -0.275 OA
ATOM     23  H   UNL     1      -0.853  -6.720   0.139  0.00  0.00    +0.155 HD
BRANCH  20  27
ATOM     24  C   UNL     1      -1.431  -2.036  -0.107  0.00  0.00    -0.044 A 
ATOM     25  C   UNL     1      -2.550  -2.704  -0.571  0.00  0.00    +0.006 A 
ATOM     26  C   UNL     1      -2.532  -4.079  -0.697  0.00  0.00    +0.023 A 
ATOM     27  C   UNL     1      -1.389  -4.791  -0.358  0.00  0.00    +0.033 A 
ATOM     28  C   UNL     1      -0.267  -4.118   0.107  0.00  0.00    +0.023 A 
ATOM     29  C   UNL     1      -0.290  -2.742   0.227  0.00  0.00    +0.006 A 
BRANCH  24  30
ATOM     30  C   UNL     1      -1.454  -0.535   0.030  0.00  0.00    +0.016 C 
ATOM     31  C   UNL     1      -1.730   0.097  -1.336  0.00  0.00    +0.012 C 
BRANCH  30  33
ATOM     32  C   UNL     1      -2.498   1.381   1.246  0.00  0.00    +0.004 C 
ATOM     33  C   UNL     1      -2.555  -0.129   1.011  0.00  0.00    +0.004 C 
ENDBRANCH  30  33
ENDBRANCH  24  30
ENDBRANCH  20  27
ENDBRANCH  19  21
ENDBRANCH  18  19
ENDBRANCH   1  18
TORSDOF 8
