REMARK  Name = ZINC20508802
REMARK  6 active torsions:
REMARK  status: ('A' for Active; 'I' for Inactive)
REMARK    1  A    between atoms: C_4  and  C_7
REMARK    2  A    between atoms: N_8  and  N_9
REMARK    3  A    between atoms: C_12  and  S_15
REMARK    4  A    between atoms: S_15  and  C_16
REMARK    5  A    between atoms: C_16  and  C_17
REMARK    6  A    between atoms: N_19  and  C_20
REMARK                            x       y       z     vdW  Elec       q    Type
REMARK                         _______ _______ _______ _____ _____    ______ ____
ROOT
ATOM      1  N   UNL     1      -6.151   4.472  -4.198  0.00  0.00    -0.205 N 
ATOM      2  C   UNL     1      -5.042   4.105  -3.449  0.00  0.00    +0.232 A 
ATOM      3  N   UNL     1      -3.929   3.466  -3.921  0.00  0.00    -0.186 NA
ATOM      4  C   UNL     1      -3.071   3.284  -2.874  0.00  0.00    +0.211 A 
ATOM      5  N   UNL     1      -3.631   3.785  -1.799  0.00  0.00    -0.144 NA
ATOM      6  N   UNL     1      -4.878   4.309  -2.164  0.00  0.00    -0.245 N 
ATOM      7  H   UNL     1      -6.185   4.251  -5.275  0.00  0.00    +0.177 HD
ATOM      8  H   UNL     1      -5.661   4.818  -1.584  0.00  0.00    +0.192 HD
ENDROOT
BRANCH   1  10
ATOM      9  C   UNL     1      -8.264   5.469  -4.283  0.00  0.00    +0.138 C 
ATOM     10  N   UNL     1      -7.227   5.125  -3.582  0.00  0.00    -0.188 NA
BRANCH   9  14
ATOM     11  C   UNL     1     -11.524   7.447  -2.420  0.00  0.00    +0.000 A 
ATOM     12  C   UNL     1     -11.570   7.170  -3.774  0.00  0.00    +0.001 A 
ATOM     13  C   UNL     1     -10.515   6.527  -4.387  0.00  0.00    +0.009 A 
ATOM     14  C   UNL     1      -9.397   6.156  -3.636  0.00  0.00    -0.005 A 
ATOM     15  C   UNL     1      -9.359   6.434  -2.267  0.00  0.00    +0.009 A 
ATOM     16  C   UNL     1     -10.419   7.083  -1.669  0.00  0.00    +0.001 A 
ENDBRANCH   9  14
ENDBRANCH   1  10
BRANCH   4  17
ATOM     17  S   UNL     1      -1.491   2.507  -2.953  0.00  0.00    -0.075 S 
BRANCH  17  18
ATOM     18  C   UNL     1      -0.877   2.588  -1.248  0.00  0.00    +0.173 C 
BRANCH  18  19
ATOM     19  C   UNL     1       0.486   1.949  -1.174  0.00  0.00    +0.228 C 
ATOM     20  O   UNL     1       0.992   1.484  -2.173  0.00  0.00    -0.275 OA
ATOM     21  N   UNL     1       1.143   1.898   0.001  0.00  0.00    -0.282 N 
ATOM     22  H   UNL     1       0.722   2.392   0.889  0.00  0.00    +0.155 HD
BRANCH  21  23
ATOM     23  C   UNL     1       2.364   1.218   0.092  0.00  0.00    +0.070 A 
ATOM     24  C   UNL     1       2.385  -0.136   0.402  0.00  0.00    +0.064 A 
ATOM     25  C   UNL     1       3.592  -0.805   0.486  0.00  0.00    +0.022 A 
ATOM     26  C   UNL     1       4.777  -0.126   0.271  0.00  0.00    +0.003 A 
ATOM     27  C   UNL     1       4.760   1.223  -0.033  0.00  0.00    +0.022 A 
ATOM     28  C   UNL     1       3.557   1.897  -0.123  0.00  0.00    +0.064 A 
ATOM     29 CL   UNL     1       3.537   3.591  -0.504  0.00  0.00    -0.082 Cl
ATOM     30 CL   UNL     1       0.898  -0.988   0.678  0.00  0.00    -0.082 Cl
ENDBRANCH  21  23
ENDBRANCH  18  19
ENDBRANCH  17  18
ENDBRANCH   4  17
TORSDOF 6
