REMARK  Name = ZINC54386894
REMARK  10 active torsions:
REMARK  status: ('A' for Active; 'I' for Inactive)
REMARK    1  A    between atoms: C_1  and  C_2
REMARK    2  A    between atoms: C_5  and  C_28
REMARK    3  A    between atoms: N_8  and  C_10
REMARK    4  A    between atoms: C_10  and  C_11
REMARK    5  A    between atoms: C_10  and  C_12
REMARK    6  A    between atoms: C_10  and  C_13
REMARK    7  A    between atoms: C_13  and  N_14
REMARK    8  A    between atoms: N_17  and  C_18
REMARK    9  A    between atoms: C_23  and  S_24
REMARK   10  A    between atoms: S_24  and  C_27
REMARK                            x       y       z     vdW  Elec       q    Type
REMARK                         _______ _______ _______ _____ _____    ______ ____
ROOT
ATOM      1  N   UNL     1       3.469  -2.374   0.896  0.00  0.00    -0.300 N 
ATOM      2  C   UNL     1       4.764  -2.185   0.574  0.00  0.00    +0.304 C 
ATOM      3  O   UNL     1       5.530  -1.706   1.387  0.00  0.00    -0.253 OA
ATOM      4  N   UNL     1       5.210  -2.529  -0.651  0.00  0.00    -0.268 N 
ATOM      5  H   UNL     1       2.858  -2.756   0.247  0.00  0.00    +0.150 HD
ATOM      6  H   UNL     1       4.620  -2.981  -1.273  0.00  0.00    +0.156 HD
ENDROOT
BRANCH   4   7
ATOM      7  C   UNL     1       6.526  -2.232  -1.025  0.00  0.00    +0.060 A 
ATOM      8  C   UNL     1       7.206  -1.189  -0.409  0.00  0.00    +0.025 A 
ATOM      9  C   UNL     1       8.504  -0.898  -0.780  0.00  0.00    +0.002 A 
ATOM     10  C   UNL     1       9.127  -1.645  -1.764  0.00  0.00    +0.002 A 
ATOM     11  C   UNL     1       8.453  -2.683  -2.379  0.00  0.00    +0.029 A 
ATOM     12  C   UNL     1       7.156  -2.982  -2.008  0.00  0.00    +0.109 A 
BRANCH  12  13
ATOM     13  S   UNL     1       6.300  -4.311  -2.787  0.00  0.00    -0.004 S 
ATOM     14  O   UNL     1       5.065  -3.749  -3.208  0.00  0.00    -0.170 OA
ATOM     15  O   UNL     1       7.221  -4.828  -3.737  0.00  0.00    -0.170 OA
ATOM     16  C   UNL     1       6.018  -5.522  -1.467  0.00  0.00    +0.200 C 
ENDBRANCH  12  13
ENDBRANCH   4   7
BRANCH   1  17
ATOM     17  C   UNL     1       2.984  -2.001   2.228  0.00  0.00    +0.093 C 
BRANCH  17  18
ATOM     18  C   UNL     1       1.522  -2.426   2.375  0.00  0.00    -0.055 C 
ATOM     19  C   UNL     1       0.988  -1.954   3.729  0.00  0.00    -0.008 C 
ATOM     20  C   UNL     1       1.423  -3.950   2.291  0.00  0.00    -0.008 C 
BRANCH  18  26
ATOM     21  C   UNL     1       0.007   1.797   0.416  0.00  0.00    +0.005 C 
ATOM     22  C   UNL     1      -0.014   0.274   0.269  0.00  0.00    -0.031 C 
ATOM     23  C   UNL     1      -1.463  -0.221   0.282  0.00  0.00    +0.003 C 
ATOM     24  C   UNL     1      -1.471  -1.750   0.213  0.00  0.00    -0.031 C 
ATOM     25  C   UNL     1      -0.656  -2.312   1.381  0.00  0.00    -0.075 C 
ATOM     26  N   UNL     1       0.726  -1.823   1.298  0.00  0.00    +0.384 N 
ATOM     27  C   UNL     1       0.747  -0.362   1.434  0.00  0.00    -0.075 C 
ATOM     28  C   UNL     1      -2.911  -2.259   0.303  0.00  0.00    +0.005 C 
ATOM     29  H   UNL     1       1.119  -2.082   0.406  0.00  0.00    -0.081 HD
ENDBRANCH  18  26
ENDBRANCH  17  18
ENDBRANCH   1  17
TORSDOF 5
