REMARK  Name = ZINC64014953
REMARK  8 active torsions:
REMARK  status: ('A' for Active; 'I' for Inactive)
REMARK    1  A    between atoms: C_1  and  C_2
REMARK    2  A    between atoms: C_2  and  O_3
REMARK    3  A    between atoms: O_3  and  C_4
REMARK    4  A    between atoms: C_9  and  C_10
REMARK    5  A    between atoms: C_25  and  C_27
REMARK    6  A    between atoms: C_27  and  C_28
REMARK    7  A    between atoms: C_28  and  C_29
REMARK    8  A    between atoms: N_32  and  C_34
REMARK                            x       y       z     vdW  Elec       q    Type
REMARK                         _______ _______ _______ _____ _____    ______ ____
ROOT
ATOM      1  C   UNL     1      -3.982  -1.499   0.026  0.00  0.00    +0.136 C 
ATOM      2  C   UNL     1      -4.278  -0.996  -1.391  0.00  0.00    +0.131 C 
ATOM      3  C   UNL     1      -5.654  -0.343  -1.342  0.00  0.00    -0.035 C 
ATOM      4  C   UNL     1      -5.495   0.897  -1.789  0.00  0.00    -0.001 A 
ATOM      5  C   UNL     1      -6.462   1.980  -2.037  0.00  0.00    +0.010 A 
ATOM      6  C   UNL     1      -5.946   3.151  -2.495  0.00  0.00    +0.001 A 
ATOM      7  C   UNL     1      -4.582   3.350  -2.729  0.00  0.00    +0.002 A 
ATOM      8  C   UNL     1      -3.623   2.410  -2.533  0.00  0.00    +0.026 A 
ATOM      9  C   UNL     1      -4.044   1.134  -2.057  0.00  0.00    +0.043 A 
ATOM     10  N   UNL     1      -3.338   0.046  -1.807  0.00  0.00    -0.375 N 
ATOM     11  C   UNL     1      -6.868  -1.050  -0.791  0.00  0.00    +0.052 C 
ATOM     12  C   UNL     1      -6.469  -1.603   0.589  0.00  0.00    +0.113 C 
ATOM     13  N   UNL     1      -5.157  -2.251   0.495  0.00  0.00    -0.292 N 
ATOM     14  C   UNL     1      -5.026  -3.547   0.838  0.00  0.00    +0.216 C 
ATOM     15  O   UNL     1      -3.928  -4.063   0.852  0.00  0.00    -0.276 OA
ATOM     16  H   UNL     1      -2.376  -0.054  -1.877  0.00  0.00    +0.160 HD
ENDROOT
BRANCH   1  22
ATOM     17  C   UNL     1      -2.010  -2.562   1.152  0.00  0.00    +0.125 A 
ATOM     18  C   UNL     1      -0.902  -3.397   1.132  0.00  0.00    +0.046 A 
ATOM     19  C   UNL     1      -0.559  -4.059  -0.031  0.00  0.00    +0.004 A 
ATOM     20  C   UNL     1      -1.320  -3.892  -1.173  0.00  0.00    +0.001 A 
ATOM     21  C   UNL     1      -2.424  -3.061  -1.156  0.00  0.00    +0.009 A 
ATOM     22  C   UNL     1      -2.774  -2.400   0.006  0.00  0.00    +0.017 A 
BRANCH  17  23
ATOM     23  O   UNL     1      -2.349  -1.909   2.295  0.00  0.00    -0.492 OA
BRANCH  23  25
ATOM     24  C   UNL     1      -2.052  -1.312   4.618  0.00  0.00    +0.048 C 
ATOM     25  C   UNL     1      -1.517  -2.124   3.436  0.00  0.00    +0.225 C 
ENDBRANCH  23  25
ENDBRANCH  17  23
ENDBRANCH   1  22
BRANCH  14  26
ATOM     26  C   UNL     1      -6.243  -4.356   1.206  0.00  0.00    +0.101 C 
BRANCH  26  27
ATOM     27  C   UNL     1      -5.820  -5.785   1.552  0.00  0.00    +0.047 C 
BRANCH  27  28
ATOM     28  C   UNL     1      -7.037  -6.595   1.919  0.00  0.00    -0.009 A 
ATOM     29  C   UNL     1      -7.578  -6.731   3.201  0.00  0.00    +0.138 A 
ATOM     30  N   UNL     1      -8.628  -7.508   3.122  0.00  0.00    -0.180 NA
ATOM     31  N   UNL     1      -8.789  -7.890   1.784  0.00  0.00    -0.274 N 
ATOM     32  C   UNL     1      -7.803  -7.312   1.065  0.00  0.00    +0.111 A 
ATOM     33  C   UNL     1      -9.844  -8.759   1.256  0.00  0.00    +0.172 C 
ENDBRANCH  27  28
ENDBRANCH  26  27
ENDBRANCH  14  26
TORSDOF 6
