REMARK  Name = ZINC45624683
REMARK  5 active torsions:
REMARK  status: ('A' for Active; 'I' for Inactive)
REMARK    1  A    between atoms: C_1  and  C_2
REMARK    2  A    between atoms: C_2  and  C_3
REMARK    3  A    between atoms: C_9  and  N_11
REMARK    4  A    between atoms: C_12  and  C_14
REMARK    5  A    between atoms: C_16  and  N_21
REMARK                            x       y       z     vdW  Elec       q    Type
REMARK                         _______ _______ _______ _____ _____    ______ ____
ROOT
ATOM      1  N   UNL     1      -0.776  -2.430  -1.376  0.00  0.00    -0.308 N 
ATOM      2  C   UNL     1      -1.139  -3.654  -0.946  0.00  0.00    +0.245 C 
ATOM      3  O   UNL     1      -0.299  -4.422  -0.518  0.00  0.00    -0.270 OA
ATOM      4  H   UNL     1      -1.447  -1.817  -1.717  0.00  0.00    +0.149 HD
ENDROOT
BRANCH   2   5
ATOM      5  C   UNL     1      -2.558  -4.064  -0.994  0.00  0.00    +0.052 A 
ATOM      6  C   UNL     1      -3.524  -3.188  -1.489  0.00  0.00    +0.037 A 
ATOM      7  C   UNL     1      -4.853  -3.579  -1.531  0.00  0.00    +0.025 A 
ATOM      8  C   UNL     1      -5.220  -4.842  -1.080  0.00  0.00    +0.024 A 
ATOM      9  C   UNL     1      -4.264  -5.711  -0.589  0.00  0.00    +0.018 A 
ATOM     10  C   UNL     1      -2.936  -5.333  -0.548  0.00  0.00    +0.030 A 
ATOM     11 BR   UNL     1      -1.632  -6.529   0.118  0.00  0.00    -0.050 Br
BRANCH   7  12
ATOM     12  N   UNL     1      -5.823  -2.705  -2.027  0.00  0.00    -0.358 N 
ATOM     13  H   UNL     1      -5.567  -1.824  -2.341  0.00  0.00    +0.142 HD
ATOM     14  H   UNL     1      -6.753  -2.979  -2.056  0.00  0.00    +0.142 HD
ENDBRANCH   7  12
ENDBRANCH   2   5
BRANCH   1  20
ATOM     15  C   UNL     1       0.718  -0.497  -1.257  0.00  0.00    +0.009 C 
ATOM     16  C   UNL     1       2.187  -0.073  -1.207  0.00  0.00    +0.005 C 
ATOM     17  C   UNL     1       2.904  -0.566  -2.466  0.00  0.00    +0.000 C 
ATOM     18  C   UNL     1       2.816  -2.092  -2.538  0.00  0.00    +0.002 C 
ATOM     19  C   UNL     1       1.347  -2.517  -2.587  0.00  0.00    +0.022 C 
ATOM     20  C   UNL     1       0.630  -2.023  -1.329  0.00  0.00    +0.076 C 
BRANCH  15  22
ATOM     21  C   UNL     1      -0.019   1.526   0.010  0.00  0.00    +0.004 C 
ATOM     22  C   UNL     1       0.002  -0.004   0.002  0.00  0.00    +0.002 C 
ENDBRANCH  15  22
ENDBRANCH   1  20
TORSDOF 4
