REMARK  Name = ZINC39666237
REMARK  9 active torsions:
REMARK  status: ('A' for Active; 'I' for Inactive)
REMARK    1  A    between atoms: C_1  and  C_2
REMARK    2  A    between atoms: C_5  and  O_8
REMARK    3  A    between atoms: O_8  and  C_9
REMARK    4  A    between atoms: C_9  and  C_11
REMARK    5  A    between atoms: C_9  and  C_12
REMARK    6  A    between atoms: C_12  and  N_13
REMARK    7  A    between atoms: C_14  and  C_16
REMARK    8  A    between atoms: C_27  and  C_29
REMARK    9  A    between atoms: C_32  and  C_34
REMARK                            x       y       z     vdW  Elec       q    Type
REMARK                         _______ _______ _______ _____ _____    ______ ____
ROOT
ATOM      1  C   UNL     1      -4.028  -6.702   0.465  0.00  0.00    +0.100 C 
ATOM      2  C   UNL     1      -4.659  -5.803   1.552  0.00  0.00    +0.121 C 
ATOM      3  N   UNL     1      -6.045  -6.307   1.696  0.00  0.00    -0.294 N 
ATOM      4  C   UNL     1      -5.914  -7.780   1.594  0.00  0.00    +0.115 C 
ATOM      5  C   UNL     1      -4.854  -7.999   0.497  0.00  0.00    -0.004 C 
ATOM      6  C   UNL     1      -3.963  -9.185   0.854  0.00  0.00    -0.010 C 
ATOM      7  C   UNL     1      -4.794 -10.470   0.822  0.00  0.00    -0.082 C 
ATOM      8  N   UNL     1      -5.369 -10.650  -0.517  0.00  0.00    +0.379 N 
ATOM      9  C   UNL     1      -6.297  -9.553  -0.815  0.00  0.00    -0.082 C 
ATOM     10  C   UNL     1      -5.529  -8.228  -0.852  0.00  0.00    -0.010 C 
ATOM     11  C   UNL     1      -7.170  -5.588   1.878  0.00  0.00    +0.282 C 
ATOM     12  O   UNL     1      -8.243  -6.153   1.980  0.00  0.00    -0.267 OA
ATOM     13  H   UNL     1      -4.628 -10.658  -1.202  0.00  0.00    -0.086 HD
ATOM     14  H   UNL     1      -5.866 -11.528  -0.553  0.00  0.00    -0.086 HD
ENDROOT
BRANCH  11  15
ATOM     15  C   UNL     1      -7.102  -4.127   1.953  0.00  0.00    +0.190 A 
ATOM     16  C   UNL     1      -8.169  -3.276   2.141  0.00  0.00    +0.055 A 
ATOM     17  C   UNL     1      -7.652  -1.976   2.149  0.00  0.00    +0.051 A 
ATOM     18  C   UNL     1      -6.302  -2.080   1.968  0.00  0.00    +0.139 A 
ATOM     19  O   UNL     1      -5.981  -3.380   1.856  0.00  0.00    -0.450 OA
BRANCH  18  20
ATOM     20  C   UNL     1      -5.353  -0.951   1.909  0.00  0.00    +0.052 A 
ATOM     21  C   UNL     1      -5.609   0.140   1.075  0.00  0.00    +0.014 A 
ATOM     22  C   UNL     1      -4.718   1.191   1.025  0.00  0.00    +0.001 A 
ATOM     23  C   UNL     1      -3.570   1.168   1.799  0.00  0.00    +0.003 A 
ATOM     24  C   UNL     1      -3.308   0.093   2.628  0.00  0.00    +0.039 A 
ATOM     25  C   UNL     1      -4.195  -0.966   2.693  0.00  0.00    +0.134 A 
ATOM     26  F   UNL     1      -3.941  -2.013   3.507  0.00  0.00    -0.205 F 
ENDBRANCH  18  20
ENDBRANCH  11  15
BRANCH   1  28
ATOM     27  N   UNL     1      -1.707  -7.249  -0.194  0.00  0.00    -0.312 N 
ATOM     28  C   UNL     1      -2.586  -6.990   0.794  0.00  0.00    +0.218 C 
ATOM     29  O   UNL     1      -2.216  -6.990   1.950  0.00  0.00    -0.275 OA
ATOM     30  H   UNL     1      -2.003  -7.250  -1.118  0.00  0.00    +0.149 HD
BRANCH  27  31
ATOM     31  C   UNL     1      -0.305  -7.530   0.126  0.00  0.00    +0.148 C 
BRANCH  31  32
ATOM     32  C   UNL     1       0.471  -7.788  -1.166  0.00  0.00    +0.187 C 
ATOM     33  C   UNL     1       1.935  -8.080  -0.832  0.00  0.00    +0.053 C 
BRANCH  32  34
ATOM     34  O   UNL     1      -0.095  -8.909  -1.847  0.00  0.00    -0.488 OA
BRANCH  34  39
ATOM     35  C   UNL     1       0.718  -9.201  -7.412  0.00  0.00    +0.044 C 
ATOM     36  C   UNL     1       0.501  -9.123  -5.923  0.00  0.00    -0.050 A 
ATOM     37  C   UNL     1      -0.317 -10.045  -5.296  0.00  0.00    +0.007 A 
ATOM     38  C   UNL     1      -0.518  -9.976  -3.931  0.00  0.00    +0.046 A 
ATOM     39  C   UNL     1       0.102  -8.980  -3.190  0.00  0.00    +0.121 A 
ATOM     40  C   UNL     1       0.922  -8.057  -3.821  0.00  0.00    +0.046 A 
ATOM     41  C   UNL     1       1.124  -8.134  -5.186  0.00  0.00    +0.007 A 
ENDBRANCH  34  39
ENDBRANCH  32  34
ENDBRANCH  31  32
ENDBRANCH  27  31
ENDBRANCH   1  28
TORSDOF 7
