REMARK  Name = ZINC20814647
REMARK  8 active torsions:
REMARK  status: ('A' for Active; 'I' for Inactive)
REMARK    1  A    between atoms: C_1  and  C_2
REMARK    2  A    between atoms: C_2  and  N_3
REMARK    3  A    between atoms: N_3  and  C_4
REMARK    4  A    between atoms: N_3  and  C_11
REMARK    5  A    between atoms: C_4  and  C_5
REMARK    6  A    between atoms: C_11  and  C_12
REMARK    7  A    between atoms: N_14  and  C_15
REMARK    8  A    between atoms: C_18  and  N_22
REMARK                            x       y       z     vdW  Elec       q    Type
REMARK                         _______ _______ _______ _____ _____    ______ ____
ROOT
ATOM      1  C   UNL     1       6.280  -0.751  -2.841  0.00  0.00    +0.201 C 
ATOM      2  O   UNL     1       5.492  -0.635  -3.756  0.00  0.00    -0.278 OA
ATOM      3  N   UNL     1       7.589  -0.945  -3.100  0.00  0.00    -0.286 N 
ATOM      4  H   UNL     1       8.290  -1.134  -2.275  0.00  0.00    +0.155 HD
ENDROOT
BRANCH   3   5
ATOM      5  C   UNL     1       8.054  -0.906  -4.420  0.00  0.00    +0.048 A 
ATOM      6  C   UNL     1       7.208  -1.246  -5.466  0.00  0.00    +0.026 A 
ATOM      7  C   UNL     1       7.670  -1.207  -6.767  0.00  0.00    +0.034 A 
ATOM      8  C   UNL     1       8.975  -0.828  -7.028  0.00  0.00    +0.127 A 
ATOM      9  C   UNL     1       9.820  -0.488  -5.989  0.00  0.00    +0.049 A 
ATOM     10  C   UNL     1       9.363  -0.521  -4.685  0.00  0.00    +0.041 A 
ATOM     11 BR   UNL     1      10.517  -0.048  -3.264  0.00  0.00    -0.048 Br
BRANCH   8  12
ATOM     12  N   UNL     1       9.466  -0.786  -8.424  0.00  0.00    +0.056 N 
ATOM     13  O   UNL     1       8.722  -1.085  -9.341  0.00  0.00    -0.126 OA
ATOM     14  O   UNL     1      10.615  -0.453  -8.655  0.00  0.00    -0.126 OA
ENDBRANCH   8  12
ENDBRANCH   3   5
BRANCH   1  15
ATOM     15  C   UNL     1       5.797  -0.678  -1.416  0.00  0.00    +0.019 C 
BRANCH  15  16
ATOM     16  N   UNL     1       4.370  -0.331  -1.400  0.00  0.00    +0.388 N 
ATOM     17  H   UNL     1       3.862  -0.954  -2.150  0.00  0.00    -0.081 HD
BRANCH  16  19
ATOM     18  C   UNL     1       4.782   1.979  -0.699  0.00  0.00    -0.017 C 
ATOM     19  C   UNL     1       4.166   1.076  -1.769  0.00  0.00    -0.081 C 
ENDBRANCH  16  19
BRANCH  16  20
ATOM     20  C   UNL     1       3.771  -0.623  -0.090  0.00  0.00    -0.035 C 
BRANCH  20  21
ATOM     21  C   UNL     1       2.273  -0.489  -0.181  0.00  0.00    -0.026 A 
ATOM     22  C   UNL     1       1.350  -1.431  -0.494  0.00  0.00    +0.010 A 
ATOM     23  C   UNL     1       0.013  -1.078  -0.518  0.00  0.00    +0.023 A 
ATOM     24  C   UNL     1      -0.334   0.200  -0.227  0.00  0.00    +0.055 A 
ATOM     25  S   UNL     1       1.254   0.950   0.093  0.00  0.00    -0.088 S 
ATOM     26 BR   UNL     1      -2.053   0.986  -0.181  0.00  0.00    -0.043 Br
ENDBRANCH  20  21
ENDBRANCH  16  20
ENDBRANCH  15  16
ENDBRANCH   1  15
TORSDOF 7
