REMARK  Name = ZINC27217239
REMARK  6 active torsions:
REMARK  status: ('A' for Active; 'I' for Inactive)
REMARK    1  A    between atoms: C_4  and  C_7
REMARK    2  A    between atoms: C_7  and  C_12
REMARK    3  A    between atoms: C_12  and  N_13
REMARK    4  A    between atoms: C_14  and  C_16
REMARK    5  A    between atoms: C_16  and  N_17
REMARK    6  A    between atoms: C_26  and  C_28
REMARK                            x       y       z     vdW  Elec       q    Type
REMARK                         _______ _______ _______ _____ _____    ______ ____
ROOT
ATOM      1  C   UNL     1      -1.995   7.380  -0.198  0.00  0.00    +0.020 C 
ENDROOT
BRANCH   1   2
ATOM      2  N   UNL     1      -1.881   5.997   0.284  0.00  0.00    +0.396 N 
ATOM      3  C   UNL     1      -0.545   5.456   0.017  0.00  0.00    -0.041 C 
ATOM      4  C   UNL     1      -0.472   4.008   0.425  0.00  0.00    -0.061 A 
ATOM      5  C   UNL     1       0.779   3.432   0.593  0.00  0.00    +0.002 A 
ATOM      6  C   UNL     1       0.894   2.107   0.963  0.00  0.00    +0.000 A 
ATOM      7  C   UNL     1      -0.244   1.348   1.166  0.00  0.00    +0.000 A 
ATOM      8  C   UNL     1      -1.489   1.918   0.993  0.00  0.00    +0.004 A 
ATOM      9  C   UNL     1      -1.605   3.251   0.629  0.00  0.00    -0.047 A 
ATOM     10  C   UNL     1      -2.986   3.834   0.465  0.00  0.00    +0.029 C 
ATOM     11  C   UNL     1      -2.910   5.140  -0.327  0.00  0.00    +0.024 C 
ATOM     12  H   UNL     1      -2.037   6.010   1.373  0.00  0.00    -0.080 HD
BRANCH  11  13
ATOM     13  C   UNL     1      -4.244   5.840  -0.284  0.00  0.00    +0.197 C 
ATOM     14  O   UNL     1      -4.520   6.562   0.650  0.00  0.00    -0.278 OA
ATOM     15  N   UNL     1      -5.129   5.664  -1.285  0.00  0.00    -0.331 N 
ATOM     16  H   UNL     1      -6.103   6.176  -1.254  0.00  0.00    +0.145 HD
ATOM     17  H   UNL     1      -4.879   5.009  -2.132  0.00  0.00    +0.145 HD
ENDBRANCH  11  13
ENDBRANCH   1   2
BRANCH   1  19
ATOM     18  N   UNL     1      -1.923   8.572  -2.365  0.00  0.00    -0.316 N 
ATOM     19  C   UNL     1      -1.852   7.403  -1.698  0.00  0.00    +0.197 C 
ATOM     20  O   UNL     1      -1.673   6.368  -2.306  0.00  0.00    -0.278 OA
ATOM     21  H   UNL     1      -2.085   9.510  -1.814  0.00  0.00    +0.149 HD
BRANCH  18  22
ATOM     22  C   UNL     1      -1.783   8.594  -3.823  0.00  0.00    +0.115 C 
BRANCH  22  23
ATOM     23  C   UNL     1      -1.774  10.043  -4.313  0.00  0.00    +0.011 C 
ATOM     24  C   UNL     1      -3.065  10.756  -3.874  0.00  0.00    +0.013 C 
ATOM     25  C   UNL     1      -3.784  11.200  -5.166  0.00  0.00    +0.001 C 
ATOM     26  C   UNL     1      -3.240  10.239  -6.252  0.00  0.00    +0.001 C 
ATOM     27  C   UNL     1      -1.752  10.080  -5.855  0.00  0.00    +0.013 C 
BRANCH  23  31
ATOM     28  C   UNL     1       1.632  12.094  -2.751  0.00  0.00    +0.000 A 
ATOM     29  C   UNL     1       0.676  12.788  -3.468  0.00  0.00    +0.000 A 
ATOM     30  C   UNL     1      -0.426  12.125  -3.974  0.00  0.00    +0.004 A 
ATOM     31  C   UNL     1      -0.573  10.767  -3.762  0.00  0.00    -0.040 A 
ATOM     32  C   UNL     1       0.380  10.073  -3.039  0.00  0.00    +0.004 A 
ATOM     33  C   UNL     1       1.485  10.736  -2.538  0.00  0.00    +0.000 A 
ENDBRANCH  23  31
ENDBRANCH  22  23
ENDBRANCH  18  22
ENDBRANCH   1  19
TORSDOF 6
