REMARK  Name = ZINC63655326
REMARK  13 active torsions:
REMARK  status: ('A' for Active; 'I' for Inactive)
REMARK    1  A    between atoms: C_1  and  C_2
REMARK    2  A    between atoms: C_5  and  N_9
REMARK    3  A    between atoms: C_6  and  C_8
REMARK    4  A    between atoms: N_9  and  C_10
REMARK    5  A    between atoms: C_10  and  N_12
REMARK    6  A    between atoms: N_12  and  C_13
REMARK    7  A    between atoms: N_12  and  C_28
REMARK    8  A    between atoms: C_13  and  C_14
REMARK    9  A    between atoms: C_14  and  C_15
REMARK   10  A    between atoms: C_18  and  O_26
REMARK   11  A    between atoms: C_23  and  C_25
REMARK   12  A    between atoms: O_26  and  C_27
REMARK   13  A    between atoms: C_28  and  C_29
REMARK                            x       y       z     vdW  Elec       q    Type
REMARK                         _______ _______ _______ _____ _____    ______ ____
ROOT
ATOM      1  N   UNL     1      -0.124  -6.183  -1.187  0.00  0.00    -0.308 N 
ENDROOT
BRANCH   1   2
ATOM      2  C   UNL     1      -0.041  -4.838  -1.187  0.00  0.00    +0.137 C 
ATOM      3  S   UNL     1      -0.059  -3.979  -2.668  0.00  0.00    -0.018 S 
BRANCH   2   4
ATOM      4  N   UNL     1       0.058  -4.169  -0.021  0.00  0.00    -0.297 N 
ATOM      5  H   UNL     1       0.149  -4.658   0.812  0.00  0.00    +0.154 HD
BRANCH   4  10
ATOM      6  C   UNL     1      -0.059   1.502   0.015  0.00  0.00    +0.044 C 
ATOM      7  C   UNL     1      -0.028  -0.005   0.006  0.00  0.00    -0.050 A 
ATOM      8  C   UNL     1      -0.933  -0.709  -0.768  0.00  0.00    +0.005 A 
ATOM      9  C   UNL     1      -0.907  -2.089  -0.779  0.00  0.00    +0.024 A 
ATOM     10  C   UNL     1       0.029  -2.771  -0.012  0.00  0.00    +0.036 A 
ATOM     11  C   UNL     1       0.936  -2.061   0.763  0.00  0.00    -0.029 A 
ATOM     12  C   UNL     1       0.909  -0.680   0.766  0.00  0.00    +0.008 A 
ATOM     13  C   UNL     1       1.954  -2.796   1.597  0.00  0.00    +0.045 C 
ENDBRANCH   4  10
ENDBRANCH   2   4
ENDBRANCH   1   2
BRANCH   1  14
ATOM     14  C   UNL     1      -0.231  -6.910  -2.454  0.00  0.00    +0.111 C 
BRANCH  14  15
ATOM     15  C   UNL     1       1.169  -7.253  -2.966  0.00  0.00    +0.052 C 
BRANCH  15  16
ATOM     16  C   UNL     1       1.059  -8.001  -4.270  0.00  0.00    -0.037 C 
ATOM     17  C   UNL     1      -0.077  -8.332  -4.923  0.00  0.00    +0.003 A 
ATOM     18  C   UNL     1      -1.497  -8.106  -4.629  0.00  0.00    +0.055 A 
ATOM     19  C   UNL     1      -2.438  -8.565  -5.489  0.00  0.00    +0.121 A 
ATOM     20  C   UNL     1      -2.104  -9.258  -6.666  0.00  0.00    +0.047 A 
ATOM     21  C   UNL     1      -0.828  -9.514  -7.022  0.00  0.00    +0.029 A 
ATOM     22  C   UNL     1       0.272  -9.062  -6.164  0.00  0.00    +0.043 A 
ATOM     23  N   UNL     1       1.572  -9.177  -6.272  0.00  0.00    -0.378 N 
ATOM     24  C   UNL     1       2.197  -8.527  -5.115  0.00  0.00    +0.103 C 
ATOM     25  C   UNL     1       3.017  -9.546  -4.321  0.00  0.00    +0.035 C 
ATOM     26  H   UNL     1       2.043  -9.616  -6.998  0.00  0.00    +0.160 HD
BRANCH  19  27
ATOM     27  O   UNL     1      -3.749  -8.349  -5.204  0.00  0.00    -0.495 OA
ATOM     28  C   UNL     1      -4.707  -8.850  -6.138  0.00  0.00    +0.277 C 
ENDBRANCH  19  27
ENDBRANCH  15  16
ENDBRANCH  14  15
ENDBRANCH   1  14
BRANCH   1  29
ATOM     29  C   UNL     1      -0.108  -6.919   0.080  0.00  0.00    +0.143 C 
BRANCH  29  30
ATOM     30  C   UNL     1      -1.519  -7.082   0.584  0.00  0.00    -0.012 A 
ATOM     31  C   UNL     1      -2.085  -6.124   1.411  0.00  0.00    +0.008 A 
ATOM     32  C   UNL     1      -3.385  -6.317   1.850  0.00  0.00    +0.020 A 
ATOM     33  C   UNL     1      -4.070  -7.449   1.452  0.00  0.00    +0.111 A 
ATOM     34  N   UNL     1      -3.500  -8.340   0.664  0.00  0.00    -0.263 NA
ATOM     35  C   UNL     1      -2.267  -8.187   0.222  0.00  0.00    +0.115 A 
ENDBRANCH  29  30
ENDBRANCH   1  29
TORSDOF 9
