REMARK  Name = ZINC36298127
REMARK  7 active torsions:
REMARK  status: ('A' for Active; 'I' for Inactive)
REMARK    1  A    between atoms: C_1  and  N_2
REMARK    2  A    between atoms: N_2  and  C_3
REMARK    3  A    between atoms: C_3  and  C_4
REMARK    4  A    between atoms: C_4  and  C_5
REMARK    5  A    between atoms: C_5  and  N_6
REMARK    6  A    between atoms: N_6  and  S_7
REMARK    7  A    between atoms: S_7  and  C_10
REMARK                            x       y       z     vdW  Elec       q    Type
REMARK                         _______ _______ _______ _____ _____    ______ ____
ROOT
ATOM      1  S   UNL     1       2.528  -4.812   3.415  0.00  0.00    +0.060 S 
ATOM      2  O   UNL     1       2.293  -6.196   3.196  0.00  0.00    -0.153 OA
ATOM      3  O   UNL     1       3.809  -4.221   3.246  0.00  0.00    -0.153 OA
ENDROOT
BRANCH   1   4
ATOM      4  C   UNL     1       2.031  -4.472   5.071  0.00  0.00    +0.127 A 
ATOM      5  C   UNL     1       1.554  -5.485   5.883  0.00  0.00    +0.052 A 
ATOM      6  C   UNL     1       1.179  -5.189   7.152  0.00  0.00    +0.058 A 
ATOM      7  S   UNL     1       1.500  -3.434   7.232  0.00  0.00    -0.073 S 
ATOM      8  C   UNL     1       2.115  -3.214   5.571  0.00  0.00    +0.082 A 
ATOM      9 BR   UNL     1       2.726  -1.636   4.726  0.00  0.00    -0.041 Br
ATOM     10 BR   UNL     1       0.496  -6.337   8.490  0.00  0.00    -0.042 Br
ENDBRANCH   1   4
BRANCH   1  11
ATOM     11  N   UNL     1       1.493  -3.992   2.415  0.00  0.00    -0.190 NA
ATOM     12  H   UNL     1       0.900  -4.482   1.824  0.00  0.00    +0.148 HD
BRANCH  11  13
ATOM     13  C   UNL     1       1.473  -2.527   2.423  0.00  0.00    +0.104 C 
BRANCH  13  14
ATOM     14  C   UNL     1       0.733  -2.021   1.184  0.00  0.00    -0.002 C 
BRANCH  14  15
ATOM     15  C   UNL     1       0.713  -0.491   1.192  0.00  0.00    -0.082 C 
BRANCH  15  17
ATOM     16  C   UNL     1      -0.018   1.465   0.010  0.00  0.00    -0.101 C 
ATOM     17  N   UNL     1       0.002  -0.004   0.002  0.00  0.00    +0.377 N 
ATOM     18  H   UNL     1      -0.945  -0.353   0.009  0.00  0.00    -0.086 HD
ATOM     19  H   UNL     1       0.474  -0.330  -0.828  0.00  0.00    -0.086 HD
ENDBRANCH  15  17
ENDBRANCH  14  15
ENDBRANCH  13  14
ENDBRANCH  11  13
ENDBRANCH   1  11
TORSDOF 6
