REMARK  Name = ZINC39609042
REMARK  7 active torsions:
REMARK  status: ('A' for Active; 'I' for Inactive)
REMARK    1  A    between atoms: C_1  and  C_2
REMARK    2  A    between atoms: C_6  and  C_9
REMARK    3  A    between atoms: C_13  and  C_22
REMARK    4  A    between atoms: N_24  and  C_25
REMARK    5  A    between atoms: C_30  and  O_32
REMARK    6  A    between atoms: O_32  and  C_33
REMARK    7  A    between atoms: C_33  and  C_34
REMARK                            x       y       z     vdW  Elec       q    Type
REMARK                         _______ _______ _______ _____ _____    ______ ____
ROOT
ATOM      1  C   UNL     1       0.036  -2.820   2.433  0.00  0.00    +0.251 C 
ATOM      2  O   UNL     1       1.101  -3.107   2.944  0.00  0.00    -0.270 OA
ATOM      3  N   UNL     1      -1.117  -3.189   3.027  0.00  0.00    -0.296 N 
ATOM      4  C   UNL     1      -2.500  -2.940   2.558  0.00  0.00    +0.121 C 
ATOM      5  C   UNL     1      -3.264  -4.243   2.884  0.00  0.00    +0.100 C 
ATOM      6  C   UNL     1      -2.464  -4.891   4.026  0.00  0.00    -0.004 C 
ATOM      7  C   UNL     1      -1.287  -3.942   4.293  0.00  0.00    +0.115 C 
ATOM      8  C   UNL     1      -1.943  -6.259   3.597  0.00  0.00    -0.010 C 
ATOM      9  C   UNL     1      -1.200  -6.908   4.768  0.00  0.00    -0.082 C 
ATOM     10  N   UNL     1      -2.110  -7.045   5.911  0.00  0.00    +0.379 N 
ATOM     11  C   UNL     1      -2.533  -5.719   6.377  0.00  0.00    -0.082 C 
ATOM     12  C   UNL     1      -3.333  -5.020   5.273  0.00  0.00    -0.010 C 
ATOM     13  H   UNL     1      -2.921  -7.577   5.632  0.00  0.00    -0.086 HD
ATOM     14  H   UNL     1      -1.637  -7.528   6.660  0.00  0.00    -0.086 HD
ENDROOT
BRANCH   1  20
ATOM     15  C   UNL     1      -0.091   1.533  -0.011  0.00  0.00    +0.047 C 
ATOM     16  C   UNL     1      -0.057   0.026  -0.019  0.00  0.00    -0.014 A 
ATOM     17  C   UNL     1      -0.055  -0.657  -1.222  0.00  0.00    +0.007 A 
ATOM     18  C   UNL     1      -0.024  -2.040  -1.240  0.00  0.00    +0.021 A 
ATOM     19  C   UNL     1       0.005  -2.750  -0.057  0.00  0.00    +0.056 A 
ATOM     20  C   UNL     1       0.005  -2.068   1.163  0.00  0.00    +0.091 A 
ATOM     21  C   UNL     1      -0.021  -0.670   1.175  0.00  0.00    +0.140 A 
ATOM     22  F   UNL     1      -0.018  -0.001   2.349  0.00  0.00    -0.204 F 
ATOM     23 CL   UNL     1       0.043  -4.485  -0.084  0.00  0.00    -0.083 Cl
ENDBRANCH   1  20
BRANCH   5  24
ATOM     24  C   UNL     1      -3.292  -5.150   1.680  0.00  0.00    +0.218 C 
ATOM     25  O   UNL     1      -2.423  -5.067   0.838  0.00  0.00    -0.275 OA
ATOM     26  N   UNL     1      -4.284  -6.051   1.539  0.00  0.00    -0.310 N 
ATOM     27  H   UNL     1      -4.979  -6.117   2.213  0.00  0.00    +0.149 HD
BRANCH  26  28
ATOM     28  C   UNL     1      -4.312  -6.933   0.369  0.00  0.00    +0.102 C 
ATOM     29  C   UNL     1      -5.047  -6.242  -0.793  0.00  0.00    +0.025 C 
ATOM     30  C   UNL     1      -6.262  -7.130  -1.135  0.00  0.00    +0.004 C 
ATOM     31  C   UNL     1      -5.863  -8.535  -0.620  0.00  0.00    +0.033 C 
ATOM     32  C   UNL     1      -5.105  -8.216   0.693  0.00  0.00    +0.139 C 
BRANCH  32  33
ATOM     33  O   UNL     1      -4.215  -9.282   1.030  0.00  0.00    -0.370 OA
BRANCH  33  34
ATOM     34  C   UNL     1      -4.763 -10.229   1.948  0.00  0.00    +0.195 C 
BRANCH  34  35
ATOM     35  C   UNL     1      -3.745 -11.303   2.231  0.00  0.00    -0.022 A 
ATOM     36  C   UNL     1      -3.698 -12.436   1.441  0.00  0.00    +0.006 A 
ATOM     37  C   UNL     1      -2.764 -13.422   1.700  0.00  0.00    +0.000 A 
ATOM     38  C   UNL     1      -1.875 -13.273   2.749  0.00  0.00    +0.000 A 
ATOM     39  C   UNL     1      -1.922 -12.140   3.538  0.00  0.00    +0.000 A 
ATOM     40  C   UNL     1      -2.853 -11.152   3.277  0.00  0.00    +0.006 A 
ENDBRANCH  34  35
ENDBRANCH  33  34
ENDBRANCH  32  33
ENDBRANCH  26  28
ENDBRANCH   5  24
TORSDOF 6
