REMARK  Name = ZINC65685264
REMARK  6 active torsions:
REMARK  status: ('A' for Active; 'I' for Inactive)
REMARK    1  A    between atoms: C_1  and  C_2
REMARK    2  A    between atoms: C_2  and  C_3
REMARK    3  A    between atoms: C_6  and  N_26
REMARK    4  A    between atoms: C_8  and  S_9
REMARK    5  A    between atoms: S_9  and  N_12
REMARK    6  A    between atoms: C_21  and  C_23
REMARK                            x       y       z     vdW  Elec       q    Type
REMARK                         _______ _______ _______ _____ _____    ______ ____
ROOT
ATOM      1  N   UNL     1      -1.282   1.461  -2.437  0.00  0.00    -0.160 NA
ATOM      2  C   UNL     1      -2.265   2.462  -2.865  0.00  0.00    +0.145 C 
ATOM      3  C   UNL     1      -2.417   3.514  -1.795  0.00  0.00    -0.028 A 
ATOM      4  C   UNL     1      -3.474   4.407  -1.910  0.00  0.00    +0.005 A 
ATOM      5  C   UNL     1      -3.659   5.397  -0.968  0.00  0.00    +0.000 A 
ATOM      6  C   UNL     1      -2.785   5.502   0.098  0.00  0.00    +0.000 A 
ATOM      7  C   UNL     1      -1.737   4.613   0.215  0.00  0.00    +0.004 A 
ATOM      8  C   UNL     1      -1.551   3.611  -0.729  0.00  0.00    -0.041 A 
ATOM      9  C   UNL     1      -0.402   2.660  -0.521  0.00  0.00    +0.065 C 
ATOM     10  C   UNL     1      -0.039   1.954  -1.820  0.00  0.00    +0.170 C 
ENDROOT
BRANCH  10  11
ATOM     11  C   UNL     1       0.879   0.796  -1.528  0.00  0.00    +0.230 C 
ATOM     12  O   UNL     1       0.497  -0.120  -0.831  0.00  0.00    -0.274 OA
ATOM     13  N   UNL     1       2.126   0.778  -2.041  0.00  0.00    -0.328 N 
ATOM     14  H   UNL     1       2.431   1.510  -2.599  0.00  0.00    +0.145 HD
ATOM     15  H   UNL     1       2.717   0.032  -1.853  0.00  0.00    +0.145 HD
ENDBRANCH  10  11
BRANCH   1  16
ATOM     16  S   UNL     1      -1.561  -0.159  -2.635  0.00  0.00    +0.062 S 
ATOM     17  O   UNL     1      -0.300  -0.760  -2.895  0.00  0.00    -0.153 OA
ATOM     18  O   UNL     1      -2.659  -0.276  -3.528  0.00  0.00    -0.153 OA
BRANCH  16  24
ATOM     19  C   UNL     1      -2.139  -2.151  -0.860  0.00  0.00    -0.021 A 
ATOM     20  C   UNL     1      -2.562  -2.643   0.361  0.00  0.00    +0.008 A 
ATOM     21  C   UNL     1      -2.957  -1.772   1.358  0.00  0.00    +0.033 A 
ATOM     22  C   UNL     1      -2.929  -0.407   1.135  0.00  0.00    +0.128 A 
ATOM     23  C   UNL     1      -2.505   0.085  -0.085  0.00  0.00    +0.061 A 
ATOM     24  C   UNL     1      -2.106  -0.787  -1.081  0.00  0.00    +0.111 A 
BRANCH  22  25
ATOM     25  N   UNL     1      -3.353   0.526   2.203  0.00  0.00    +0.056 N 
ATOM     26  O   UNL     1      -3.723   0.095   3.270  0.00  0.00    -0.126 OA
ATOM     27  O   UNL     1      -3.328   1.719   2.008  0.00  0.00    -0.126 OA
ENDBRANCH  22  25
BRANCH  19  29
ATOM     28  C   UNL     1      -0.213  -3.390  -1.810  0.00  0.00    +0.009 C 
ATOM     29  C   UNL     1      -1.709  -3.101  -1.948  0.00  0.00    +0.034 C 
ENDBRANCH  19  29
ENDBRANCH  16  24
ENDBRANCH   1  16
TORSDOF 5
