REMARK  Name = ZINC58443760
REMARK  5 active torsions:
REMARK  status: ('A' for Active; 'I' for Inactive)
REMARK    1  A    between atoms: N_10  and  S_13
REMARK    2  A    between atoms: S_13  and  C_16
REMARK    3  A    between atoms: C_16  and  C_17
REMARK    4  A    between atoms: C_17  and  N_18
REMARK    5  A    between atoms: C_19  and  C_21
REMARK                            x       y       z     vdW  Elec       q    Type
REMARK                         _______ _______ _______ _____ _____    ______ ____
ROOT
ATOM      1  S   UNL     1       1.470  -6.171   1.143  0.00  0.00    +0.033 S 
ATOM      2  O   UNL     1       0.194  -6.562   0.654  0.00  0.00    -0.158 OA
ATOM      3  O   UNL     1       2.652  -6.501   0.427  0.00  0.00    -0.158 OA
ENDROOT
BRANCH   1  13
ATOM      4  C   UNL     1       2.370   1.437   0.014  0.00  0.00    +0.005 A 
ATOM      5  C   UNL     1       1.127   2.057   0.003  0.00  0.00    +0.018 A 
ATOM      6  C   UNL     1      -0.015   1.282  -0.017  0.00  0.00    +0.084 A 
ATOM      7  N   UNL     1       0.061  -0.036  -0.024  0.00  0.00    -0.350 N 
ATOM      8  C   UNL     1       1.227  -0.664  -0.014  0.00  0.00    +0.099 A 
ATOM      9  C   UNL     1       2.418   0.054   0.005  0.00  0.00    +0.042 A 
ATOM     10  N   UNL     1       1.260  -2.054  -0.022  0.00  0.00    -0.314 N 
ATOM     11  C   UNL     1       2.538  -2.770  -0.142  0.00  0.00    +0.123 C 
ATOM     12  C   UNL     1       2.671  -3.737   1.041  0.00  0.00    +0.128 C 
ATOM     13  N   UNL     1       1.430  -4.516   1.153  0.00  0.00    -0.178 NA
ATOM     14  C   UNL     1       0.152  -3.799   1.273  0.00  0.00    +0.128 C 
ATOM     15  C   UNL     1       0.020  -2.833   0.096  0.00  0.00    +0.123 C 
ATOM     16  H   UNL     1      -0.757  -0.557  -0.038  0.00  0.00    +0.166 HD
ENDBRANCH   1  13
BRANCH   1  17
ATOM     17  C   UNL     1       1.642  -6.644   2.886  0.00  0.00    +0.204 C 
BRANCH  17  18
ATOM     18  C   UNL     1       1.690  -8.169   2.999  0.00  0.00    +0.128 C 
BRANCH  18  19
ATOM     19  N   UNL     1       1.830  -8.550   4.406  0.00  0.00    -0.313 N 
ATOM     20  C   UNL     1       1.893  -9.852   4.748  0.00  0.00    +0.217 C 
ATOM     21  O   UNL     1       1.835 -10.708   3.891  0.00  0.00    -0.275 OA
ATOM     22  H   UNL     1       1.876  -7.866   5.092  0.00  0.00    +0.149 HD
BRANCH  20  23
ATOM     23  C   UNL     1       2.037 -10.245   6.196  0.00  0.00    +0.082 C 
ATOM     24  C   UNL     1       3.404  -9.779   6.754  0.00  0.00    +0.021 C 
ATOM     25  C   UNL     1       4.109 -11.111   7.165  0.00  0.00    +0.013 C 
ATOM     26  C   UNL     1       2.877 -11.932   7.696  0.00  0.00    +0.016 C 
ATOM     27  C   UNL     1       2.089 -11.799   6.341  0.00  0.00    +0.024 C 
ATOM     28  C   UNL     1       3.185 -12.229   5.359  0.00  0.00    -0.027 C 
ATOM     29  C   UNL     1       4.348 -11.833   5.833  0.00  0.00    -0.027 C 
ENDBRANCH  20  23
ENDBRANCH  18  19
ENDBRANCH  17  18
ENDBRANCH   1  17
TORSDOF 5
