REMARK  Name = ZINC02316374
REMARK  6 active torsions:
REMARK  status: ('A' for Active; 'I' for Inactive)
REMARK    1  A    between atoms: C_1  and  C_2
REMARK    2  A    between atoms: C_9  and  N_14
REMARK    3  A    between atoms: C_10  and  C_11
REMARK    4  A    between atoms: N_14  and  C_15
REMARK    5  A    between atoms: C_15  and  N_17
REMARK    6  A    between atoms: C_18  and  C_20
REMARK                            x       y       z     vdW  Elec       q    Type
REMARK                         _______ _______ _______ _____ _____    ______ ____
ROOT
ATOM      1  C   UNL     1      -8.834  12.507   0.048  0.00  0.00    +0.008 C 
ATOM      2  C   UNL     1      -7.457  11.911  -0.250  0.00  0.00    -0.009 C 
ATOM      3  C   UNL     1      -6.391  12.631   0.582  0.00  0.00    +0.008 C 
ATOM      4  C   UNL     1      -4.996  12.216   0.113  0.00  0.00    +0.037 C 
ATOM      5  C   UNL     1      -4.914  10.695   0.103  0.00  0.00    -0.023 A 
ATOM      6  C   UNL     1      -6.032   9.938   0.108  0.00  0.00    -0.004 A 
ATOM      7  S   UNL     1      -5.448   8.267   0.088  0.00  0.00    -0.077 S 
ATOM      8  C   UNL     1      -3.741   8.567   0.082  0.00  0.00    +0.084 A 
ATOM      9  C   UNL     1      -3.664   9.953   0.088  0.00  0.00    +0.068 A 
ATOM     10  C   UNL     1      -7.450  10.420   0.121  0.00  0.00    +0.046 C 
ENDROOT
BRANCH   9  11
ATOM     11  C   UNL     1      -2.371  10.642   0.081  0.00  0.00    +0.244 C 
ATOM     12  O   UNL     1      -1.843  10.934  -0.977  0.00  0.00    -0.270 OA
ATOM     13  N   UNL     1      -1.766  10.953   1.244  0.00  0.00    -0.325 N 
ATOM     14  H   UNL     1      -2.187  10.721   2.087  0.00  0.00    +0.145 HD
ATOM     15  H   UNL     1      -0.910  11.410   1.239  0.00  0.00    +0.145 HD
ENDBRANCH   9  11
BRANCH   8  16
ATOM     16  N   UNL     1      -2.705   7.647   0.067  0.00  0.00    -0.291 N 
ATOM     17  H   UNL     1      -1.785   7.953   0.060  0.00  0.00    +0.154 HD
BRANCH  16  18
ATOM     18  C   UNL     1      -2.977   6.327   0.063  0.00  0.00    +0.141 C 
ATOM     19  S   UNL     1      -4.601   5.786   0.074  0.00  0.00    -0.018 S 
BRANCH  18  20
ATOM     20  N   UNL     1      -1.969   5.432   0.049  0.00  0.00    -0.263 N 
ATOM     21  C   UNL     1      -2.240   4.112   0.044  0.00  0.00    +0.256 C 
ATOM     22  O   UNL     1      -3.394   3.728   0.052  0.00  0.00    -0.269 OA
ATOM     23  H   UNL     1      -1.048   5.738   0.042  0.00  0.00    +0.157 HD
BRANCH  21  24
ATOM     24  C   UNL     1      -1.145   3.139   0.029  0.00  0.00    +0.074 A 
ATOM     25  C   UNL     1      -1.206   1.754   0.017  0.00  0.00    +0.021 A 
ATOM     26  C   UNL     1      -0.013   1.076   0.008  0.00  0.00    +0.008 A 
ATOM     27  C   UNL     1       1.150   1.779   0.001  0.00  0.00    +0.046 A 
ATOM     28  S   UNL     1       0.616   3.428   0.014  0.00  0.00    -0.092 S 
ENDBRANCH  21  24
ENDBRANCH  18  20
ENDBRANCH  16  18
ENDBRANCH   8  16
TORSDOF 5
