REMARK  Name = ZINC10108585
REMARK  12 active torsions:
REMARK  status: ('A' for Active; 'I' for Inactive)
REMARK    1  A    between atoms: C_1  and  C_2
REMARK    2  A    between atoms: C_2  and  C_3
REMARK    3  A    between atoms: C_9  and  C_10
REMARK    4  A    between atoms: C_9  and  N_72
REMARK    5  A    between atoms: C_10  and  C_12
REMARK    6  A    between atoms: C_10  and  C_13
REMARK    7  A    between atoms: C_13  and  N_14
REMARK    8  A    between atoms: C_23  and  C_33
REMARK    9  A    between atoms: N_24  and  C_25
REMARK   10  A    between atoms: C_30  and  O_31
REMARK   11  A    between atoms: O_31  and  C_32
REMARK   12  A    between atoms: N_34  and  C_37
REMARK                            x       y       z     vdW  Elec       q    Type
REMARK                         _______ _______ _______ _____ _____    ______ ____
ROOT
ATOM      1  N   UNL     1      -0.130   0.802   0.449  0.00  0.00    -0.259 N 
ATOM      2  C   UNL     1       1.071   1.416   0.474  0.00  0.00    +0.283 A 
ATOM      3  O   UNL     1       1.143   2.631   0.415  0.00  0.00    -0.265 OA
ATOM      4  C   UNL     1       2.239   0.641   0.568  0.00  0.00    +0.157 A 
ATOM      5  C   UNL     1       2.129  -0.748   0.634  0.00  0.00    +0.170 A 
ATOM      6  N   UNL     1       3.361  -1.243   0.717  0.00  0.00    -0.193 NA
ATOM      7  C   UNL     1       4.245  -0.257   0.708  0.00  0.00    +0.223 A 
ATOM      8  N   UNL     1       3.595   0.927   0.617  0.00  0.00    -0.277 N 
ATOM      9  C   UNL     1       4.538   1.939   0.609  0.00  0.00    +0.116 A 
ATOM     10  C   UNL     1       5.746   1.387   0.694  0.00  0.00    +0.041 A 
ATOM     11  N   UNL     1       5.589   0.015   0.757  0.00  0.00    -0.279 N 
ATOM     12  C   UNL     1       7.057   2.130   0.716  0.00  0.00    +0.065 C 
ATOM     13  N   UNL     1       0.866  -1.320   0.604  0.00  0.00    -0.279 N 
ATOM     14  C   UNL     1      -0.226  -0.537   0.513  0.00  0.00    +0.333 A 
ATOM     15  O   UNL     1      -1.326  -1.054   0.488  0.00  0.00    -0.246 OA
ATOM     16  C   UNL     1       0.719  -2.776   0.672  0.00  0.00    +0.155 C 
ENDROOT
BRANCH  11  17
ATOM     17  C   UNL     1       6.620  -0.931   0.854  0.00  0.00    +0.091 A 
ATOM     18  C   UNL     1       7.187  -1.461  -0.296  0.00  0.00    +0.030 A 
ATOM     19  C   UNL     1       8.204  -2.393  -0.198  0.00  0.00    +0.002 A 
ATOM     20  C   UNL     1       8.657  -2.798   1.044  0.00  0.00    +0.004 A 
ATOM     21  C   UNL     1       8.097  -2.274   2.194  0.00  0.00    +0.048 A 
ATOM     22  C   UNL     1       7.081  -1.336   2.104  0.00  0.00    +0.144 A 
BRANCH  22  23
ATOM     23  O   UNL     1       6.532  -0.815   3.234  0.00  0.00    -0.493 OA
ATOM     24  C   UNL     1       7.055  -1.277   4.481  0.00  0.00    +0.277 C 
ENDBRANCH  22  23
ENDBRANCH  11  17
BRANCH   1  25
ATOM     25  C   UNL     1      -1.349   1.608   0.344  0.00  0.00    +0.131 C 
BRANCH  25  26
ATOM     26  C   UNL     1      -1.848   1.963   1.746  0.00  0.00    -0.011 C 
ATOM     27  C   UNL     1      -2.268   0.686   2.476  0.00  0.00    +0.007 C 
BRANCH  26  28
ATOM     28  C   UNL     1      -3.047   2.906   1.637  0.00  0.00    -0.074 C 
BRANCH  28  34
ATOM     29  C   UNL     1      -4.596   4.255   2.918  0.00  0.00    -0.069 C 
ATOM     30  C   UNL     1      -5.141   4.508   4.326  0.00  0.00    -0.015 C 
ATOM     31  C   UNL     1      -4.013   5.035   5.217  0.00  0.00    -0.003 C 
ATOM     32  C   UNL     1      -2.865   4.021   5.229  0.00  0.00    -0.019 C 
ATOM     33  C   UNL     1      -2.387   3.783   3.795  0.00  0.00    -0.078 C 
ATOM     34  N   UNL     1      -3.512   3.253   2.996  0.00  0.00    +0.382 N 
ATOM     35  H   UNL     1      -3.874   2.406   3.450  0.00  0.00    -0.081 HD
BRANCH  29  37
ATOM     36  C   UNL     1      -6.816   4.762   1.889  0.00  0.00    +0.002 C 
ATOM     37  C   UNL     1      -5.716   3.708   2.030  0.00  0.00    -0.019 C 
ENDBRANCH  29  37
ENDBRANCH  28  34
ENDBRANCH  26  28
ENDBRANCH  25  26
ENDBRANCH   1  25
TORSDOF 7
