REMARK  Name = ZINC39939676
REMARK  11 active torsions:
REMARK  status: ('A' for Active; 'I' for Inactive)
REMARK    1  A    between atoms: C_1  and  C_2
REMARK    2  A    between atoms: C_4  and  C_32
REMARK    3  A    between atoms: C_5  and  C_31
REMARK    4  A    between atoms: C_6  and  C_8
REMARK    5  A    between atoms: C_8  and  C_10
REMARK    6  A    between atoms: C_10  and  N_11
REMARK    7  A    between atoms: N_14  and  C_17
REMARK    8  A    between atoms: C_17  and  C_18
REMARK    9  A    between atoms: C_23  and  C_30
REMARK   10  A    between atoms: C_24  and  C_29
REMARK   11  A    between atoms: C_32  and  C_34
REMARK                            x       y       z     vdW  Elec       q    Type
REMARK                         _______ _______ _______ _____ _____    ______ ____
ROOT
ATOM      1  N   UNL     1       3.764  -2.514   3.694  0.00  0.00    -0.293 NA
ATOM      2  C   UNL     1       3.647  -3.955   3.425  0.00  0.00    +0.100 C 
ATOM      3  C   UNL     1       4.856  -4.681   4.020  0.00  0.00    +0.100 C 
ATOM      4  N   UNL     1       4.918  -4.421   5.465  0.00  0.00    -0.293 NA
ATOM      5  C   UNL     1       5.035  -2.981   5.733  0.00  0.00    +0.100 C 
ATOM      6  C   UNL     1       3.826  -2.254   5.139  0.00  0.00    +0.100 C 
ENDROOT
BRANCH   1   7
ATOM      7  C   UNL     1       2.659  -1.772   3.072  0.00  0.00    +0.165 C 
BRANCH   7   8
ATOM      8  C   UNL     1       2.772  -1.864   1.572  0.00  0.00    +0.195 C 
ATOM      9  O   UNL     1       3.680  -2.485   1.073  0.00  0.00    -0.289 OA
BRANCH   8  14
ATOM     10  C   UNL     1      -0.019   1.526   0.010  0.00  0.00    +0.038 C 
ATOM     11  C   UNL     1       0.002  -0.004   0.002  0.00  0.00    +0.137 C 
ATOM     12  C   UNL     1       0.731  -0.510  -1.223  0.00  0.00    +0.024 C 
ATOM     13  C   UNL     1       1.785  -1.218  -0.759  0.00  0.00    -0.014 C 
ATOM     14  C   UNL     1       1.770  -1.194   0.711  0.00  0.00    +0.106 C 
ATOM     15  N   UNL     1       0.760  -0.507   1.153  0.00  0.00    -0.272 NA
ATOM     16  C   UNL     1       2.810  -1.921  -1.611  0.00  0.00    +0.046 C 
BRANCH  12  17
ATOM     17  C   UNL     1       0.370  -0.280  -2.621  0.00  0.00    +0.159 C 
ATOM     18  O   UNL     1       1.052  -0.750  -3.508  0.00  0.00    -0.293 OA
ATOM     19  C   UNL     1      -0.847   0.540  -2.960  0.00  0.00    +0.091 C 
ENDBRANCH  12  17
ENDBRANCH   8  14
ENDBRANCH   7   8
ENDBRANCH   1   7
BRANCH   4  20
ATOM     20  C   UNL     1       6.023  -5.163   6.086  0.00  0.00    +0.158 C 
BRANCH  20  21
ATOM     21  C   UNL     1       5.909  -5.071   7.586  0.00  0.00    +0.138 C 
ATOM     22  N   UNL     1       4.907  -4.394   8.093  0.00  0.00    -0.160 NA
ATOM     23  C   UNL     1       4.720  -4.254   9.409  0.00  0.00    +0.271 C 
ATOM     24  O   UNL     1       3.776  -3.617   9.847  0.00  0.00    -0.268 OA
ATOM     25  C   UNL     1       5.706  -4.906  10.329  0.00  0.00    +0.071 C 
ATOM     26  C   UNL     1       5.720  -4.902  11.671  0.00  0.00    -0.045 C 
ATOM     27  C   UNL     1       6.838  -5.646  12.365  0.00  0.00    +0.076 C 
ATOM     28  S   UNL     1       7.793  -6.301  10.936  0.00  0.00    -0.098 S 
ATOM     29  C   UNL     1       6.786  -5.638   9.633  0.00  0.00    +0.111 C 
ATOM     30  N   UNL     1       6.823  -5.683   8.323  0.00  0.00    -0.226 NA
ATOM     31  C   UNL     1       6.287  -6.785  13.225  0.00  0.00    +0.024 C 
ATOM     32  C   UNL     1       4.657  -4.180  12.459  0.00  0.00    +0.041 C 
ENDBRANCH  20  21
ENDBRANCH   4  20
TORSDOF 6
