REMARK  Name = ZINC27239167
REMARK  11 active torsions:
REMARK  status: ('A' for Active; 'I' for Inactive)
REMARK    1  A    between atoms: C_1  and  C_2
REMARK    2  A    between atoms: C_5  and  C_8
REMARK    3  A    between atoms: C_8  and  C_9
REMARK    4  A    between atoms: C_8  and  C_17
REMARK    5  A    between atoms: C_8  and  O_34
REMARK    6  A    between atoms: C_14  and  O_15
REMARK    7  A    between atoms: O_15  and  C_16
REMARK    8  A    between atoms: C_17  and  C_19
REMARK    9  A    between atoms: C_17  and  O_27
REMARK   10  A    between atoms: C_19  and  N_20
REMARK   11  A    between atoms: O_27  and  C_28
REMARK                            x       y       z     vdW  Elec       q    Type
REMARK                         _______ _______ _______ _____ _____    ______ ____
ROOT
ATOM      1  C   UNL     1      -3.207   5.054   4.364  0.00  0.00    +0.154 C 
ENDROOT
BRANCH   1   6
ATOM      2  C   UNL     1      -2.395   6.848   9.797  0.00  0.00    +0.044 C 
ATOM      3  C   UNL     1      -2.607   6.380   8.380  0.00  0.00    -0.050 A 
ATOM      4  C   UNL     1      -3.480   5.341   8.119  0.00  0.00    +0.004 A 
ATOM      5  C   UNL     1      -3.675   4.912   6.819  0.00  0.00    +0.007 A 
ATOM      6  C   UNL     1      -2.995   5.522   5.781  0.00  0.00    -0.008 A 
ATOM      7  C   UNL     1      -2.118   6.557   6.043  0.00  0.00    +0.007 A 
ATOM      8  C   UNL     1      -1.927   6.989   7.342  0.00  0.00    +0.004 A 
ENDBRANCH   1   6
BRANCH   1   9
ATOM      9  C   UNL     1      -4.420   5.736   3.786  0.00  0.00    +0.033 A 
ATOM     10  C   UNL     1      -5.487   4.983   3.334  0.00  0.00    +0.010 A 
ATOM     11  C   UNL     1      -6.600   5.608   2.804  0.00  0.00    +0.001 A 
ATOM     12  C   UNL     1      -6.649   6.988   2.725  0.00  0.00    +0.004 A 
ATOM     13  C   UNL     1      -5.585   7.745   3.175  0.00  0.00    +0.046 A 
ATOM     14  C   UNL     1      -4.469   7.120   3.713  0.00  0.00    +0.126 A 
BRANCH  14  15
ATOM     15  O   UNL     1      -3.424   7.863   4.162  0.00  0.00    -0.495 OA
ATOM     16  C   UNL     1      -3.543   9.283   4.055  0.00  0.00    +0.277 C 
ENDBRANCH  14  15
ENDBRANCH   1   9
BRANCH   1  17
ATOM     17  O   UNL     1      -3.407   3.639   4.355  0.00  0.00    -0.376 OA
ATOM     18  H   UNL     1      -3.579   3.114   3.404  0.00  0.00    +0.211 HD
ENDBRANCH   1  17
BRANCH   1  19
ATOM     19  C   UNL     1      -1.977   5.401   3.523  0.00  0.00    +0.198 C 
BRANCH  19  20
ATOM     20  C   UNL     1      -2.131   4.803   2.123  0.00  0.00    -0.030 C 
BRANCH  20  21
ATOM     21  N   UNL     1      -3.233   5.476   1.422  0.00  0.00    +0.382 N 
ATOM     22  C   UNL     1      -2.889   6.884   1.121  0.00  0.00    -0.079 C 
ATOM     23  C   UNL     1      -2.108   7.032  -0.157  0.00  0.00    -0.019 C 
ATOM     24  C   UNL     1      -3.099   7.322  -1.304  0.00  0.00    -0.002 C 
ATOM     25  C   UNL     1      -3.775   6.114  -1.765  0.00  0.00    -0.002 C 
ATOM     26  C   UNL     1      -4.609   5.452  -0.648  0.00  0.00    -0.019 C 
ATOM     27  C   UNL     1      -3.678   4.686   0.253  0.00  0.00    -0.079 C 
ATOM     28  H   UNL     1      -4.104   5.524   2.092  0.00  0.00    -0.082 HD
ENDBRANCH  20  21
ENDBRANCH  19  20
BRANCH  19  29
ATOM     29  O   UNL     1      -0.808   4.864   4.145  0.00  0.00    -0.487 OA
BRANCH  29  30
ATOM     30  C   UNL     1       0.374   5.474   3.868  0.00  0.00    +0.121 A 
ATOM     31  C   UNL     1       0.426   6.493   2.927  0.00  0.00    +0.045 A 
ATOM     32  C   UNL     1       1.628   7.116   2.652  0.00  0.00    +0.004 A 
ATOM     33  C   UNL     1       2.780   6.718   3.305  0.00  0.00    +0.000 A 
ATOM     34  C   UNL     1       2.732   5.700   4.239  0.00  0.00    +0.004 A 
ATOM     35  C   UNL     1       1.531   5.077   4.522  0.00  0.00    +0.045 A 
ENDBRANCH  29  30
ENDBRANCH  19  29
ENDBRANCH   1  19
TORSDOF 9
