REMARK  Name = ZINC39915990
REMARK  11 active torsions:
REMARK  status: ('A' for Active; 'I' for Inactive)
REMARK    1  A    between atoms: C_8  and  S_20
REMARK    2  A    between atoms: N_9  and  C_10
REMARK    3  A    between atoms: C_10  and  C_11
REMARK    4  A    between atoms: C_11  and  O_12
REMARK    5  A    between atoms: O_12  and  C_13
REMARK    6  A    between atoms: S_20  and  C_21
REMARK    7  A    between atoms: C_23  and  O_36
REMARK    8  A    between atoms: C_25  and  O_35
REMARK    9  A    between atoms: C_27  and  O_34
REMARK   10  A    between atoms: C_29  and  C_32
REMARK   11  A    between atoms: C_32  and  O_33
REMARK                            x       y       z     vdW  Elec       q    Type
REMARK                         _______ _______ _______ _____ _____    ______ ____
ROOT
ATOM      1  C   UNL     1      -0.017   1.373   0.010  0.00  0.00    +0.002 A 
ATOM      2  C   UNL     1       1.169   2.093   0.002  0.00  0.00    +0.002 A 
ATOM      3  C   UNL     1       2.384   1.439  -0.013  0.00  0.00    +0.028 A 
ATOM      4  C   UNL     1       2.421   0.053  -0.021  0.00  0.00    +0.070 A 
ATOM      5  C   UNL     1       1.224  -0.681  -0.013  0.00  0.00    +0.090 A 
ATOM      6  C   UNL     1       0.002  -0.004   0.002  0.00  0.00    +0.030 A 
ATOM      7  N   UNL     1       1.561  -1.998  -0.024  0.00  0.00    -0.222 NA
ATOM      8  C   UNL     1       2.866  -2.117  -0.037  0.00  0.00    +0.172 A 
ATOM      9  N   UNL     1       3.446  -0.880  -0.036  0.00  0.00    -0.315 N 
ENDROOT
BRANCH   9  10
ATOM     10  C   UNL     1       4.882  -0.593  -0.050  0.00  0.00    +0.165 C 
BRANCH  10  11
ATOM     11  C   UNL     1       5.397  -0.500   1.388  0.00  0.00    +0.250 C 
BRANCH  11  12
ATOM     12  O   UNL     1       6.798  -0.220   1.375  0.00  0.00    -0.490 OA
BRANCH  12  13
ATOM     13  C   UNL     1       7.416  -0.105   2.580  0.00  0.00    +0.121 A 
ATOM     14  C   UNL     1       6.689  -0.265   3.751  0.00  0.00    +0.047 A 
ATOM     15  C   UNL     1       7.319  -0.147   4.975  0.00  0.00    +0.023 A 
ATOM     16  C   UNL     1       8.673   0.129   5.034  0.00  0.00    +0.041 A 
ATOM     17  C   UNL     1       9.400   0.289   3.867  0.00  0.00    +0.023 A 
ATOM     18  C   UNL     1       8.775   0.166   2.641  0.00  0.00    +0.047 A 
ATOM     19 CL   UNL     1       9.462   0.276   6.573  0.00  0.00    -0.084 Cl
ENDBRANCH  12  13
ENDBRANCH  11  12
ENDBRANCH  10  11
ENDBRANCH   9  10
BRANCH   8  20
ATOM     20  S   UNL     1       3.743  -3.646  -0.054  0.00  0.00    -0.054 S 
BRANCH  20  21
ATOM     21  C   UNL     1       2.434  -4.902  -0.048  0.00  0.00    +0.214 C 
ATOM     22  C   UNL     1       3.053  -6.282   0.189  0.00  0.00    +0.185 C 
ATOM     23  C   UNL     1       1.950  -7.344   0.133  0.00  0.00    +0.177 C 
ATOM     24  C   UNL     1       1.236  -7.251  -1.219  0.00  0.00    +0.176 C 
ATOM     25  C   UNL     1       0.687  -5.834  -1.401  0.00  0.00    +0.176 C 
ATOM     26  O   UNL     1       1.760  -4.894  -1.308  0.00  0.00    -0.355 OA
BRANCH  24  27
ATOM     27  O   UNL     1       2.160  -7.546  -2.268  0.00  0.00    -0.386 OA
ATOM     28  H   UNL     1       2.550  -8.429  -2.212  0.00  0.00    +0.210 HD
ENDBRANCH  24  27
BRANCH  23  29
ATOM     29  O   UNL     1       2.528  -8.642   0.282  0.00  0.00    -0.386 OA
ATOM     30  H   UNL     1       3.002  -8.768   1.115  0.00  0.00    +0.210 HD
ENDBRANCH  23  29
BRANCH  22  31
ATOM     31  O   UNL     1       3.679  -6.311   1.473  0.00  0.00    -0.386 OA
ATOM     32  H   UNL     1       4.386  -5.660   1.580  0.00  0.00    +0.210 HD
ENDBRANCH  22  31
BRANCH  25  33
ATOM     33  C   UNL     1       0.024  -5.716  -2.775  0.00  0.00    +0.190 C 
BRANCH  33  34
ATOM     34  O   UNL     1      -0.589  -4.431  -2.900  0.00  0.00    -0.392 OA
ATOM     35  H   UNL     1      -1.029  -4.286  -3.748  0.00  0.00    +0.210 HD
ENDBRANCH  33  34
ENDBRANCH  25  33
ENDBRANCH  20  21
ENDBRANCH   8  20
TORSDOF 11
