REMARK  Name = ZINC12680838
REMARK  6 active torsions:
REMARK  status: ('A' for Active; 'I' for Inactive)
REMARK    1  A    between atoms: C_1  and  C_2
REMARK    2  A    between atoms: C_4  and  C_26
REMARK    3  A    between atoms: C_6  and  N_8
REMARK    4  A    between atoms: C_9  and  S_13
REMARK    5  A    between atoms: S_13  and  C_14
REMARK    6  A    between atoms: C_14  and  C_15
REMARK                            x       y       z     vdW  Elec       q    Type
REMARK                         _______ _______ _______ _____ _____    ______ ____
ROOT
ATOM      1  N   UNL     1       0.002  -0.004   0.002  0.00  0.00    -0.187 N 
ATOM      2  C   UNL     1       1.316  -0.342  -0.012  0.00  0.00    +0.214 A 
ATOM      3  N   UNL     1       2.003   0.781  -0.013  0.00  0.00    -0.101 NA
ATOM      4  N   UNL     1       1.211   1.792   0.000  0.00  0.00    -0.022 NA
ATOM      5  N   UNL     1      -0.017   1.402   0.010  0.00  0.00    -0.038 NA
ENDROOT
BRANCH   1  11
ATOM      6  C   UNL     1      -2.073  -4.224  -1.438  0.00  0.00    +0.044 C 
ATOM      7  C   UNL     1      -2.132  -2.922  -0.683  0.00  0.00    -0.048 A 
ATOM      8  C   UNL     1      -3.275  -2.581   0.018  0.00  0.00    +0.006 A 
ATOM      9  C   UNL     1      -3.333  -1.387   0.713  0.00  0.00    -0.048 A 
ATOM     10  C   UNL     1      -2.249  -0.531   0.710  0.00  0.00    +0.031 A 
ATOM     11  C   UNL     1      -1.100  -0.871   0.007  0.00  0.00    +0.070 A 
ATOM     12  C   UNL     1      -1.047  -2.068  -0.694  0.00  0.00    +0.031 A 
ATOM     13  C   UNL     1      -4.580  -1.019   1.474  0.00  0.00    +0.044 C 
ENDBRANCH   1  11
BRANCH   2  14
ATOM     14  S   UNL     1       1.978  -1.974  -0.027  0.00  0.00    -0.076 S 
BRANCH  14  15
ATOM     15  C   UNL     1       3.748  -1.596  -0.042  0.00  0.00    +0.151 C 
BRANCH  15  16
ATOM     16  C   UNL     1       4.537  -2.880  -0.057  0.00  0.00    +0.121 A 
ATOM     17  N   UNL     1       5.893  -2.805  -0.069  0.00  0.00    -0.309 N 
ATOM     18  H   UNL     1       6.336  -1.942  -0.070  0.00  0.00    +0.170 HD
ATOM     19  C   UNL     1       6.621  -3.948  -0.082  0.00  0.00    +0.266 A 
ATOM     20  O   UNL     1       7.840  -3.914  -0.094  0.00  0.00    -0.267 OA
ATOM     21  C   UNL     1       5.937  -5.164  -0.081  0.00  0.00    +0.102 A 
ATOM     22  C   UNL     1       4.532  -5.213  -0.068  0.00  0.00    +0.085 A 
ATOM     23  N   UNL     1       3.888  -4.000  -0.051  0.00  0.00    -0.232 NA
ATOM     24  C   UNL     1       3.974  -6.499  -0.069  0.00  0.00    +0.036 A 
ATOM     25  C   UNL     1       4.774  -7.587  -0.082  0.00  0.00    +0.048 A 
ATOM     26  S   UNL     1       6.410  -6.873  -0.094  0.00  0.00    -0.090 S 
ENDBRANCH  15  16
ENDBRANCH  14  15
ENDBRANCH   2  14
TORSDOF 4
