REMARK  Name = ZINC09512983
REMARK  10 active torsions:
REMARK  status: ('A' for Active; 'I' for Inactive)
REMARK    1  A    between atoms: C_1  and  C_2
REMARK    2  A    between atoms: C_2  and  C_3
REMARK    3  A    between atoms: C_2  and  C_4
REMARK    4  A    between atoms: C_4  and  C_6
REMARK    5  A    between atoms: C_4  and  N_17
REMARK    6  A    between atoms: C_18  and  C_20
REMARK    7  A    between atoms: C_20  and  S_21
REMARK    8  A    between atoms: S_21  and  C_22
REMARK    9  A    between atoms: N_26  and  C_27
REMARK   10  A    between atoms: C_30  and  O_33
REMARK                            x       y       z     vdW  Elec       q    Type
REMARK                         _______ _______ _______ _____ _____    ______ ____
ROOT
ATOM      1  N   UNL     1      -0.909   6.515   0.044  0.00  0.00    -0.308 N 
ATOM      2  C   UNL     1       0.185   5.728   0.029  0.00  0.00    +0.224 C 
ATOM      3  O   UNL     1       1.290   6.227   0.021  0.00  0.00    -0.275 OA
ATOM      4  H   UNL     1      -1.794   6.116   0.051  0.00  0.00    +0.149 HD
ENDROOT
BRANCH   1   5
ATOM      5  C   UNL     1      -0.763   7.972   0.050  0.00  0.00    +0.106 C 
BRANCH   5   6
ATOM      6  C   UNL     1      -2.000   8.603  -0.536  0.00  0.00    -0.023 A 
ATOM      7  C   UNL     1      -3.247   8.088  -0.232  0.00  0.00    +0.009 A 
ATOM      8  C   UNL     1      -4.387   8.662  -0.766  0.00  0.00    +0.050 A 
ATOM      9  C   UNL     1      -4.275   9.756  -1.607  0.00  0.00    +0.162 A 
ATOM     10  C   UNL     1      -3.024  10.273  -1.912  0.00  0.00    +0.162 A 
ATOM     11  C   UNL     1      -1.886   9.700  -1.371  0.00  0.00    +0.055 A 
ATOM     12  O   UNL     1      -2.925  11.352  -2.742  0.00  0.00    -0.488 OA
ATOM     13  C   UNL     1      -3.426  12.586  -2.225  0.00  0.00    +0.232 C 
ATOM     14  C   UNL     1      -4.926  12.694  -2.448  0.00  0.00    +0.082 C 
ATOM     15  C   UNL     1      -5.704  11.643  -1.671  0.00  0.00    +0.232 C 
ATOM     16  O   UNL     1      -5.391  10.331  -2.142  0.00  0.00    -0.488 OA
ENDBRANCH   5   6
BRANCH   5  18
ATOM     17  C   UNL     1      -1.732   7.960   2.353  0.00  0.00    +0.009 C 
ATOM     18  C   UNL     1      -0.574   8.460   1.487  0.00  0.00    +0.008 C 
ATOM     19  C   UNL     1       0.747   7.919   2.039  0.00  0.00    +0.009 C 
ENDBRANCH   5  18
ENDBRANCH   1   5
BRANCH   2  20
ATOM     20  C   UNL     1       0.035   4.228   0.024  0.00  0.00    +0.173 C 
BRANCH  20  21
ATOM     21  S   UNL     1       1.672   3.458   0.004  0.00  0.00    -0.075 S 
BRANCH  21  22
ATOM     22  C   UNL     1       1.211   1.758  -0.000  0.00  0.00    +0.214 A 
ATOM     23  N   UNL     1      -0.015   1.280   0.009  0.00  0.00    -0.101 NA
ATOM     24  N   UNL     1       0.002  -0.004   0.002  0.00  0.00    -0.022 NA
ATOM     25  N   UNL     1       1.216  -0.437  -0.012  0.00  0.00    -0.038 NA
ATOM     26  N   UNL     1       2.052   0.694  -0.014  0.00  0.00    -0.187 N 
BRANCH  26  27
ATOM     27  C   UNL     1       3.455   0.716  -0.027  0.00  0.00    +0.070 A 
ATOM     28  C   UNL     1       4.127   1.712  -0.723  0.00  0.00    +0.031 A 
ATOM     29  C   UNL     1       5.507   1.738  -0.731  0.00  0.00    +0.047 A 
ATOM     30  C   UNL     1       6.223   0.761  -0.053  0.00  0.00    +0.117 A 
ATOM     31  C   UNL     1       5.552  -0.238   0.637  0.00  0.00    +0.047 A 
ATOM     32  C   UNL     1       4.172  -0.261   0.651  0.00  0.00    +0.031 A 
BRANCH  30  33
ATOM     33  O   UNL     1       7.582   0.784  -0.065  0.00  0.00    -0.507 OA
ATOM     34  H   UNL     1       7.977   0.287  -0.795  0.00  0.00    +0.292 HD
ENDBRANCH  30  33
ENDBRANCH  26  27
ENDBRANCH  21  22
ENDBRANCH  20  21
ENDBRANCH   2  20
TORSDOF 8
