REMARK  Name = ZINC35910006
REMARK  10 active torsions:
REMARK  status: ('A' for Active; 'I' for Inactive)
REMARK    1  A    between atoms: C_1  and  C_2
REMARK    2  A    between atoms: C_2  and  C_3
REMARK    3  A    between atoms: N_7  and  C_28
REMARK    4  A    between atoms: C_11  and  N_16
REMARK    5  A    between atoms: N_16  and  S_17
REMARK    6  A    between atoms: S_17  and  C_20
REMARK    7  A    between atoms: C_23  and  C_27
REMARK    8  A    between atoms: C_28  and  C_29
REMARK    9  A    between atoms: C_33  and  O_35
REMARK   10  A    between atoms: O_35  and  C_36
REMARK                            x       y       z     vdW  Elec       q    Type
REMARK                         _______ _______ _______ _____ _____    ______ ____
ROOT
ATOM      1  C   UNL     1      -1.317  -0.360   0.004  0.00  0.00    +0.258 C 
ATOM      2  C   UNL     1      -1.223  -1.845   0.176  0.00  0.00    +0.257 C 
ATOM      3  O   UNL     1      -1.474  -2.219   1.302  0.00  0.00    -0.272 OA
ATOM      4  N   UNL     1      -0.934  -2.792  -0.621  0.00  0.00    -0.290 N 
ATOM      5  C   UNL     1      -0.814  -2.865  -2.038  0.00  0.00    +0.147 C 
ATOM      6  C   UNL     1      -1.122  -1.651  -2.858  0.00  0.00    +0.013 A 
ATOM      7  C   UNL     1      -0.896  -1.847  -4.230  0.00  0.00    +0.033 A 
ATOM      8  C   UNL     1      -1.072  -0.825  -5.141  0.00  0.00    +0.049 A 
ATOM      9  C   UNL     1      -1.472   0.422  -4.679  0.00  0.00    +0.028 A 
ATOM     10  C   UNL     1      -1.710   0.598  -3.342  0.00  0.00    +0.048 A 
ATOM     11  C   UNL     1      -1.564  -0.460  -2.412  0.00  0.00    +0.126 A 
ATOM     12  O   UNL     1      -2.006  -0.041  -1.189  0.00  0.00    -0.479 OA
ENDROOT
BRANCH   1  14
ATOM     13  C   UNL     1       0.005   1.757  -0.093  0.00  0.00    +0.008 C 
ATOM     14  C   UNL     1       0.093   0.230  -0.055  0.00  0.00    +0.051 C 
ENDBRANCH   1  14
BRANCH   8  15
ATOM     15  N   UNL     1      -0.850  -1.042  -6.506  0.00  0.00    -0.216 N 
ATOM     16  H   UNL     1      -0.053  -1.511  -6.799  0.00  0.00    +0.174 HD
BRANCH  15  17
ATOM     17  S   UNL     1      -1.948  -0.499  -7.620  0.00  0.00    +0.072 S 
ATOM     18  O   UNL     1      -2.167   0.877  -7.337  0.00  0.00    -0.150 OA
ATOM     19  O   UNL     1      -1.499  -0.954  -8.889  0.00  0.00    -0.150 OA
BRANCH  17  20
ATOM     20  C   UNL     1      -3.470  -1.327  -7.298  0.00  0.00    +0.111 A 
ATOM     21  C   UNL     1      -3.698  -2.583  -7.828  0.00  0.00    +0.029 A 
ATOM     22  C   UNL     1      -4.892  -3.234  -7.577  0.00  0.00    +0.008 A 
ATOM     23  C   UNL     1      -5.858  -2.629  -6.795  0.00  0.00    -0.015 A 
ATOM     24  C   UNL     1      -5.630  -1.371  -6.263  0.00  0.00    +0.128 A 
ATOM     25  C   UNL     1      -4.432  -0.723  -6.511  0.00  0.00    +0.067 A 
ATOM     26  F   UNL     1      -6.574  -0.779  -5.500  0.00  0.00    -0.205 F 
ATOM     27  C   UNL     1      -7.159  -3.338  -6.521  0.00  0.00    +0.047 C 
ENDBRANCH  17  20
ENDBRANCH  15  17
ENDBRANCH   8  15
BRANCH   4  28
ATOM     28  C   UNL     1      -0.671  -4.065   0.055  0.00  0.00    +0.143 C 
BRANCH  28  29
ATOM     29  C   UNL     1      -1.958  -4.838   0.187  0.00  0.00    -0.027 A 
ATOM     30  C   UNL     1      -2.754  -4.668   1.305  0.00  0.00    +0.005 A 
ATOM     31  C   UNL     1      -3.935  -5.376   1.429  0.00  0.00    +0.004 A 
ATOM     32  C   UNL     1      -4.322  -6.256   0.437  0.00  0.00    +0.045 A 
ATOM     33  C   UNL     1      -3.525  -6.429  -0.685  0.00  0.00    +0.120 A 
ATOM     34  C   UNL     1      -2.344  -5.712  -0.810  0.00  0.00    +0.050 A 
BRANCH  33  35
ATOM     35  O   UNL     1      -3.904  -7.293  -1.663  0.00  0.00    -0.495 OA
ATOM     36  C   UNL     1      -5.135  -7.992  -1.469  0.00  0.00    +0.277 C 
ENDBRANCH  33  35
ENDBRANCH  28  29
ENDBRANCH   4  28
TORSDOF 7
