REMARK  Name = ZINC21336953
REMARK  16 active torsions:
REMARK  status: ('A' for Active; 'I' for Inactive)
REMARK    1  A    between atoms: C_1  and  C_2
REMARK    2  A    between atoms: C_2  and  C_4
REMARK    3  A    between atoms: C_2  and  N_10
REMARK    4  A    between atoms: N_10  and  C_11
REMARK    5  A    between atoms: C_12  and  C_14
REMARK    6  A    between atoms: C_14  and  S_15
REMARK    7  A    between atoms: S_15  and  C_16
REMARK    8  A    between atoms: N_26  and  C_27
REMARK    9  A    between atoms: C_27  and  C_28
REMARK   10  A    between atoms: C_28  and  N_29
REMARK   11  A    between atoms: N_29  and  C_30
REMARK   12  A    between atoms: N_29  and  C_33
REMARK   13  A    between atoms: C_30  and  C_31
REMARK   14  A    between atoms: C_30  and  C_32
REMARK   15  A    between atoms: C_33  and  C_34
REMARK   16  A    between atoms: C_33  and  C_35
REMARK                            x       y       z     vdW  Elec       q    Type
REMARK                         _______ _______ _______ _____ _____    ______ ____
ROOT
ATOM      1  C   UNL     1       0.230  -4.026  -8.026  0.00  0.00    +0.173 A 
ATOM      2  N   UNL     1       1.482  -3.933  -8.404  0.00  0.00    -0.223 NA
ATOM      3  C   UNL     1       1.853  -4.157  -9.680  0.00  0.00    +0.079 A 
ATOM      4  C   UNL     1       3.188  -4.059 -10.083  0.00  0.00    +0.028 A 
ATOM      5  C   UNL     1       3.520  -4.294 -11.387  0.00  0.00    +0.002 A 
ATOM      6  C   UNL     1       2.550  -4.631 -12.322  0.00  0.00    +0.001 A 
ATOM      7  C   UNL     1       1.236  -4.735 -11.959  0.00  0.00    +0.015 A 
ATOM      8  C   UNL     1       0.868  -4.501 -10.635  0.00  0.00    +0.065 A 
ATOM      9  C   UNL     1      -0.527  -4.599 -10.187  0.00  0.00    +0.262 A 
ATOM     10  O   UNL     1      -1.420  -4.891 -10.961  0.00  0.00    -0.267 OA
ATOM     11  N   UNL     1      -0.783  -4.358  -8.880  0.00  0.00    -0.289 N 
ENDROOT
BRANCH   1  12
ATOM     12  S   UNL     1      -0.162  -3.716  -6.337  0.00  0.00    -0.078 S 
BRANCH  12  13
ATOM     13  C   UNL     1       1.438  -3.321  -5.580  0.00  0.00    +0.173 C 
BRANCH  13  16
ATOM     14  N   UNL     1       2.301  -2.711  -3.343  0.00  0.00    -0.297 N 
ATOM     15  C   UNL     1       3.641  -2.645  -3.930  0.00  0.00    +0.132 C 
ATOM     16  C   UNL     1       1.242  -3.031  -4.114  0.00  0.00    +0.226 C 
ATOM     17  O   UNL     1       0.133  -3.086  -3.628  0.00  0.00    -0.275 OA
BRANCH  14  19
ATOM     18  C   UNL     1       2.725  -1.069  -1.581  0.00  0.00    +0.033 C 
ATOM     19  C   UNL     1       2.110  -2.429  -1.918  0.00  0.00    +0.103 C 
BRANCH  19  20
ATOM     20  C   UNL     1       2.783  -3.501  -1.100  0.00  0.00    -0.027 A 
ATOM     21  C   UNL     1       4.129  -3.762  -1.275  0.00  0.00    +0.005 A 
ATOM     22  C   UNL     1       4.745  -4.746  -0.524  0.00  0.00    +0.000 A 
ATOM     23  C   UNL     1       4.016  -5.468   0.402  0.00  0.00    +0.000 A 
ATOM     24  C   UNL     1       2.670  -5.206   0.577  0.00  0.00    +0.000 A 
ATOM     25  C   UNL     1       2.054  -4.220  -0.170  0.00  0.00    +0.005 A 
ENDBRANCH  19  20
ENDBRANCH  14  19
ENDBRANCH  13  16
ENDBRANCH  12  13
ENDBRANCH   1  12
BRANCH  11  26
ATOM     26  C   UNL     1      -2.156  -4.447  -8.379  0.00  0.00    +0.109 C 
BRANCH  26  27
ATOM     27  C   UNL     1      -2.836  -3.083  -8.507  0.00  0.00    -0.056 C 
BRANCH  27  28
ATOM     28  N   UNL     1      -4.247  -3.199  -8.112  0.00  0.00    +0.384 N 
ATOM     29  H   UNL     1      -4.692  -3.917  -8.665  0.00  0.00    -0.081 HD
BRANCH  28  30
ATOM     30  C   UNL     1      -4.330  -3.555  -6.689  0.00  0.00    -0.074 C 
ATOM     31  C   UNL     1      -4.229  -2.286  -5.840  0.00  0.00    -0.014 C 
ATOM     32  C   UNL     1      -5.665  -4.248  -6.414  0.00  0.00    -0.014 C 
ENDBRANCH  28  30
BRANCH  28  33
ATOM     33  C   UNL     1      -4.926  -1.916  -8.337  0.00  0.00    -0.074 C 
ATOM     34  C   UNL     1      -4.702  -1.467  -9.782  0.00  0.00    -0.014 C 
ATOM     35  C   UNL     1      -6.425  -2.080  -8.080  0.00  0.00    -0.014 C 
ENDBRANCH  28  33
ENDBRANCH  27  28
ENDBRANCH  26  27
ENDBRANCH  11  26
TORSDOF 10
