REMARK  Name = ZINC37733628
REMARK  8 active torsions:
REMARK  status: ('A' for Active; 'I' for Inactive)
REMARK    1  A    between atoms: C_1  and  C_2
REMARK    2  A    between atoms: C_2  and  N_3
REMARK    3  A    between atoms: C_7  and  C_9
REMARK    4  A    between atoms: C_9  and  N_10
REMARK    5  A    between atoms: N_10  and  C_11
REMARK    6  A    between atoms: C_14  and  C_18
REMARK    7  A    between atoms: C_16  and  C_17
REMARK    8  A    between atoms: C_18  and  N_20
REMARK                            x       y       z     vdW  Elec       q    Type
REMARK                         _______ _______ _______ _____ _____    ______ ____
ROOT
ATOM      1  C   UNL     1       4.374  -1.868   0.059  0.00  0.00    +0.030 A 
ATOM      2  C   UNL     1       5.063  -2.712  -0.808  0.00  0.00    +0.024 A 
ATOM      3  C   UNL     1       6.414  -2.917  -0.643  0.00  0.00    +0.012 A 
ATOM      4  C   UNL     1       7.095  -2.275   0.397  0.00  0.00    +0.003 A 
ATOM      5  C   UNL     1       6.400  -1.427   1.265  0.00  0.00    +0.015 A 
ATOM      6  C   UNL     1       5.050  -1.223   1.091  0.00  0.00    -0.029 A 
ATOM      7  C   UNL     1       4.301  -0.305   2.023  0.00  0.00    +0.045 C 
ENDROOT
BRANCH   1   8
ATOM      8  N   UNL     1       3.009  -1.663  -0.111  0.00  0.00    -0.345 N 
ATOM      9  H   UNL     1       2.529  -1.071   0.489  0.00  0.00    +0.146 HD
BRANCH   8  10
ATOM     10  C   UNL     1       2.296  -2.340  -1.197  0.00  0.00    +0.086 C 
BRANCH  10  15
ATOM     11  N   UNL     1       0.690  -0.478  -1.207  0.00  0.00    +0.382 N 
ATOM     12  C   UNL     1      -0.098  -0.111  -2.403  0.00  0.00    -0.078 C 
ATOM     13  C   UNL     1       0.088  -1.300  -3.378  0.00  0.00    -0.020 C 
ATOM     14  C   UNL     1       0.095  -2.507  -2.403  0.00  0.00    -0.016 C 
ATOM     15  C   UNL     1       0.818  -1.946  -1.161  0.00  0.00    -0.051 C 
ATOM     16  H   UNL     1       1.606  -0.058  -1.264  0.00  0.00    -0.081 HD
BRANCH  11  18
ATOM     17  C   UNL     1      -0.019   1.526   0.010  0.00  0.00    -0.017 C 
ATOM     18  C   UNL     1       0.002  -0.004   0.002  0.00  0.00    -0.082 C 
ENDBRANCH  11  18
ENDBRANCH  10  15
ENDBRANCH   8  10
ENDBRANCH   1   8
BRANCH   4  19
ATOM     19  C   UNL     1       8.541  -2.491   0.577  0.00  0.00    +0.077 C 
ATOM     20  S   UNL     1       9.537  -1.212   1.125  0.00  0.00    -0.035 S 
BRANCH  19  21
ATOM     21  N   UNL     1       9.080  -3.697   0.309  0.00  0.00    -0.352 N 
ATOM     22  H   UNL     1       8.516  -4.423  -0.002  0.00  0.00    +0.143 HD
ATOM     23  H   UNL     1      10.032  -3.840   0.428  0.00  0.00    +0.143 HD
ENDBRANCH  19  21
ENDBRANCH   4  19
TORSDOF 6
