REMARK  Name = ZINC38194620
REMARK  7 active torsions:
REMARK  status: ('A' for Active; 'I' for Inactive)
REMARK    1  A    between atoms: C_1  and  C_2
REMARK    2  A    between atoms: C_7  and  C_9
REMARK    3  A    between atoms: C_7  and  C_10
REMARK    4  A    between atoms: N_11  and  C_13
REMARK    5  A    between atoms: C_13  and  C_14
REMARK    6  A    between atoms: C_15  and  O_35
REMARK    7  A    between atoms: C_22  and  C_25
REMARK                            x       y       z     vdW  Elec       q    Type
REMARK                         _______ _______ _______ _____ _____    ______ ____
ROOT
ATOM      1  C   UNL     1       1.356  -2.430  -3.408  0.00  0.00    +0.020 A 
ATOM      2  C   UNL     1       0.800  -2.592  -4.666  0.00  0.00    +0.122 A 
ATOM      3  C   UNL     1       1.509  -2.228  -5.809  0.00  0.00    +0.046 A 
ATOM      4  C   UNL     1       2.765  -1.702  -5.702  0.00  0.00    +0.019 A 
ATOM      5  C   UNL     1       3.337  -1.531  -4.442  0.00  0.00    +0.065 A 
ATOM      6  C   UNL     1       2.631  -1.894  -3.281  0.00  0.00    +0.143 A 
ATOM      7  O   UNL     1       3.191  -1.736  -2.066  0.00  0.00    -0.462 OA
ATOM      8  C   UNL     1       4.268  -0.969  -1.883  0.00  0.00    +0.208 A 
ATOM      9  C   UNL     1       5.054  -0.548  -2.909  0.00  0.00    +0.064 A 
ATOM     10  C   UNL     1       4.688  -0.959  -4.280  0.00  0.00    +0.200 A 
ATOM     11  O   UNL     1       5.448  -0.821  -5.223  0.00  0.00    -0.286 OA
ENDROOT
BRANCH   9  12
ATOM     12  C   UNL     1       6.252   0.289  -2.657  0.00  0.00    -0.008 A 
ATOM     13  C   UNL     1       6.300   1.599  -3.131  0.00  0.00    +0.012 A 
ATOM     14  C   UNL     1       7.416   2.376  -2.897  0.00  0.00    +0.050 A 
ATOM     15  C   UNL     1       8.492   1.858  -2.189  0.00  0.00    +0.162 A 
ATOM     16  C   UNL     1       8.448   0.553  -1.712  0.00  0.00    +0.163 A 
ATOM     17  C   UNL     1       7.328  -0.229  -1.941  0.00  0.00    +0.058 A 
ATOM     18  O   UNL     1       9.492   0.033  -1.009  0.00  0.00    -0.485 OA
ATOM     19  C   UNL     1      10.744   0.718  -1.114  0.00  0.00    +0.270 C 
ATOM     20  C   UNL     1      10.485   2.221  -0.942  0.00  0.00    +0.270 C 
ATOM     21  O   UNL     1       9.585   2.642  -1.973  0.00  0.00    -0.485 OA
ENDBRANCH   9  12
BRANCH   2  22
ATOM     22  O   UNL     1      -0.449  -3.111  -4.787  0.00  0.00    -0.506 OA
ATOM     23  H   UNL     1      -1.153  -2.448  -4.775  0.00  0.00    +0.292 HD
ENDBRANCH   2  22
BRANCH   1  24
ATOM     24  C   UNL     1       0.577  -2.827  -2.181  0.00  0.00    -0.035 C 
BRANCH  24  34
ATOM     25  C   UNL     1      -0.019   1.532   0.011  0.00  0.00    +0.009 C 
ATOM     26  C   UNL     1       0.002  -0.004   0.002  0.00  0.00    -0.048 C 
ATOM     27  C   UNL     1      -1.426  -0.615   0.003  0.00  0.00    -0.011 C 
ATOM     28  C   UNL     1      -1.100  -2.018  -0.584  0.00  0.00    -0.067 C 
ATOM     29  C   UNL     1      -0.396  -2.818   0.494  0.00  0.00    -0.009 C 
ATOM     30  C   UNL     1       0.654  -2.101   1.313  0.00  0.00    -0.036 C 
ATOM     31  C   UNL     1       0.727  -0.591   1.214  0.00  0.00    +0.011 C 
ATOM     32  C   UNL     1       2.041  -2.692   0.990  0.00  0.00    +0.011 C 
ATOM     33  C   UNL     1       0.383  -2.444   2.801  0.00  0.00    +0.011 C 
ATOM     34  N   UNL     1      -0.211  -1.692  -1.717  0.00  0.00    +0.385 N 
ATOM     35  C   UNL     1       0.649  -0.577  -1.280  0.00  0.00    -0.071 C 
ATOM     36  H   UNL     1      -0.788  -1.358  -2.491  0.00  0.00    -0.081 HD
ENDBRANCH  24  34
ENDBRANCH   1  24
TORSDOF 4
