REMARK  Name = ZINC05493742
REMARK  7 active torsions:
REMARK  status: ('A' for Active; 'I' for Inactive)
REMARK    1  A    between atoms: C_1  and  C_2
REMARK    2  A    between atoms: C_2  and  C_31
REMARK    3  A    between atoms: C_7  and  C_11
REMARK    4  A    between atoms: N_12  and  N_13
REMARK    5  A    between atoms: C_14  and  C_16
REMARK    6  A    between atoms: C_20  and  S_22
REMARK    7  A    between atoms: S_22  and  N_25
REMARK                            x       y       z     vdW  Elec       q    Type
REMARK                         _______ _______ _______ _____ _____    ______ ____
ROOT
ATOM      1  N   UNL     1       2.431   2.242   7.501  0.00  0.00    -0.203 N 
ATOM      2  C   UNL     1       1.395   2.280   6.639  0.00  0.00    +0.263 C 
ATOM      3  O   UNL     1       0.506   3.095   6.792  0.00  0.00    -0.268 OA
ATOM      4  H   UNL     1       3.140   1.592   7.379  0.00  0.00    +0.178 HD
ENDROOT
BRANCH   2   5
ATOM      5  C   UNL     1       1.341   1.331   5.508  0.00  0.00    +0.040 A 
ATOM      6  C   UNL     1       2.360   0.393   5.329  0.00  0.00    +0.013 A 
ATOM      7  C   UNL     1       2.302  -0.490   4.271  0.00  0.00    +0.003 A 
ATOM      8  C   UNL     1       1.235  -0.452   3.391  0.00  0.00    +0.028 A 
ATOM      9  C   UNL     1       0.225   0.478   3.559  0.00  0.00    +0.106 A 
ATOM     10  C   UNL     1       0.270   1.367   4.613  0.00  0.00    +0.041 A 
BRANCH   9  11
ATOM     11  S   UNL     1      -1.126   0.522   2.429  0.00  0.00    +0.061 S 
ATOM     12  O   UNL     1      -2.215   1.118   3.120  0.00  0.00    -0.153 OA
ATOM     13  O   UNL     1      -1.210  -0.770   1.845  0.00  0.00    -0.153 OA
BRANCH  11  14
ATOM     14  N   UNL     1      -0.712   1.565   1.211  0.00  0.00    -0.172 NA
ATOM     15  C   UNL     1      -0.013   1.086   0.008  0.00  0.00    +0.137 C 
ATOM     16  C   UNL     1      -0.764   1.599  -1.226  0.00  0.00    +0.177 C 
ATOM     17  O   UNL     1      -0.940   3.013  -1.115  0.00  0.00    -0.377 OA
ATOM     18  C   UNL     1      -1.734   3.419   0.003  0.00  0.00    +0.177 C 
ATOM     19  C   UNL     1      -1.032   2.999   1.299  0.00  0.00    +0.137 C 
ENDBRANCH  11  14
ENDBRANCH   9  11
ENDBRANCH   2   5
BRANCH   1  21
ATOM     20  C   UNL     1       3.481   3.105   9.405  0.00  0.00    +0.134 C 
ATOM     21  N   UNL     1       2.483   3.142   8.573  0.00  0.00    -0.188 NA
BRANCH  20  27
ATOM     22  C   UNL     1       6.551   5.581  12.407  0.00  0.00    +0.012 C 
ATOM     23  C   UNL     1       5.195   5.485  11.704  0.00  0.00    -0.025 C 
ATOM     24  C   UNL     1       3.992   5.654  12.647  0.00  0.00    -0.000 C 
ATOM     25  C   UNL     1       2.674   5.896  11.899  0.00  0.00    +0.031 C 
ATOM     26  C   UNL     1       2.578   4.958  10.720  0.00  0.00    -0.021 C 
ATOM     27  C   UNL     1       3.535   4.048  10.528  0.00  0.00    -0.028 C 
ATOM     28  C   UNL     1       4.687   4.034  11.519  0.00  0.00    +0.026 C 
ATOM     29  C   UNL     1       4.178   4.157  12.967  0.00  0.00    +0.013 C 
ATOM     30  C   UNL     1       5.113   6.336  10.436  0.00  0.00    +0.012 C 
ENDBRANCH  20  27
ENDBRANCH   1  21
TORSDOF 5
