REMARK  Name = ZINC40320115
REMARK  13 active torsions:
REMARK  status: ('A' for Active; 'I' for Inactive)
REMARK    1  A    between atoms: C_1  and  C_2
REMARK    2  A    between atoms: C_6  and  C_7
REMARK    3  A    between atoms: C_7  and  N_8
REMARK    4  A    between atoms: N_8  and  C_9
REMARK    5  A    between atoms: N_8  and  C_25
REMARK    6  A    between atoms: C_9  and  C_10
REMARK    7  A    between atoms: C_10  and  C_12
REMARK    8  A    between atoms: C_10  and  O_24
REMARK    9  A    between atoms: C_12  and  O_13
REMARK   10  A    between atoms: O_13  and  C_14
REMARK   11  A    between atoms: C_17  and  C_22
REMARK   12  A    between atoms: C_19  and  O_20
REMARK   13  A    between atoms: O_20  and  C_21
REMARK                            x       y       z     vdW  Elec       q    Type
REMARK                         _______ _______ _______ _____ _____    ______ ____
ROOT
ATOM      1  N   UNL     1      -1.442   0.033   3.133  0.00  0.00    +0.387 N 
ATOM      2  H   UNL     1      -1.746   0.379   2.236  0.00  0.00    -0.081 HD
ENDROOT
BRANCH   1   3
ATOM      3  C   UNL     1      -2.175  -1.199   3.457  0.00  0.00    -0.045 C 
ATOM      4  C   UNL     1      -1.356  -2.046   4.446  0.00  0.00    +0.009 C 
ATOM      5  C   UNL     1      -1.956  -3.469   4.544  0.00  0.00    +0.164 C 
ATOM      6  S   UNL     1      -2.731  -3.695   2.892  0.00  0.00    -0.033 S 
ATOM      7  O   UNL     1      -4.134  -3.849   3.056  0.00  0.00    -0.174 OA
ATOM      8  O   UNL     1      -2.001  -4.677   2.169  0.00  0.00    -0.174 OA
ATOM      9  C   UNL     1      -2.390  -2.037   2.165  0.00  0.00    +0.151 C 
ENDBRANCH   1   3
BRANCH   1  10
ATOM     10  C   UNL     1      -0.002  -0.254   3.084  0.00  0.00    -0.035 C 
BRANCH  10  16
ATOM     11  C   UNL     1       0.247   0.493   0.115  0.00  0.00    +0.044 C 
ATOM     12  C   UNL     1       0.405  -0.918   0.619  0.00  0.00    -0.042 A 
ATOM     13  C   UNL     1       0.681  -1.950  -0.258  0.00  0.00    +0.011 A 
ATOM     14  C   UNL     1       0.817  -3.207   0.229  0.00  0.00    +0.045 A 
ATOM     15  S   UNL     1       0.554  -2.958   1.977  0.00  0.00    -0.103 S 
ATOM     16  C   UNL     1       0.285  -1.193   1.941  0.00  0.00    -0.024 A 
ENDBRANCH  10  16
ENDBRANCH   1  10
BRANCH   1  17
ATOM     17  C   UNL     1      -1.705   1.045   4.164  0.00  0.00    -0.043 C 
BRANCH  17  18
ATOM     18  C   UNL     1      -3.179   1.452   4.115  0.00  0.00    +0.135 C 
BRANCH  18  19
ATOM     19  O   UNL     1      -3.481   1.995   2.828  0.00  0.00    -0.390 OA
ATOM     20  H   UNL     1      -2.961   2.778   2.600  0.00  0.00    +0.210 HD
ENDBRANCH  18  19
BRANCH  18  21
ATOM     21  C   UNL     1      -3.454   2.504   5.191  0.00  0.00    +0.258 C 
BRANCH  21  22
ATOM     22  O   UNL     1      -4.852   2.799   5.223  0.00  0.00    -0.486 OA
BRANCH  22  23
ATOM     23  C   UNL     1      -5.267   3.720   6.129  0.00  0.00    +0.162 A 
ATOM     24  C   UNL     1      -4.343   4.333   6.966  0.00  0.00    +0.050 A 
ATOM     25  C   UNL     1      -4.758   5.268   7.888  0.00  0.00    +0.015 A 
ATOM     26  C   UNL     1      -6.114   5.604   7.982  0.00  0.00    +0.018 A 
ATOM     27  C   UNL     1      -7.045   4.986   7.137  0.00  0.00    +0.060 A 
ATOM     28  C   UNL     1      -6.619   4.054   6.212  0.00  0.00    +0.162 A 
BRANCH  28  29
ATOM     29  O   UNL     1      -7.519   3.456   5.386  0.00  0.00    -0.491 OA
ATOM     30  C   UNL     1      -8.887   3.845   5.527  0.00  0.00    +0.277 C 
ENDBRANCH  28  29
BRANCH  26  31
ATOM     31  C   UNL     1      -6.560   6.601   8.964  0.00  0.00    +0.258 C 
ATOM     32  O   UNL     1      -5.752   7.135   9.695  0.00  0.00    -0.296 OA
ENDBRANCH  26  31
ENDBRANCH  22  23
ENDBRANCH  21  22
ENDBRANCH  18  21
ENDBRANCH  17  18
ENDBRANCH   1  17
TORSDOF 11
