REMARK  Name = ZINC40153092
REMARK  7 active torsions:
REMARK  status: ('A' for Active; 'I' for Inactive)
REMARK    1  A    between atoms: C_1  and  C_2
REMARK    2  A    between atoms: C_2  and  C_3
REMARK    3  A    between atoms: C_9  and  C_13
REMARK    4  A    between atoms: C_13  and  O_14
REMARK    5  A    between atoms: O_14  and  C_15
REMARK    6  A    between atoms: C_15  and  C_17
REMARK    7  A    between atoms: C_19  and  C_23
REMARK                            x       y       z     vdW  Elec       q    Type
REMARK                         _______ _______ _______ _____ _____    ______ ____
ROOT
ATOM      1  C   UNL     1      -8.346  -4.553  -1.320  0.00  0.00    +0.341 C 
ATOM      2  O   UNL     1      -9.179  -4.655  -0.440  0.00  0.00    -0.245 OA
ENDROOT
BRANCH   1   3
ATOM      3  C   UNL     1      -8.477  -5.348  -2.552  0.00  0.00    +0.077 A 
ATOM      4  C   UNL     1      -9.511  -6.262  -2.857  0.00  0.00    +0.047 A 
ATOM      5  C   UNL     1      -9.242  -6.771  -4.093  0.00  0.00    +0.103 A 
ATOM      6  N   UNL     1      -8.076  -6.199  -4.552  0.00  0.00    -0.356 N 
ATOM      7  H   UNL     1      -7.657  -6.385  -5.407  0.00  0.00    +0.165 HD
ATOM      8  C   UNL     1      -7.614  -5.337  -3.633  0.00  0.00    +0.098 A 
BRANCH   5   9
ATOM      9  C   UNL     1     -10.054  -7.762  -4.810  0.00  0.00    +0.263 C 
ATOM     10  O   UNL     1     -11.069  -8.199  -4.302  0.00  0.00    -0.268 OA
ATOM     11  N   UNL     1      -9.675  -8.186  -6.032  0.00  0.00    -0.296 N 
ATOM     12  C   UNL     1      -8.474  -7.747  -6.758  0.00  0.00    +0.108 C 
ATOM     13  C   UNL     1      -8.468  -8.477  -8.117  0.00  0.00    +0.020 C 
ATOM     14  C   UNL     1      -9.959  -8.855  -8.316  0.00  0.00    +0.020 C 
ATOM     15  C   UNL     1     -10.394  -9.172  -6.860  0.00  0.00    +0.108 C 
ENDBRANCH   5   9
ENDBRANCH   1   3
BRANCH   1  16
ATOM     16  O   UNL     1      -7.304  -3.713  -1.167  0.00  0.00    -0.455 OA
BRANCH  16  17
ATOM     17  C   UNL     1      -7.241  -2.973   0.054  0.00  0.00    +0.288 C 
BRANCH  17  24
ATOM     18  C   UNL     1      -1.412  -0.526   0.013  0.00  0.00    +0.102 A 
ATOM     19  N   UNL     1      -2.527   0.139   0.022  0.00  0.00    -0.159 NA
ATOM     20  N   UNL     1      -3.761  -0.504   0.030  0.00  0.00    -0.171 N 
ATOM     21  C   UNL     1      -4.996   0.078   0.040  0.00  0.00    +0.275 A 
ATOM     22  O   UNL     1      -5.098   1.295   0.041  0.00  0.00    -0.266 OA
ATOM     23  C   UNL     1      -6.140  -0.720   0.047  0.00  0.00    +0.099 A 
ATOM     24  C   UNL     1      -6.017  -2.093   0.045  0.00  0.00    +0.087 A 
ATOM     25  N   UNL     1      -4.799  -2.628   0.036  0.00  0.00    -0.223 NA
ATOM     26  C   UNL     1      -3.730  -1.872   0.029  0.00  0.00    +0.199 A 
ATOM     27  S   UNL     1      -1.984  -2.217   0.009  0.00  0.00    -0.033 S 
BRANCH  18  29
ATOM     28  C   UNL     1      -0.019   1.526   0.010  0.00  0.00    +0.011 C 
ATOM     29  C   UNL     1       0.002  -0.004   0.002  0.00  0.00    +0.061 C 
ENDBRANCH  18  29
ENDBRANCH  17  24
ENDBRANCH  16  17
ENDBRANCH   1  16
TORSDOF 6
