REMARK  Name = ZINC01367407
REMARK  7 active torsions:
REMARK  status: ('A' for Active; 'I' for Inactive)
REMARK    1  A    between atoms: C_1  and  C_2
REMARK    2  A    between atoms: C_7  and  C_16
REMARK    3  A    between atoms: C_14  and  C_15
REMARK    4  A    between atoms: C_16  and  N_17
REMARK    5  A    between atoms: N_17  and  C_18
REMARK    6  A    between atoms: C_18  and  C_19
REMARK    7  A    between atoms: C_24  and  C_26
REMARK                            x       y       z     vdW  Elec       q    Type
REMARK                         _______ _______ _______ _____ _____    ______ ____
ROOT
ATOM      1  C   UNL     1      -9.793   1.168   1.152  0.00  0.00    +0.044 C 
ATOM      2  C   UNL     1      -8.297   1.320   1.051  0.00  0.00    -0.045 A 
ATOM      3  C   UNL     1      -7.681   2.440   1.593  0.00  0.00    +0.004 A 
ATOM      4  C   UNL     1      -6.327   2.596   1.512  0.00  0.00    +0.010 A 
ATOM      5  C   UNL     1      -5.552   1.620   0.877  0.00  0.00    +0.001 A 
ATOM      6  C   UNL     1      -4.098   1.759   0.773  0.00  0.00    +0.019 A 
ATOM      7  C   UNL     1      -3.390   0.789   0.150  0.00  0.00    +0.016 A 
ATOM      8  C   UNL     1      -4.049  -0.337  -0.397  0.00  0.00    +0.184 A 
ATOM      9  N   UNL     1      -3.606  -1.410  -1.036  0.00  0.00    -0.108 NA
ATOM     10  N   UNL     1      -4.585  -2.184  -1.342  0.00  0.00    -0.022 NA
ATOM     11  N   UNL     1      -5.703  -1.690  -0.932  0.00  0.00    -0.039 NA
ATOM     12  N   UNL     1      -5.403  -0.474  -0.298  0.00  0.00    -0.192 N 
ATOM     13  C   UNL     1      -6.172   0.483   0.326  0.00  0.00    +0.080 A 
ATOM     14  C   UNL     1      -7.553   0.346   0.421  0.00  0.00    -0.021 A 
ATOM     15  C   UNL     1      -8.234  -0.865  -0.164  0.00  0.00    +0.046 C 
ENDROOT
BRANCH   7  16
ATOM     16  C   UNL     1      -1.893   0.911   0.032  0.00  0.00    +0.147 C 
BRANCH  16  17
ATOM     17  N   UNL     1      -1.552   1.498  -1.266  0.00  0.00    -0.292 N 
ATOM     18  C   UNL     1      -1.175   0.703  -2.288  0.00  0.00    +0.219 C 
ATOM     19  O   UNL     1      -0.859   1.192  -3.351  0.00  0.00    -0.275 OA
BRANCH  18  20
ATOM     20  C   UNL     1      -1.149  -0.793  -2.107  0.00  0.00    +0.075 C 
ATOM     21  C   UNL     1       0.236  -1.418  -2.349  0.00  0.00    +0.013 C 
ATOM     22  C   UNL     1      -0.495  -2.570  -3.058  0.00  0.00    +0.001 C 
ATOM     23  C   UNL     1      -1.628  -1.571  -3.344  0.00  0.00    +0.013 C 
ENDBRANCH  18  20
BRANCH  17  24
ATOM     24  C   UNL     1      -1.619   2.950  -1.454  0.00  0.00    +0.150 C 
BRANCH  24  25
ATOM     25  C   UNL     1      -0.304   3.569  -1.058  0.00  0.00    +0.007 A 
ATOM     26  C   UNL     1       0.760   3.884  -1.837  0.00  0.00    +0.013 A 
ATOM     27  C   UNL     1       1.875   4.453  -1.250  0.00  0.00    +0.008 A 
ATOM     28  C   UNL     1       1.872   4.678   0.086  0.00  0.00    +0.045 A 
ATOM     29  S   UNL     1       0.255   4.086   0.557  0.00  0.00    -0.100 S 
ENDBRANCH  24  25
ENDBRANCH  17  24
ENDBRANCH  16  17
ENDBRANCH   7  16
TORSDOF 5
