REMARK  Name = ZINC35964360
REMARK  9 active torsions:
REMARK  status: ('A' for Active; 'I' for Inactive)
REMARK    1  A    between atoms: C_1  and  C_2
REMARK    2  A    between atoms: C_2  and  N_3
REMARK    3  A    between atoms: C_6  and  C_11
REMARK    4  A    between atoms: N_20  and  C_22
REMARK    5  A    between atoms: C_22  and  C_24
REMARK    6  A    between atoms: C_22  and  C_31
REMARK    7  A    between atoms: C_24  and  C_25
REMARK    8  A    between atoms: N_33  and  C_34
REMARK    9  A    between atoms: C_34  and  C_35
REMARK                            x       y       z     vdW  Elec       q    Type
REMARK                         _______ _______ _______ _____ _____    ______ ____
ROOT
ATOM      1  N   UNL     1       0.711  -0.489   1.189  0.00  0.00    -0.257 N 
ATOM      2  C   UNL     1       2.060  -0.680   1.102  0.00  0.00    +0.042 C 
ATOM      3  C   UNL     1       2.772  -1.125   2.157  0.00  0.00    +0.058 C 
ATOM      4  C   UNL     1       2.024  -1.405   3.445  0.00  0.00    +0.142 C 
ATOM      5  N   UNL     1       0.571  -1.168   3.436  0.00  0.00    -0.288 N 
ATOM      6  C   UNL     1       0.000  -0.716   2.302  0.00  0.00    +0.307 C 
ATOM      7  O   UNL     1      -1.198  -0.513   2.286  0.00  0.00    -0.252 OA
ATOM      8  C   UNL     1       4.136  -1.239   1.815  0.00  0.00    +0.247 C 
ATOM      9  O   UNL     1       5.006  -1.618   2.577  0.00  0.00    -0.270 OA
ATOM     10  N   UNL     1       4.348  -0.875   0.538  0.00  0.00    -0.280 N 
ATOM     11  C   UNL     1       3.047  -0.488  -0.028  0.00  0.00    +0.160 C 
ATOM     12  H   UNL     1       0.037  -1.329   4.230  0.00  0.00    +0.151 HD
ENDROOT
BRANCH   4  13
ATOM     13  C   UNL     1       2.256  -2.848   3.812  0.00  0.00    -0.022 A 
ATOM     14  C   UNL     1       1.532  -3.846   3.185  0.00  0.00    +0.008 A 
ATOM     15  C   UNL     1       1.744  -5.169   3.521  0.00  0.00    +0.038 A 
ATOM     16  C   UNL     1       2.683  -5.496   4.486  0.00  0.00    +0.123 A 
ATOM     17  C   UNL     1       3.407  -4.497   5.112  0.00  0.00    +0.038 A 
ATOM     18  C   UNL     1       3.197  -3.174   4.771  0.00  0.00    +0.008 A 
ATOM     19  F   UNL     1       2.891  -6.790   4.815  0.00  0.00    -0.205 F 
ENDBRANCH   4  13
BRANCH   1  21
ATOM     20  C   UNL     1      -0.019   1.526   0.010  0.00  0.00    +0.025 C 
ATOM     21  C   UNL     1       0.002  -0.004   0.002  0.00  0.00    +0.111 C 
ENDBRANCH   1  21
BRANCH  10  22
ATOM     22  C   UNL     1       5.636  -0.866  -0.160  0.00  0.00    +0.167 C 
BRANCH  22  23
ATOM     23  C   UNL     1       6.211  -2.259  -0.173  0.00  0.00    +0.234 C 
ATOM     24  O   UNL     1       5.604  -3.170   0.349  0.00  0.00    -0.274 OA
ATOM     25  N   UNL     1       7.399  -2.493  -0.765  0.00  0.00    -0.307 N 
ATOM     26  H   UNL     1       7.884  -1.764  -1.183  0.00  0.00    +0.149 HD
BRANCH  25  27
ATOM     27  C   UNL     1       7.957  -3.848  -0.778  0.00  0.00    +0.178 C 
BRANCH  27  28
ATOM     28  C   UNL     1       9.282  -3.838  -1.496  0.00  0.00    +0.122 A 
ATOM     29  C   UNL     1      10.484  -3.637  -0.926  0.00  0.00    +0.046 A 
ATOM     30  C   UNL     1      11.445  -3.711  -1.960  0.00  0.00    +0.041 A 
ATOM     31  C   UNL     1      10.773  -3.953  -3.100  0.00  0.00    +0.195 A 
ATOM     32  O   UNL     1       9.464  -4.035  -2.812  0.00  0.00    -0.466 OA
ENDBRANCH  27  28
ENDBRANCH  25  27
ENDBRANCH  22  23
BRANCH  22  33
ATOM     33  C   UNL     1       6.601   0.076   0.562  0.00  0.00    +0.067 C 
BRANCH  33  34
ATOM     34  C   UNL     1       6.087   1.490   0.469  0.00  0.00    -0.045 A 
ATOM     35  C   UNL     1       6.457   2.291  -0.595  0.00  0.00    +0.004 A 
ATOM     36  C   UNL     1       5.986   3.588  -0.681  0.00  0.00    +0.000 A 
ATOM     37  C   UNL     1       5.143   4.083   0.297  0.00  0.00    +0.000 A 
ATOM     38  C   UNL     1       4.772   3.281   1.360  0.00  0.00    +0.000 A 
ATOM     39  C   UNL     1       5.240   1.983   1.444  0.00  0.00    +0.004 A 
ENDBRANCH  33  34
ENDBRANCH  22  33
ENDBRANCH  10  22
TORSDOF 8
