REMARK  Name = ZINC48809182
REMARK  7 active torsions:
REMARK  status: ('A' for Active; 'I' for Inactive)
REMARK    1  A    between atoms: C_1  and  C_2
REMARK    2  A    between atoms: C_2  and  C_3
REMARK    3  A    between atoms: C_8  and  N_9
REMARK    4  A    between atoms: C_10  and  C_12
REMARK    5  A    between atoms: N_14  and  C_15
REMARK    6  A    between atoms: C_15  and  C_17
REMARK    7  A    between atoms: C_15  and  C_18
REMARK                            x       y       z     vdW  Elec       q    Type
REMARK                         _______ _______ _______ _____ _____    ______ ____
ROOT
ATOM      1  C   UNL     1      -1.459  -0.275  -4.851  0.00  0.00    +0.300 C 
ATOM      2  O   UNL     1      -0.320   0.145  -4.858  0.00  0.00    -0.265 OA
ATOM      3  N   UNL     1      -2.101  -0.502  -6.014  0.00  0.00    -0.301 N 
ATOM      4  H   UNL     1      -3.011  -0.838  -6.009  0.00  0.00    +0.150 HD
ENDROOT
BRANCH   1   6
ATOM      5  N   UNL     1      -1.507  -0.315  -2.390  0.00  0.00    -0.278 N 
ATOM      6  C   UNL     1      -2.149  -0.541  -3.553  0.00  0.00    +0.303 C 
ATOM      7  O   UNL     1      -3.287  -0.962  -3.546  0.00  0.00    -0.265 OA
ATOM      8  H   UNL     1      -0.622   0.082  -2.394  0.00  0.00    +0.155 HD
BRANCH   5  14
ATOM      9  C   UNL     1      -1.349  -1.121  -0.120  0.00  0.00    -0.026 A 
ATOM     10  C   UNL     1      -1.954  -1.448   1.078  0.00  0.00    +0.005 A 
ATOM     11  C   UNL     1      -3.322  -1.314   1.222  0.00  0.00    +0.000 A 
ATOM     12  C   UNL     1      -4.090  -0.853   0.168  0.00  0.00    +0.002 A 
ATOM     13  C   UNL     1      -3.492  -0.525  -1.032  0.00  0.00    +0.023 A 
ATOM     14  C   UNL     1      -2.116  -0.652  -1.179  0.00  0.00    +0.037 A 
BRANCH   9  16
ATOM     15  C   UNL     1       0.821   0.072   0.018  0.00  0.00    +0.009 C 
ATOM     16  C   UNL     1       0.143  -1.267  -0.277  0.00  0.00    +0.033 C 
ENDBRANCH   9  16
ENDBRANCH   5  14
ENDBRANCH   1   6
BRANCH   3  17
ATOM     17  C   UNL     1      -1.424  -0.241  -7.287  0.00  0.00    +0.102 C 
ATOM     18  C   UNL     1      -1.583   1.236  -7.656  0.00  0.00    +0.033 C 
BRANCH  17  19
ATOM     19  C   UNL     1      -2.036  -1.097  -8.366  0.00  0.00    -0.014 A 
ATOM     20  C   UNL     1      -3.339  -1.541  -8.240  0.00  0.00    +0.006 A 
ATOM     21  C   UNL     1      -3.900  -2.326  -9.230  0.00  0.00    +0.000 A 
ATOM     22  C   UNL     1      -3.159  -2.667 -10.346  0.00  0.00    +0.001 A 
ATOM     23  C   UNL     1      -1.856  -2.223 -10.473  0.00  0.00    +0.015 A 
ATOM     24  C   UNL     1      -1.296  -1.433  -9.485  0.00  0.00    +0.023 A 
ATOM     25 BR   UNL     1       0.484  -0.820  -9.661  0.00  0.00    -0.050 Br
ENDBRANCH  17  19
ENDBRANCH   3  17
TORSDOF 5
