REMARK  Name = ZINC39466527
REMARK  4 active torsions:
REMARK  status: ('A' for Active; 'I' for Inactive)
REMARK    1  A    between atoms: C_4  and  C_7
REMARK    2  A    between atoms: C_7  and  P_8
REMARK    3  A    between atoms: C_17  and  C_26
REMARK    4  A    between atoms: C_31  and  O_32
REMARK                            x       y       z     vdW  Elec       q    Type
REMARK                         _______ _______ _______ _____ _____    ______ ____
ROOT
ATOM      1  P   UNL     1       4.260  -1.012   1.674  0.00  0.00    +0.262 P 
ATOM      2  O   UNL     1       3.282  -1.870   2.380  0.00  0.00    -0.274 OA
ATOM      3  N   UNL     1       5.752  -1.716   1.680  0.00  0.00    -0.291 NA
ATOM      4  N   UNL     1       6.498  -1.631   2.837  0.00  0.00    +0.397 N 
ATOM      5  C   UNL     1       7.805  -2.232   2.523  0.00  0.00    -0.046 C 
ATOM      6  C   UNL     1       8.719  -2.214   3.741  0.00  0.00    +0.005 C 
ATOM      7  C   UNL     1       8.109  -3.001   4.869  0.00  0.00    -0.009 C 
ATOM      8  C   UNL     1       8.492  -2.762   6.120  0.00  0.00    +0.022 C 
ATOM      9  C   UNL     1       9.523  -1.733   6.380  0.00  0.00    -0.004 C 
ATOM     10  C   UNL     1       9.744  -0.772   5.469  0.00  0.00    -0.013 C 
ATOM     11  C   UNL     1       8.930  -0.767   4.198  0.00  0.00    +0.016 C 
ATOM     12  C   UNL     1       7.563  -0.142   4.479  0.00  0.00    -0.003 C 
ATOM     13  C   UNL     1       6.664  -0.233   3.240  0.00  0.00    -0.020 C 
ATOM     14  C   UNL     1       5.320   0.407   3.611  0.00  0.00    +0.156 C 
ATOM     15  O   UNL     1       4.449   0.397   2.466  0.00  0.00    -0.319 OA
ATOM     16 BR   UNL     1       7.726  -3.729   7.553  0.00  0.00    -0.050 Br
ATOM     17  H   UNL     1       6.094  -2.174   0.896  0.00  0.00    +0.111 HD
ATOM     18  H   UNL     1       6.042  -2.147   3.574  0.00  0.00    -0.055 HD
ENDROOT
BRANCH   9  19
ATOM     19  C   UNL     1      10.306  -1.762   7.639  0.00  0.00    +0.024 A 
ATOM     20  C   UNL     1      10.028  -0.854   8.658  0.00  0.00    +0.012 A 
ATOM     21  C   UNL     1      10.760  -0.886   9.828  0.00  0.00    +0.001 A 
ATOM     22  C   UNL     1      11.770  -1.817   9.992  0.00  0.00    +0.004 A 
ATOM     23  C   UNL     1      12.055  -2.722   8.988  0.00  0.00    +0.046 A 
ATOM     24  C   UNL     1      11.324  -2.705   7.811  0.00  0.00    +0.125 A 
BRANCH  24  25
ATOM     25  O   UNL     1      11.600  -3.598   6.824  0.00  0.00    -0.506 OA
ATOM     26  H   UNL     1      12.262  -3.292   6.190  0.00  0.00    +0.292 HD
ENDBRANCH  24  25
ENDBRANCH   9  19
BRANCH   1  27
ATOM     27  C   UNL     1       3.711  -0.707  -0.038  0.00  0.00    +0.147 C 
BRANCH  27  31
ATOM     28  C   UNL     1      -0.017   1.378   0.010  0.00  0.00    +0.000 A 
ATOM     29  C   UNL     1       1.171   2.086   0.002  0.00  0.00    +0.000 A 
ATOM     30  C   UNL     1       2.377   1.411  -0.013  0.00  0.00    +0.004 A 
ATOM     31  C   UNL     1       2.396   0.029  -0.020  0.00  0.00    -0.037 A 
ATOM     32  C   UNL     1       1.208  -0.679  -0.012  0.00  0.00    +0.004 A 
ATOM     33  C   UNL     1       0.002  -0.004   0.002  0.00  0.00    +0.000 A 
ENDBRANCH  27  31
ENDBRANCH   1  27
TORSDOF 4
