REMARK  Name = ZINC09783906
REMARK  15 active torsions:
REMARK  status: ('A' for Active; 'I' for Inactive)
REMARK    1  A    between atoms: C_1  and  C_2
REMARK    2  A    between atoms: C_2  and  C_3
REMARK    3  A    between atoms: C_3  and  C_5
REMARK    4  A    between atoms: C_3  and  O_6
REMARK    5  A    between atoms: O_6  and  C_7
REMARK    6  A    between atoms: C_7  and  C_9
REMARK    7  A    between atoms: C_9  and  C_10
REMARK    8  A    between atoms: N_17  and  C_18
REMARK    9  A    between atoms: C_18  and  N_20
REMARK   10  A    between atoms: C_21  and  C_23
REMARK   11  A    between atoms: C_28  and  O_29
REMARK   12  A    between atoms: O_29  and  C_30
REMARK   13  A    between atoms: C_30  and  C_31
REMARK   14  A    between atoms: C_31  and  C_32
REMARK   15  A    between atoms: C_31  and  C_33
REMARK                            x       y       z     vdW  Elec       q    Type
REMARK                         _______ _______ _______ _____ _____    ______ ____
ROOT
ATOM      1  C   UNL     1      -0.163   0.703   3.302  0.00  0.00    +0.140 C 
ATOM      2  S   UNL     1       0.751   0.501   4.736  0.00  0.00    -0.018 S 
ENDROOT
BRANCH   1   9
ATOM      3  C   UNL     1      -0.686   1.956   1.253  0.00  0.00    +0.171 C 
ATOM      4  C   UNL     1      -0.959   3.429   1.120  0.00  0.00    +0.234 C 
ATOM      5  O   UNL     1      -1.791   3.794   0.316  0.00  0.00    -0.274 OA
ATOM      6  N   UNL     1      -0.327   4.353   1.845  0.00  0.00    -0.312 N 
ATOM      7  C   UNL     1       0.627   4.062   2.907  0.00  0.00    +0.123 C 
ATOM      8  C   UNL     1       1.216   2.660   2.737  0.00  0.00    +0.126 C 
ATOM      9  N   UNL     1       0.110   1.726   2.468  0.00  0.00    -0.299 N 
ATOM     10  H   UNL     1      -0.517   5.285   1.653  0.00  0.00    +0.149 HD
BRANCH   3  11
ATOM     11  C   UNL     1       0.093   1.466   0.030  0.00  0.00    +0.152 C 
BRANCH  11  12
ATOM     12  C   UNL     1       0.224  -0.034   0.086  0.00  0.00    +0.310 C 
ATOM     13  O   UNL     1      -0.175  -0.640   1.052  0.00  0.00    -0.251 OA
BRANCH  12  14
ATOM     14  O   UNL     1       0.785  -0.697  -0.938  0.00  0.00    -0.462 OA
BRANCH  14  15
ATOM     15  C   UNL     1       0.879  -2.140  -0.816  0.00  0.00    +0.173 C 
ATOM     16  C   UNL     1      -0.383  -2.784  -1.394  0.00  0.00    +0.052 C 
BRANCH  15  18
ATOM     17  C   UNL     1       3.374  -2.094  -0.930  0.00  0.00    +0.007 C 
ATOM     18  C   UNL     1       2.104  -2.639  -1.585  0.00  0.00    +0.041 C 
ENDBRANCH  15  18
ENDBRANCH  14  15
ENDBRANCH  12  14
ENDBRANCH  11  12
ENDBRANCH   3  11
ENDBRANCH   1   9
BRANCH   1  19
ATOM     19  N   UNL     1      -1.154  -0.161   3.007  0.00  0.00    -0.264 N 
ATOM     20  C   UNL     1      -1.358  -1.244   3.784  0.00  0.00    +0.253 C 
ATOM     21  O   UNL     1      -0.648  -1.440   4.750  0.00  0.00    -0.270 OA
ATOM     22  H   UNL     1      -1.721  -0.004   2.235  0.00  0.00    +0.157 HD
BRANCH  20  23
ATOM     23  C   UNL     1      -2.442  -2.189   3.461  0.00  0.00    +0.080 A 
ATOM     24  C   UNL     1      -3.261  -1.967   2.350  0.00  0.00    +0.032 A 
ATOM     25  C   UNL     1      -4.273  -2.855   2.054  0.00  0.00    +0.019 A 
ATOM     26  C   UNL     1      -4.482  -3.968   2.853  0.00  0.00    +0.019 A 
ATOM     27  C   UNL     1      -3.681  -4.199   3.953  0.00  0.00    +0.047 A 
ATOM     28  C   UNL     1      -2.654  -3.319   4.263  0.00  0.00    +0.133 A 
ATOM     29 BR   UNL     1      -5.381  -2.552   0.552  0.00  0.00    -0.050 Br
BRANCH  28  30
ATOM     30  O   UNL     1      -1.862  -3.548   5.340  0.00  0.00    -0.491 OA
BRANCH  30  31
ATOM     31  C   UNL     1      -2.138  -4.720   6.110  0.00  0.00    +0.232 C 
BRANCH  31  32
ATOM     32  C   UNL     1      -1.149  -4.809   7.274  0.00  0.00    +0.020 C 
ATOM     33  C   UNL     1      -1.521  -5.993   8.169  0.00  0.00    +0.010 C 
ATOM     34  C   UNL     1       0.266  -5.008   6.727  0.00  0.00    +0.010 C 
ENDBRANCH  31  32
ENDBRANCH  30  31
ENDBRANCH  28  30
ENDBRANCH  20  23
ENDBRANCH   1  19
TORSDOF 11
