REMARK  Name = ZINC13005424
REMARK  12 active torsions:
REMARK  status: ('A' for Active; 'I' for Inactive)
REMARK    1  A    between atoms: C_1  and  C_2
REMARK    2  A    between atoms: C_2  and  C_3
REMARK    3  A    between atoms: C_3  and  C_4
REMARK    4  A    between atoms: C_3  and  C_5
REMARK    5  A    between atoms: C_3  and  N_59
REMARK    6  A    between atoms: C_6  and  C_7
REMARK    7  A    between atoms: C_6  and  N_59
REMARK    8  A    between atoms: N_9  and  C_10
REMARK    9  A    between atoms: C_13  and  S_16
REMARK   10  A    between atoms: S_16  and  N_19
REMARK   11  A    between atoms: C_21  and  C_28
REMARK   12  A    between atoms: C_24  and  C_27
REMARK                            x       y       z     vdW  Elec       q    Type
REMARK                         _______ _______ _______ _____ _____    ______ ____
ROOT
ATOM      1  C   UNL     1      -6.387   2.283   0.078  0.00  0.00    +0.033 A 
ATOM      2  C   UNL     1      -5.693   2.492   1.262  0.00  0.00    +0.025 A 
ATOM      3  C   UNL     1      -4.519   3.220   1.254  0.00  0.00    +0.030 A 
ATOM      4  C   UNL     1      -4.035   3.741   0.068  0.00  0.00    +0.106 A 
ATOM      5  C   UNL     1      -4.727   3.539  -1.113  0.00  0.00    +0.030 A 
ATOM      6  C   UNL     1      -5.898   2.807  -1.112  0.00  0.00    +0.025 A 
ENDROOT
BRANCH   1   9
ATOM      7  C   UNL     1      -8.398   1.600   1.149  0.00  0.00    +0.200 C 
ATOM      8  O   UNL     1      -8.157   2.360   2.062  0.00  0.00    -0.278 OA
ATOM      9  N   UNL     1      -7.576   1.545   0.083  0.00  0.00    -0.287 N 
ATOM     10  H   UNL     1      -7.808   0.995  -0.682  0.00  0.00    +0.155 HD
BRANCH   7  11
ATOM     11  C   UNL     1      -9.618   0.716   1.206  0.00  0.00    +0.016 C 
BRANCH  11  12
ATOM     12  N   UNL     1     -10.340   0.969   2.467  0.00  0.00    +0.388 N 
ATOM     13  H   UNL     1      -9.721   0.761   3.259  0.00  0.00    -0.084 HD
ATOM     14  H   UNL     1     -10.622   1.956   2.503  0.00  0.00    -0.084 HD
BRANCH  12  15
ATOM     15  C   UNL     1     -11.540   0.116   2.550  0.00  0.00    -0.074 C 
ATOM     16  C   UNL     1     -12.472   0.423   1.376  0.00  0.00    -0.010 C 
ATOM     17  C   UNL     1     -11.129  -1.357   2.502  0.00  0.00    -0.010 C 
BRANCH  15  19
ATOM     18  C   UNL     1     -13.514  -0.481   3.960  0.00  0.00    +0.002 C 
ATOM     19  C   UNL     1     -12.267   0.400   3.866  0.00  0.00    -0.016 C 
ENDBRANCH  15  19
ENDBRANCH  12  15
ENDBRANCH  11  12
ENDBRANCH   7  11
ENDBRANCH   1   9
BRANCH   4  20
ATOM     20  S   UNL     1      -2.538   4.669   0.062  0.00  0.00    +0.061 S 
ATOM     21  O   UNL     1      -2.373   5.183   1.376  0.00  0.00    -0.153 OA
ATOM     22  O   UNL     1      -2.585   5.509  -1.084  0.00  0.00    -0.153 OA
BRANCH  20  23
ATOM     23  N   UNL     1      -1.299   3.599  -0.187  0.00  0.00    -0.176 NA
ATOM     24  C   UNL     1      -0.847   3.280  -1.548  0.00  0.00    +0.112 C 
ATOM     25  C   UNL     1      -0.871   1.760  -1.733  0.00  0.00    +0.002 C 
ATOM     26  C   UNL     1      -0.045   1.102  -0.626  0.00  0.00    +0.009 C 
ATOM     27  C   UNL     1      -0.658   1.433   0.736  0.00  0.00    +0.002 C 
ATOM     28  C   UNL     1      -0.631   2.950   0.949  0.00  0.00    +0.112 C 
ATOM     29  C   UNL     1       0.149   0.748   1.841  0.00  0.00    +0.009 C 
ATOM     30  C   UNL     1      -2.316   1.260  -1.658  0.00  0.00    +0.009 C 
ENDBRANCH  20  23
ENDBRANCH   4  20
TORSDOF 7
