REMARK  Name = ZINC09223434
REMARK  7 active torsions:
REMARK  status: ('A' for Active; 'I' for Inactive)
REMARK    1  A    between atoms: C_1  and  O_2
REMARK    2  A    between atoms: O_2  and  C_3
REMARK    3  A    between atoms: C_8  and  N_9
REMARK    4  A    between atoms: N_9  and  C_10
REMARK    5  A    between atoms: N_9  and  S_24
REMARK    6  A    between atoms: C_10  and  C_11
REMARK    7  A    between atoms: S_24  and  C_27
REMARK                            x       y       z     vdW  Elec       q    Type
REMARK                         _______ _______ _______ _____ _____    ______ ____
ROOT
ATOM      1  N   UNL     1      -1.973   2.550   3.428  0.00  0.00    -0.190 N 
ENDROOT
BRANCH   1   7
ATOM      2  C   UNL     1      -0.787   2.893   1.346  0.00  0.00    +0.143 A 
ATOM      3  C   UNL     1      -0.260   3.751   0.396  0.00  0.00    +0.047 A 
ATOM      4  C   UNL     1      -0.368   5.119   0.562  0.00  0.00    +0.004 A 
ATOM      5  C   UNL     1      -1.003   5.636   1.677  0.00  0.00    +0.002 A 
ATOM      6  C   UNL     1      -1.533   4.786   2.630  0.00  0.00    +0.028 A 
ATOM      7  C   UNL     1      -1.432   3.412   2.467  0.00  0.00    +0.093 A 
BRANCH   2   9
ATOM      8  C   UNL     1      -0.013   1.086   0.008  0.00  0.00    +0.277 C 
ATOM      9  O   UNL     1      -0.682   1.547   1.184  0.00  0.00    -0.493 OA
ENDBRANCH   2   9
ENDBRANCH   1   7
BRANCH   1  10
ATOM     10  S   UNL     1      -1.013   1.954   4.638  0.00  0.00    +0.081 S 
ATOM     11  O   UNL     1      -1.539   0.679   4.983  0.00  0.00    -0.149 OA
ATOM     12  O   UNL     1       0.332   2.135   4.217  0.00  0.00    -0.149 OA
BRANCH  10  13
ATOM     13  C   UNL     1      -1.244   2.990   6.045  0.00  0.00    +0.146 A 
ATOM     14  C   UNL     1      -2.146   2.877   7.050  0.00  0.00    +0.036 A 
ATOM     15  C   UNL     1      -2.143   3.818   8.062  0.00  0.00    +0.010 A 
ATOM     16  C   UNL     1      -1.238   4.826   8.020  0.00  0.00    +0.047 A 
ATOM     17  S   UNL     1      -0.344   4.457   6.519  0.00  0.00    -0.077 S 
ENDBRANCH  10  13
ENDBRANCH   1  10
BRANCH   1  18
ATOM     18  C   UNL     1      -3.388   2.176   3.363  0.00  0.00    +0.227 C 
BRANCH  18  19
ATOM     19  C   UNL     1      -3.555   1.005   2.429  0.00  0.00    +0.239 C 
ATOM     20  O   UNL     1      -2.587   0.530   1.872  0.00  0.00    -0.273 OA
ATOM     21  N   UNL     1      -4.779   0.486   2.212  0.00  0.00    -0.259 N 
ATOM     22  C   UNL     1      -5.968   1.042   2.874  0.00  0.00    +0.209 C 
ATOM     23  C   UNL     1      -6.848  -0.090   3.338  0.00  0.00    +0.235 C 
ATOM     24  O   UNL     1      -7.555   0.061   4.312  0.00  0.00    -0.274 OA
ATOM     25  N   UNL     1      -6.859  -1.267   2.684  0.00  0.00    -0.283 N 
ATOM     26  C   UNL     1      -6.017  -1.485   1.589  0.00  0.00    +0.055 A 
ATOM     27  C   UNL     1      -4.962  -0.601   1.341  0.00  0.00    +0.058 A 
ATOM     28  C   UNL     1      -4.119  -0.801   0.263  0.00  0.00    +0.025 A 
ATOM     29  C   UNL     1      -4.328  -1.879  -0.579  0.00  0.00    +0.002 A 
ATOM     30  C   UNL     1      -5.374  -2.752  -0.345  0.00  0.00    +0.002 A 
ATOM     31  C   UNL     1      -6.218  -2.563   0.743  0.00  0.00    +0.025 A 
ATOM     32  H   UNL     1      -7.458  -1.972   2.976  0.00  0.00    +0.155 HD
ENDBRANCH  18  19
ENDBRANCH   1  18
TORSDOF 6
