REMARK  Name = ZINC59332584
REMARK  13 active torsions:
REMARK  status: ('A' for Active; 'I' for Inactive)
REMARK    1  A    between atoms: C_1  and  C_2
REMARK    2  A    between atoms: C_5  and  S_14
REMARK    3  A    between atoms: N_6  and  C_7
REMARK    4  A    between atoms: C_7  and  C_8
REMARK    5  A    between atoms: S_14  and  C_15
REMARK    6  A    between atoms: C_15  and  C_16
REMARK    7  A    between atoms: N_18  and  C_19
REMARK    8  A    between atoms: C_19  and  C_21
REMARK    9  A    between atoms: C_19  and  C_32
REMARK   10  A    between atoms: C_21  and  N_22
REMARK   11  A    between atoms: C_32  and  C_33
REMARK   12  A    between atoms: C_32  and  C_34
REMARK   13  A    between atoms: C_32  and  C_35
REMARK                            x       y       z     vdW  Elec       q    Type
REMARK                         _______ _______ _______ _____ _____    ______ ____
ROOT
ATOM      1  C   UNL     1       0.095  -6.239   0.999  0.00  0.00    +0.223 C 
ATOM      2  O   UNL     1       0.101  -6.300   2.211  0.00  0.00    -0.275 OA
ATOM      3  N   UNL     1       0.108  -7.370   0.267  0.00  0.00    -0.313 N 
ATOM      4  H   UNL     1       0.104  -7.321  -0.701  0.00  0.00    +0.149 HD
ENDROOT
BRANCH   1   5
ATOM      5  C   UNL     1       0.073  -4.897   0.313  0.00  0.00    +0.173 C 
BRANCH   5   6
ATOM      6  S   UNL     1       0.059  -3.580   1.560  0.00  0.00    -0.077 S 
BRANCH   6  11
ATOM      7  C   UNL     1      -0.018   1.503   0.010  0.00  0.00    +0.088 C 
ATOM      8  C   UNL     1       0.002  -0.004   0.002  0.00  0.00    +0.131 A 
ATOM      9  N   UNL     1       0.008  -0.770  -1.052  0.00  0.00    -0.134 NA
ATOM     10  N   UNL     1       0.027  -2.006  -0.699  0.00  0.00    -0.122 NA
ATOM     11  C   UNL     1       0.034  -2.095   0.611  0.00  0.00    +0.192 A 
ATOM     12  N   UNL     1       0.024  -0.820   1.099  0.00  0.00    -0.302 N 
BRANCH  12  13
ATOM     13  C   UNL     1       0.031  -0.411   2.506  0.00  0.00    +0.160 C 
BRANCH  13  14
ATOM     14  C   UNL     1      -1.388  -0.291   3.001  0.00  0.00    -0.028 A 
ATOM     15  C   UNL     1      -2.059   0.912   2.889  0.00  0.00    +0.005 A 
ATOM     16  C   UNL     1      -3.360   1.022   3.343  0.00  0.00    +0.000 A 
ATOM     17  C   UNL     1      -3.990  -0.071   3.909  0.00  0.00    +0.000 A 
ATOM     18  C   UNL     1      -3.318  -1.274   4.020  0.00  0.00    +0.000 A 
ATOM     19  C   UNL     1      -2.019  -1.386   3.562  0.00  0.00    +0.005 A 
ENDBRANCH  13  14
ENDBRANCH  12  13
ENDBRANCH   6  11
ENDBRANCH   5   6
ENDBRANCH   1   5
BRANCH   3  20
ATOM     20  C   UNL     1       0.130  -8.674   0.935  0.00  0.00    +0.062 C 
BRANCH  20  21
ATOM     21  C   UNL     1      -1.300  -9.091   1.285  0.00  0.00    -0.021 C 
ATOM     22  C   UNL     1      -2.131  -9.188   0.004  0.00  0.00    +0.012 C 
ATOM     23  C   UNL     1      -1.278 -10.453   1.982  0.00  0.00    +0.012 C 
ATOM     24  C   UNL     1      -1.921  -8.051   2.219  0.00  0.00    +0.012 C 
ENDBRANCH  20  21
BRANCH  20  25
ATOM     25  C   UNL     1       0.751  -9.715   0.001  0.00  0.00    -0.055 C 
BRANCH  25  26
ATOM     26  N   UNL     1       2.078  -9.256  -0.430  0.00  0.00    +0.384 N 
ATOM     27  C   UNL     1       2.630 -10.202  -1.412  0.00  0.00    -0.074 C 
ATOM     28  C   UNL     1       3.852  -9.562  -2.072  0.00  0.00    +0.017 C 
ATOM     29  C   UNL     1       4.793  -9.047  -1.012  0.00  0.00    -0.048 A 
ATOM     30  C   UNL     1       6.098  -8.747  -1.371  0.00  0.00    +0.004 A 
ATOM     31  C   UNL     1       6.987  -8.271  -0.428  0.00  0.00    +0.000 A 
ATOM     32  C   UNL     1       6.573  -8.090   0.879  0.00  0.00    +0.000 A 
ATOM     33  C   UNL     1       5.274  -8.389   1.236  0.00  0.00    +0.002 A 
ATOM     34  C   UNL     1       4.380  -8.870   0.291  0.00  0.00    -0.061 A 
ATOM     35  C   UNL     1       2.974  -9.191   0.727  0.00  0.00    -0.043 C 
ATOM     36  H   UNL     1       1.999  -8.341  -0.849  0.00  0.00    -0.081 HD
ENDBRANCH  25  26
ENDBRANCH  20  25
ENDBRANCH   3  20
TORSDOF 9
