REMARK  Name = ZINC58991675
REMARK  10 active torsions:
REMARK  status: ('A' for Active; 'I' for Inactive)
REMARK    1  A    between atoms: C_1  and  C_2
REMARK    2  A    between atoms: C_2  and  C_24
REMARK    3  A    between atoms: N_3  and  N_4
REMARK    4  A    between atoms: C_5  and  C_7
REMARK    5  A    between atoms: C_7  and  C_8
REMARK    6  A    between atoms: C_8  and  C_9
REMARK    7  A    between atoms: C_9  and  S_10
REMARK    8  A    between atoms: S_10  and  C_11
REMARK    9  A    between atoms: C_14  and  C_17
REMARK   10  A    between atoms: N_15  and  N_16
REMARK                            x       y       z     vdW  Elec       q    Type
REMARK                         _______ _______ _______ _____ _____    ______ ____
ROOT
ATOM      1  S   UNL     1       0.102  -1.329   8.673  0.00  0.00    -0.084 S 
ENDROOT
BRANCH   1   2
ATOM      2  C   UNL     1       0.102  -0.314  10.114  0.00  0.00    +0.209 A 
ATOM      3  N   UNL     1       0.079   1.000  10.142  0.00  0.00    -0.121 NA
ATOM      4  N   UNL     1       0.087   1.415  11.358  0.00  0.00    -0.127 NA
ATOM      5  C   UNL     1       0.115   0.393  12.181  0.00  0.00    +0.182 A 
ATOM      6  N   UNL     1       0.120  -0.746  11.409  0.00  0.00    -0.224 N 
BRANCH   5   7
ATOM      7  C   UNL     1       0.133   0.454  13.658  0.00  0.00    +0.021 A 
ATOM      8  C   UNL     1       0.481  -0.675  14.401  0.00  0.00    +0.013 A 
ATOM      9  C   UNL     1       0.496  -0.612  15.779  0.00  0.00    +0.016 A 
ATOM     10  C   UNL     1       0.165   0.568  16.425  0.00  0.00    +0.018 A 
ATOM     11  C   UNL     1      -0.182   1.690  15.692  0.00  0.00    +0.016 A 
ATOM     12  C   UNL     1      -0.193   1.642  14.314  0.00  0.00    +0.013 A 
ATOM     13 BR   UNL     1       0.187   0.645  18.314  0.00  0.00    -0.050 Br
ENDBRANCH   5   7
BRANCH   6  14
ATOM     14  N   UNL     1       0.142  -2.040  11.847  0.00  0.00    -0.295 N 
ATOM     15  H   UNL     1       1.089  -2.370  11.955  0.00  0.00    +0.163 HD
ATOM     16  H   UNL     1      -0.375  -2.139  12.708  0.00  0.00    +0.163 HD
ENDBRANCH   6  14
ENDBRANCH   1   2
BRANCH   1  17
ATOM     17  C   UNL     1       0.073  -0.143   7.301  0.00  0.00    +0.078 C 
BRANCH  17  18
ATOM     18  C   UNL     1       0.071  -0.900   5.972  0.00  0.00    +0.020 C 
BRANCH  18  19
ATOM     19  C   UNL     1       0.046   0.100   4.814  0.00  0.00    +0.098 C 
BRANCH  19  21
ATOM     20  N   UNL     1       0.024   0.034   2.342  0.00  0.00    -0.207 N 
ATOM     21  C   UNL     1       0.044  -0.646   3.505  0.00  0.00    +0.232 C 
ATOM     22  O   UNL     1       0.060  -1.860   3.499  0.00  0.00    -0.274 OA
ATOM     23  H   UNL     1       0.011   1.003   2.347  0.00  0.00    +0.177 HD
BRANCH  20  26
ATOM     24  C   UNL     1      -0.018   1.503   0.010  0.00  0.00    +0.068 C 
ATOM     25  C   UNL     1       0.002  -0.004   0.002  0.00  0.00    +0.070 C 
ATOM     26  N   UNL     1       0.022  -0.660   1.125  0.00  0.00    -0.184 NA
BRANCH  25  27
ATOM     27  C   UNL     1      -0.000  -0.730  -1.272  0.00  0.00    +0.035 A 
ATOM     28  C   UNL     1       0.011  -2.096  -1.498  0.00  0.00    +0.017 A 
ATOM     29  C   UNL     1       0.006  -2.543  -2.799  0.00  0.00    +0.008 A 
ATOM     30  C   UNL     1      -0.009  -1.639  -3.813  0.00  0.00    +0.046 A 
ATOM     31  S   UNL     1      -0.025  -0.084  -2.936  0.00  0.00    -0.095 S 
ENDBRANCH  25  27
ENDBRANCH  20  26
ENDBRANCH  19  21
ENDBRANCH  18  19
ENDBRANCH  17  18
ENDBRANCH   1  17
TORSDOF 9
