REMARK  Name = ZINC39601337
REMARK  7 active torsions:
REMARK  status: ('A' for Active; 'I' for Inactive)
REMARK    1  A    between atoms: C_1  and  C_2
REMARK    2  A    between atoms: C_2  and  C_3
REMARK    3  A    between atoms: C_2  and  C_4
REMARK    4  A    between atoms: C_4  and  C_5
REMARK    5  A    between atoms: C_5  and  N_6
REMARK    6  A    between atoms: C_7  and  C_9
REMARK    7  A    between atoms: C_20  and  C_22
REMARK                            x       y       z     vdW  Elec       q    Type
REMARK                         _______ _______ _______ _____ _____    ______ ____
ROOT
ATOM      1  C   UNL     1       0.888  -0.881   6.133  0.00  0.00    +0.100 C 
ATOM      2  C   UNL     1       0.857  -2.425   6.184  0.00  0.00    +0.121 C 
ATOM      3  N   UNL     1       0.704  -2.749   7.622  0.00  0.00    -0.297 N 
ATOM      4  C   UNL     1      -0.245  -1.731   8.130  0.00  0.00    +0.115 C 
ATOM      5  C   UNL     1       0.163  -0.429   7.411  0.00  0.00    -0.004 C 
ATOM      6  C   UNL     1       1.104   0.387   8.292  0.00  0.00    -0.010 C 
ATOM      7  C   UNL     1       0.344   0.873   9.530  0.00  0.00    -0.082 C 
ATOM      8  N   UNL     1      -0.801   1.691   9.113  0.00  0.00    +0.379 N 
ATOM      9  C   UNL     1      -1.747   0.874   8.344  0.00  0.00    -0.082 C 
ATOM     10  C   UNL     1      -1.076   0.388   7.056  0.00  0.00    -0.010 C 
ATOM     11  C   UNL     1       1.294  -3.745   8.312  0.00  0.00    +0.260 C 
ATOM     12  O   UNL     1       1.065  -3.882   9.495  0.00  0.00    -0.271 OA
ATOM     13  H   UNL     1      -1.264   2.060   9.930  0.00  0.00    -0.086 HD
ATOM     14  H   UNL     1      -0.476   2.455   8.540  0.00  0.00    -0.086 HD
ENDROOT
BRANCH  11  15
ATOM     15  C   UNL     1       2.239  -4.689   7.613  0.00  0.00    +0.296 C 
ATOM     16  C   UNL     1       1.471  -5.515   6.573  0.00  0.00    +0.283 C 
ATOM     17  O   UNL     1       2.393  -6.408   5.939  0.00  0.00    -0.484 OA
ATOM     18  C   UNL     1       3.238  -7.095   6.756  0.00  0.00    +0.162 A 
ATOM     19  C   UNL     1       3.891  -8.218   6.270  0.00  0.00    +0.049 A 
ATOM     20  C   UNL     1       4.755  -8.924   7.086  0.00  0.00    +0.004 A 
ATOM     21  C   UNL     1       4.970  -8.513   8.388  0.00  0.00    +0.004 A 
ATOM     22  C   UNL     1       4.321  -7.395   8.879  0.00  0.00    +0.049 A 
ATOM     23  C   UNL     1       3.452  -6.683   8.066  0.00  0.00    +0.163 A 
ATOM     24  O   UNL     1       2.815  -5.589   8.566  0.00  0.00    -0.473 OA
ENDBRANCH  11  15
BRANCH   1  26
ATOM     25  N   UNL     1       0.514   0.789   4.347  0.00  0.00    -0.315 N 
ATOM     26  C   UNL     1       0.159  -0.382   4.912  0.00  0.00    +0.218 C 
ATOM     27  O   UNL     1      -0.747  -1.034   4.437  0.00  0.00    -0.275 OA
ATOM     28  H   UNL     1       1.238   1.311   4.727  0.00  0.00    +0.149 HD
BRANCH  25  29
ATOM     29  C   UNL     1      -0.195   1.274   3.160  0.00  0.00    +0.104 C 
BRANCH  29  30
ATOM     30  C   UNL     1       0.400   2.615   2.724  0.00  0.00    +0.022 C 
BRANCH  30  32
ATOM     31  C   UNL     1      -1.796   3.423   1.847  0.00  0.00    +0.007 C 
ATOM     32  C   UNL     1      -0.340   3.122   1.484  0.00  0.00    -0.016 C 
ATOM     33  C   UNL     1       0.333   4.398   0.975  0.00  0.00    +0.007 C 
ENDBRANCH  30  32
ENDBRANCH  29  30
ENDBRANCH  25  29
ENDBRANCH   1  26
TORSDOF 5
