REMARK  Name = ZINC36562473
REMARK  20 active torsions:
REMARK  status: ('A' for Active; 'I' for Inactive)
REMARK    1  A    between atoms: C_1  and  C_2
REMARK    2  A    between atoms: C_2  and  C_3
REMARK    3  A    between atoms: C_3  and  N_4
REMARK    4  A    between atoms: N_4  and  C_5
REMARK    5  A    between atoms: C_5  and  C_7
REMARK    6  A    between atoms: C_5  and  C_16
REMARK    7  A    between atoms: C_8  and  O_15
REMARK    8  A    between atoms: C_10  and  O_14
REMARK    9  A    between atoms: C_12  and  O_13
REMARK   10  A    between atoms: N_18  and  C_19
REMARK   11  A    between atoms: C_19  and  C_20
REMARK   12  A    between atoms: C_19  and  C_21
REMARK   13  A    between atoms: C_19  and  C_22
REMARK   14  A    between atoms: C_22  and  C_23
REMARK   15  A    between atoms: C_23  and  C_24
REMARK   16  A    between atoms: C_23  and  C_25
REMARK   17  A    between atoms: C_23  and  C_26
REMARK   18  A    between atoms: C_27  and  C_29
REMARK   19  A    between atoms: C_29  and  C_30
REMARK   20  A    between atoms: C_30  and  C_31
REMARK                            x       y       z     vdW  Elec       q    Type
REMARK                         _______ _______ _______ _____ _____    ______ ____
ROOT
ATOM      1  C   UNL     1      -1.851  -1.766   1.704  0.00  0.00    +0.199 C 
ENDROOT
BRANCH   1   2
ATOM      2  C   UNL     1      -0.835  -1.061   2.565  0.00  0.00    +0.065 A 
ATOM      3  C   UNL     1      -0.374  -1.662   3.726  0.00  0.00    +0.129 A 
ATOM      4  C   UNL     1       0.562  -1.014   4.519  0.00  0.00    +0.091 A 
ATOM      5  C   UNL     1       1.036   0.236   4.149  0.00  0.00    +0.124 A 
ATOM      6  C   UNL     1       0.576   0.837   2.987  0.00  0.00    +0.091 A 
ATOM      7  C   UNL     1      -0.356   0.186   2.193  0.00  0.00    +0.129 A 
BRANCH   7   8
ATOM      8  O   UNL     1      -0.803   0.773   1.052  0.00  0.00    -0.506 OA
ATOM      9  H   UNL     1      -1.445   1.481   1.199  0.00  0.00    +0.292 HD
ENDBRANCH   7   8
BRANCH   5  10
ATOM     10  O   UNL     1       1.952   0.872   4.926  0.00  0.00    -0.507 OA
ATOM     11  H   UNL     1       2.870   0.673   4.695  0.00  0.00    +0.292 HD
ENDBRANCH   5  10
BRANCH   3  12
ATOM     12  O   UNL     1      -0.839  -2.887   4.088  0.00  0.00    -0.506 OA
ATOM     13  H   UNL     1      -0.279  -3.621   3.801  0.00  0.00    +0.292 HD
ENDBRANCH   3  12
ENDBRANCH   1   2
BRANCH   1  14
ATOM     14  C   UNL     1      -3.210  -1.153   1.927  0.00  0.00    +0.239 C 
ATOM     15  O   UNL     1      -4.007  -1.098   1.015  0.00  0.00    -0.273 OA
ATOM     16  N   UNL     1      -3.538  -0.667   3.140  0.00  0.00    -0.308 N 
ATOM     17  H   UNL     1      -2.864  -0.596   3.833  0.00  0.00    +0.149 HD
BRANCH  16  18
ATOM     18  C   UNL     1      -4.915  -0.246   3.412  0.00  0.00    +0.030 C 
ATOM     19  C   UNL     1      -5.241   0.998   2.584  0.00  0.00    +0.031 C 
ATOM     20  C   UNL     1      -5.877  -1.375   3.037  0.00  0.00    +0.031 C 
BRANCH  18  21
ATOM     21  C   UNL     1      -5.065   0.077   4.900  0.00  0.00    +0.031 C 
BRANCH  21  22
ATOM     22  C   UNL     1      -4.856  -1.196   5.723  0.00  0.00    -0.036 C 
ATOM     23  C   UNL     1      -3.595  -1.915   5.238  0.00  0.00    +0.010 C 
ATOM     24  C   UNL     1      -4.698  -0.828   7.199  0.00  0.00    +0.010 C 
ATOM     25  C   UNL     1      -6.066  -2.117   5.553  0.00  0.00    +0.010 C 
ENDBRANCH  21  22
ENDBRANCH  18  21
ENDBRANCH  16  18
ENDBRANCH   1  14
BRANCH   1  26
ATOM     26  N   UNL     1      -1.478  -1.626   0.294  0.00  0.00    -0.286 N 
ATOM     27  C   UNL     1      -1.885  -0.549  -0.407  0.00  0.00    +0.216 C 
ATOM     28  O   UNL     1      -2.591   0.286   0.119  0.00  0.00    -0.276 OA
BRANCH  26  29
ATOM     29  C   UNL     1      -0.662  -2.656  -0.353  0.00  0.00    +0.108 C 
BRANCH  29  31
ATOM     30  C   UNL     1      -0.722  -4.663  -1.840  0.00  0.00    +0.005 C 
ATOM     31  C   UNL     1      -1.575  -3.660  -1.060  0.00  0.00    +0.016 C 
ENDBRANCH  29  31
ENDBRANCH  26  29
BRANCH  27  32
ATOM     32  C   UNL     1      -1.465  -0.383  -1.845  0.00  0.00    +0.096 C 
BRANCH  32  33
ATOM     33  C   UNL     1      -2.059   0.912  -2.403  0.00  0.00    +0.013 C 
BRANCH  33  34
ATOM     34  C   UNL     1      -1.632   1.080  -3.863  0.00  0.00    -0.011 C 
ATOM     35  C   UNL     1      -0.115   1.268  -3.932  0.00  0.00    +0.003 C 
ATOM     36  C   UNL     1       0.312   1.436  -5.392  0.00  0.00    +0.000 C 
ATOM     37  C   UNL     1      -0.382   2.663  -5.987  0.00  0.00    +0.000 C 
ATOM     38  C   UNL     1      -1.898   2.476  -5.918  0.00  0.00    +0.000 C 
ATOM     39  C   UNL     1      -2.325   2.307  -4.458  0.00  0.00    +0.003 C 
ENDBRANCH  33  34
ENDBRANCH  32  33
ENDBRANCH  27  32
ENDBRANCH   1  26
TORSDOF 14
