REMARK  Name = ZINC16652055
REMARK  6 active torsions:
REMARK  status: ('A' for Active; 'I' for Inactive)
REMARK    1  A    between atoms: C_1  and  C_2
REMARK    2  A    between atoms: C_5  and  C_12
REMARK    3  A    between atoms: C_7  and  S_8
REMARK    4  A    between atoms: S_8  and  N_11
REMARK    5  A    between atoms: N_18  and  C_19
REMARK    6  A    between atoms: C_25  and  C_27
REMARK                            x       y       z     vdW  Elec       q    Type
REMARK                         _______ _______ _______ _____ _____    ______ ____
ROOT
ATOM      1  C   UNL     1      -1.692   6.140   2.863  0.00  0.00    +0.093 A 
ATOM      2  C   UNL     1      -1.677   6.806   4.093  0.00  0.00    +0.033 A 
ATOM      3  C   UNL     1      -1.692   8.189   4.082  0.00  0.00    +0.047 A 
ATOM      4  C   UNL     1      -1.722   8.834   2.844  0.00  0.00    +0.141 A 
ATOM      5  N   UNL     1      -1.734   8.121   1.728  0.00  0.00    -0.134 NA
ATOM      6  N   UNL     1      -1.714   6.838   1.736  0.00  0.00    -0.147 NA
ATOM      7  N   UNL     1      -1.739  10.223   2.784  0.00  0.00    -0.325 N 
ATOM      8  H   UNL     1      -1.760  10.670   1.923  0.00  0.00    +0.148 HD
ENDROOT
BRANCH   1  13
ATOM      9  C   UNL     1      -1.631   0.384   2.695  0.00  0.00    +0.046 C 
ATOM     10  C   UNL     1      -1.647   1.890   2.739  0.00  0.00    -0.024 A 
ATOM     11  C   UNL     1      -1.736   2.543   3.955  0.00  0.00    +0.006 A 
ATOM     12  C   UNL     1      -1.751   3.922   4.002  0.00  0.00    +0.010 A 
ATOM     13  C   UNL     1      -1.676   4.657   2.820  0.00  0.00    +0.004 A 
ATOM     14  C   UNL     1      -1.580   3.994   1.598  0.00  0.00    +0.038 A 
ATOM     15  C   UNL     1      -1.571   2.614   1.563  0.00  0.00    +0.109 A 
BRANCH  15  16
ATOM     16  S   UNL     1      -1.456   1.774   0.019  0.00  0.00    +0.056 S 
ATOM     17  O   UNL     1      -1.368   2.777  -0.984  0.00  0.00    -0.153 OA
ATOM     18  O   UNL     1      -2.475   0.784   0.018  0.00  0.00    -0.153 OA
BRANCH  16  19
ATOM     19  N   UNL     1      -0.011   0.966   0.007  0.00  0.00    -0.204 NA
ATOM     20  H   UNL     1       0.002  -0.004   0.002  0.00  0.00    +0.144 HD
ATOM     21  H   UNL     1       0.822   1.462   0.002  0.00  0.00    +0.144 HD
ENDBRANCH  16  19
ENDBRANCH  15  16
ENDBRANCH   1  13
BRANCH   7  22
ATOM     22  C   UNL     1      -1.726  11.010   4.019  0.00  0.00    +0.075 C 
ATOM     23  C   UNL     1      -3.155  11.162   4.543  0.00  0.00    +0.022 C 
ATOM     24  C   UNL     1      -4.010  11.874   3.493  0.00  0.00    +0.002 C 
ATOM     25  C   UNL     1      -3.421  13.258   3.209  0.00  0.00    +0.000 C 
ATOM     26  C   UNL     1      -1.992  13.106   2.686  0.00  0.00    +0.005 C 
ATOM     27  C   UNL     1      -1.137  12.394   3.736  0.00  0.00    +0.006 C 
ATOM     28  C   UNL     1       0.293  12.242   3.212  0.00  0.00    +0.009 C 
ENDBRANCH   7  22
TORSDOF 4
