REMARK  Name = ZINC39533259
REMARK  13 active torsions:
REMARK  status: ('A' for Active; 'I' for Inactive)
REMARK    1  A    between atoms: C_1  and  C_2
REMARK    2  A    between atoms: C_2  and  C_3
REMARK    3  A    between atoms: C_3  and  C_4
REMARK    4  A    between atoms: C_7  and  C_10
REMARK    5  A    between atoms: C_10  and  C_12
REMARK    6  A    between atoms: C_10  and  N_17
REMARK    7  A    between atoms: C_12  and  N_13
REMARK    8  A    between atoms: N_13  and  O_14
REMARK    9  A    between atoms: O_14  and  C_15
REMARK   10  A    between atoms: C_15  and  C_16
REMARK   11  A    between atoms: C_21  and  S_24
REMARK   12  A    between atoms: S_24  and  O_27
REMARK   13  A    between atoms: O_27  and  C_28
REMARK                            x       y       z     vdW  Elec       q    Type
REMARK                         _______ _______ _______ _____ _____    ______ ____
ROOT
ATOM      1  N   UNL     1       2.136  -6.779   1.415  0.00  0.00    -0.296 NA
ATOM      2  C   UNL     1       2.882  -6.753   0.148  0.00  0.00    +0.066 C 
ATOM      3  C   UNL     1       4.323  -7.202   0.399  0.00  0.00    -0.064 C 
ATOM      4  N   UNL     1       4.323  -8.559   0.960  0.00  0.00    +0.398 N 
ATOM      5  C   UNL     1       3.597  -8.564   2.236  0.00  0.00    +0.130 C 
ATOM      6  C   UNL     1       2.149  -8.127   2.001  0.00  0.00    +0.095 C 
ATOM      7  H   UNL     1       3.872  -9.190   0.314  0.00  0.00    -0.083 HD
ATOM      8  H   UNL     1       5.274  -8.859   1.113  0.00  0.00    -0.083 HD
ENDROOT
BRANCH   5   9
ATOM      9  S   UNL     1       3.617 -10.237   2.937  0.00  0.00    +0.109 S 
ATOM     10  O   UNL     1       3.076 -10.223   4.251  0.00  0.00    -0.138 OA
ATOM     11  O   UNL     1       3.158 -11.176   1.975  0.00  0.00    -0.138 OA
BRANCH   9  12
ATOM     12  O   UNL     1       5.091 -10.563   3.128  0.00  0.00    -0.347 OA
BRANCH  12  13
ATOM     13  C   UNL     1       5.665  -9.931   4.184  0.00  0.00    +0.156 A 
ATOM     14  C   UNL     1       6.250  -8.684   4.014  0.00  0.00    +0.048 A 
ATOM     15  C   UNL     1       6.833  -8.043   5.090  0.00  0.00    +0.004 A 
ATOM     16  C   UNL     1       6.834  -8.643   6.336  0.00  0.00    +0.000 A 
ATOM     17  C   UNL     1       6.253  -9.886   6.508  0.00  0.00    +0.004 A 
ATOM     18  C   UNL     1       5.663 -10.528   5.437  0.00  0.00    +0.048 A 
ENDBRANCH  12  13
ENDBRANCH   9  12
ENDBRANCH   5   9
BRANCH   1  19
ATOM     19  C   UNL     1       0.761  -6.300   1.226  0.00  0.00    +0.103 C 
BRANCH  19  23
ATOM     20  C   UNL     1       0.693  -2.035   1.465  0.00  0.00    -0.047 A 
ATOM     21  C   UNL     1      -0.473  -2.756   1.644  0.00  0.00    +0.004 A 
ATOM     22  C   UNL     1      -0.451  -4.136   1.566  0.00  0.00    +0.005 A 
ATOM     23  C   UNL     1       0.737  -4.795   1.310  0.00  0.00    -0.029 A 
ATOM     24  C   UNL     1       1.903  -4.074   1.130  0.00  0.00    +0.005 A 
ATOM     25  C   UNL     1       1.880  -2.694   1.204  0.00  0.00    +0.004 A 
BRANCH  20  26
ATOM     26  C   UNL     1       0.669  -0.531   1.550  0.00  0.00    +0.035 C 
BRANCH  26  28
ATOM     27  C   UNL     1       0.367   1.581   0.249  0.00  0.00    +0.004 C 
ATOM     28  C   UNL     1       0.391   0.054   0.163  0.00  0.00    +0.001 C 
ENDBRANCH  26  28
ENDBRANCH  20  26
ENDBRANCH  19  23
BRANCH  19  29
ATOM     29  C   UNL     1       0.250  -6.742  -0.147  0.00  0.00    +0.134 C 
BRANCH  29  30
ATOM     30  N   UNL     1       0.269  -8.209  -0.226  0.00  0.00    -0.199 NA
ATOM     31  H   UNL     1       1.211  -8.563  -0.156  0.00  0.00    +0.154 HD
BRANCH  30  32
ATOM     32  O   UNL     1      -0.376  -8.676  -1.454  0.00  0.00    -0.300 OA
BRANCH  32  33
ATOM     33  C   UNL     1      -0.394 -10.098  -1.597  0.00  0.00    +0.182 C 
ATOM     34  C   UNL     1      -1.089 -10.470  -2.908  0.00  0.00    +0.036 C 
ENDBRANCH  32  33
ENDBRANCH  30  32
ENDBRANCH  29  30
ENDBRANCH  19  29
ENDBRANCH   1  19
TORSDOF 11
