REMARK  Name = ZINC62855644
REMARK  5 active torsions:
REMARK  status: ('A' for Active; 'I' for Inactive)
REMARK    1  A    between atoms: C_1  and  C_2
REMARK    2  A    between atoms: C_2  and  C_8
REMARK    3  A    between atoms: N_10  and  C_11
REMARK    4  A    between atoms: C_14  and  S_18
REMARK    5  A    between atoms: S_18  and  N_21
REMARK                            x       y       z     vdW  Elec       q    Type
REMARK                         _______ _______ _______ _____ _____    ______ ____
ROOT
ATOM      1  C   UNL     1       0.707  -0.488  -1.238  0.00  0.00    +0.221 C 
ATOM      2  O   UNL     1       1.700  -1.178  -1.141  0.00  0.00    -0.275 OA
ATOM      3  N   UNL     1       0.227  -0.166  -2.456  0.00  0.00    -0.284 N 
ATOM      4  H   UNL     1      -0.610   0.318  -2.535  0.00  0.00    +0.155 HD
ENDROOT
BRANCH   1   6
ATOM      5  C   UNL     1      -0.002   1.539   0.003  0.00  0.00    +0.019 C 
ATOM      6  C   UNL     1       0.010   0.009   0.002  0.00  0.00    +0.029 C 
ATOM      7  C   UNL     1      -1.429  -0.514   0.025  0.00  0.00    +0.012 C 
ATOM      8  C   UNL     1      -1.405  -2.043   0.103  0.00  0.00    -0.018 C 
ATOM      9  C   UNL     1      -0.612  -2.473   1.339  0.00  0.00    -0.083 C 
ATOM     10  N   UNL     1       0.762  -1.965   1.244  0.00  0.00    +0.380 N 
ATOM     11  C   UNL     1       0.751  -0.497   1.242  0.00  0.00    -0.067 C 
ATOM     12  H   UNL     1       1.296  -2.295   2.034  0.00  0.00    -0.086 HD
ATOM     13  H   UNL     1       1.185  -2.299   0.391  0.00  0.00    -0.086 HD
ENDBRANCH   1   6
BRANCH   3  14
ATOM     14  C   UNL     1       0.937  -0.528  -3.607  0.00  0.00    +0.048 A 
ATOM     15  C   UNL     1       2.308  -0.736  -3.542  0.00  0.00    +0.026 A 
ATOM     16  C   UNL     1       3.006  -1.094  -4.679  0.00  0.00    +0.030 A 
ATOM     17  C   UNL     1       2.340  -1.246  -5.881  0.00  0.00    +0.106 A 
ATOM     18  C   UNL     1       0.975  -1.040  -5.950  0.00  0.00    +0.045 A 
ATOM     19  C   UNL     1       0.270  -0.688  -4.815  0.00  0.00    +0.041 A 
ATOM     20 BR   UNL     1      -1.599  -0.414  -4.908  0.00  0.00    -0.048 Br
BRANCH  17  21
ATOM     21  S   UNL     1       3.234  -1.703  -7.329  0.00  0.00    +0.056 S 
ATOM     22  O   UNL     1       2.470  -1.249  -8.438  0.00  0.00    -0.153 OA
ATOM     23  O   UNL     1       4.581  -1.304  -7.117  0.00  0.00    -0.153 OA
BRANCH  21  24
ATOM     24  N   UNL     1       3.236  -3.357  -7.402  0.00  0.00    -0.204 NA
ATOM     25  H   UNL     1       2.791  -3.874  -6.712  0.00  0.00    +0.144 HD
ATOM     26  H   UNL     1       3.683  -3.810  -8.134  0.00  0.00    +0.144 HD
ENDBRANCH  21  24
ENDBRANCH  17  21
ENDBRANCH   3  14
TORSDOF 4
