REMARK  Name = ZINC11880951
REMARK  9 active torsions:
REMARK  status: ('A' for Active; 'I' for Inactive)
REMARK    1  A    between atoms: C_1  and  C_2
REMARK    2  A    between atoms: C_2  and  C_3
REMARK    3  A    between atoms: C_2  and  C_4
REMARK    4  A    between atoms: C_4  and  N_5
REMARK    5  A    between atoms: C_8  and  C_12
REMARK    6  A    between atoms: C_8  and  C_20
REMARK    7  A    between atoms: C_12  and  C_13
REMARK    8  A    between atoms: C_25  and  C_26
REMARK    9  A    between atoms: C_25  and  N_64
REMARK                            x       y       z     vdW  Elec       q    Type
REMARK                         _______ _______ _______ _____ _____    ______ ____
ROOT
ATOM      1  N   UNL     1       0.920   7.521   5.920  0.00  0.00    -0.224 N 
ATOM      2  C   UNL     1      -0.176   7.458   5.133  0.00  0.00    +0.247 C 
ATOM      3  O   UNL     1      -0.803   8.387   4.671  0.00  0.00    -0.273 OA
ATOM      4  C   UNL     1      -0.458   5.980   4.948  0.00  0.00    +0.119 C 
ATOM      5  N   UNL     1       0.607   5.321   5.724  0.00  0.00    -0.284 N 
ATOM      6  C   UNL     1       1.360   6.302   6.253  0.00  0.00    +0.309 C 
ATOM      7  O   UNL     1       2.332   6.103   6.956  0.00  0.00    -0.252 OA
ATOM      8  H   UNL     1       0.738   4.366   5.832  0.00  0.00    +0.151 HD
ENDROOT
BRANCH   4   9
ATOM      9  C   UNL     1      -0.364   5.596   3.470  0.00  0.00    +0.018 C 
ATOM     10  C   UNL     1       1.021   5.966   2.932  0.00  0.00    -0.013 C 
ATOM     11  C   UNL     1       1.130   5.525   1.471  0.00  0.00    -0.078 C 
ATOM     12  C   UNL     1      -0.420   3.701   1.845  0.00  0.00    -0.078 C 
ATOM     13  C   UNL     1      -0.576   4.087   3.318  0.00  0.00    -0.013 C 
ATOM     14  N   UNL     1       0.941   4.061   1.396  0.00  0.00    +0.382 N 
ATOM     15  H   UNL     1       1.626   3.605   2.010  0.00  0.00    -0.081 HD
BRANCH  14  16
ATOM     16  C   UNL     1       1.155   3.595   0.010  0.00  0.00    -0.040 C 
BRANCH  16  17
ATOM     17  C   UNL     1       1.173   2.088   0.002  0.00  0.00    -0.029 A 
ATOM     18  C   UNL     1       2.379   1.412  -0.013  0.00  0.00    +0.004 A 
ATOM     19  C   UNL     1       2.396   0.029  -0.021  0.00  0.00    +0.000 A 
ATOM     20  C   UNL     1       1.208  -0.678  -0.013  0.00  0.00    +0.003 A 
ATOM     21  C   UNL     1       0.002  -0.004   0.002  0.00  0.00    +0.038 A 
ATOM     22  C   UNL     1      -0.017   1.381   0.010  0.00  0.00    +0.125 A 
ATOM     23  F   UNL     1      -1.196   2.041   0.019  0.00  0.00    -0.205 F 
ENDBRANCH  16  17
ENDBRANCH  14  16
ENDBRANCH   4   9
BRANCH   1  24
ATOM     24  C   UNL     1       1.550   8.770   6.356  0.00  0.00    +0.121 C 
BRANCH  24  26
ATOM     25  C   UNL     1       1.937   9.518   4.003  0.00  0.00    +0.009 C 
ATOM     26  C   UNL     1       2.611   9.188   5.337  0.00  0.00    +0.001 C 
ATOM     27  C   UNL     1       3.354  10.423   5.852  0.00  0.00    +0.009 C 
ENDBRANCH  24  26
ENDBRANCH   1  24
BRANCH   4  28
ATOM     28  C   UNL     1      -1.835   5.620   5.509  0.00  0.00    +0.070 C 
BRANCH  28  29
ATOM     29  C   UNL     1      -1.901   6.009   6.964  0.00  0.00    -0.042 A 
ATOM     30  C   UNL     1      -2.341   7.270   7.323  0.00  0.00    +0.004 A 
ATOM     31  C   UNL     1      -2.402   7.627   8.657  0.00  0.00    +0.003 A 
ATOM     32  C   UNL     1      -2.025   6.724   9.633  0.00  0.00    +0.038 A 
ATOM     33  C   UNL     1      -1.585   5.462   9.275  0.00  0.00    +0.124 A 
ATOM     34  C   UNL     1      -1.529   5.103   7.938  0.00  0.00    +0.042 A 
ATOM     35  F   UNL     1      -1.216   4.578  10.228  0.00  0.00    -0.205 F 
ENDBRANCH  28  29
ENDBRANCH   4  28
TORSDOF 7
