REMARK  Name = ZINC47244522
REMARK  8 active torsions:
REMARK  status: ('A' for Active; 'I' for Inactive)
REMARK    1  A    between atoms: C_1  and  C_2
REMARK    2  A    between atoms: C_2  and  C_3
REMARK    3  A    between atoms: C_2  and  C_4
REMARK    4  A    between atoms: C_7  and  C_10
REMARK    5  A    between atoms: N_12  and  C_13
REMARK    6  A    between atoms: C_14  and  C_18
REMARK    7  A    between atoms: N_20  and  C_21
REMARK    8  A    between atoms: C_21  and  C_22
REMARK                            x       y       z     vdW  Elec       q    Type
REMARK                         _______ _______ _______ _____ _____    ______ ____
ROOT
ATOM      1  C   UNL     1       2.822  -3.164   6.671  0.00  0.00    +0.084 A 
ATOM      2  C   UNL     1       2.336  -3.985   7.678  0.00  0.00    +0.065 A 
ATOM      3  C   UNL     1       3.255  -4.315   8.743  0.00  0.00    +0.022 A 
ATOM      4  C   UNL     1       4.488  -3.785   8.639  0.00  0.00    +0.048 A 
ATOM      5  S   UNL     1       4.410  -2.861   7.120  0.00  0.00    -0.081 S 
ENDROOT
BRANCH   1   8
ATOM      6  C   UNL     1       2.786  -1.911   4.663  0.00  0.00    +0.249 C 
ATOM      7  O   UNL     1       3.946  -1.599   4.848  0.00  0.00    -0.270 OA
ATOM      8  N   UNL     1       2.151  -2.704   5.549  0.00  0.00    -0.275 N 
ATOM      9  H   UNL     1       1.226  -2.953   5.402  0.00  0.00    +0.156 HD
BRANCH   6  13
ATOM     10  C   UNL     1       0.731  -0.503   1.223  0.00  0.00    -0.045 A 
ATOM     11  C   UNL     1       2.051  -0.146   1.431  0.00  0.00    +0.004 A 
ATOM     12  C   UNL     1       2.724  -0.600   2.546  0.00  0.00    +0.013 A 
ATOM     13  C   UNL     1       2.071  -1.421   3.466  0.00  0.00    +0.037 A 
ATOM     14  C   UNL     1       0.738  -1.778   3.250  0.00  0.00    +0.013 A 
ATOM     15  C   UNL     1       0.075  -1.313   2.134  0.00  0.00    +0.004 A 
BRANCH  10  17
ATOM     16  C   UNL     1      -0.019   1.526   0.010  0.00  0.00    +0.012 C 
ATOM     17  C   UNL     1       0.002  -0.004   0.002  0.00  0.00    +0.013 C 
ATOM     18  C   UNL     1       0.718  -0.497  -1.257  0.00  0.00    +0.012 C 
ENDBRANCH  10  17
ENDBRANCH   6  13
ENDBRANCH   1   8
BRANCH   2  19
ATOM     19  C   UNL     1       0.960  -4.492   7.663  0.00  0.00    +0.246 C 
ATOM     20  O   UNL     1       0.212  -4.194   6.751  0.00  0.00    -0.270 OA
ATOM     21  N   UNL     1       0.524  -5.288   8.660  0.00  0.00    -0.309 N 
ATOM     22  H   UNL     1       1.121  -5.526   9.387  0.00  0.00    +0.149 HD
BRANCH  21  23
ATOM     23  C   UNL     1      -0.851  -5.794   8.645  0.00  0.00    +0.136 C 
BRANCH  23  24
ATOM     24  C   UNL     1      -1.086  -6.666   9.880  0.00  0.00    +0.135 C 
ATOM     25  C   UNL     1      -2.491  -7.302   9.812  0.00  0.00    +0.035 C 
ATOM     26  C   UNL     1      -2.962  -7.221  11.290  0.00  0.00    +0.031 C 
ATOM     27  C   UNL     1      -2.301  -5.893  11.736  0.00  0.00    +0.160 C 
ATOM     28  O   UNL     1      -1.031  -5.859  11.062  0.00  0.00    -0.375 OA
ENDBRANCH  23  24
ENDBRANCH  21  23
ENDBRANCH   2  19
TORSDOF 6
