REMARK  Name = ZINC08569939
REMARK  9 active torsions:
REMARK  status: ('A' for Active; 'I' for Inactive)
REMARK    1  A    between atoms: C_1  and  C_2
REMARK    2  A    between atoms: C_4  and  C_30
REMARK    3  A    between atoms: C_5  and  C_9
REMARK    4  A    between atoms: C_7  and  C_8
REMARK    5  A    between atoms: C_9  and  C_11
REMARK    6  A    between atoms: C_11  and  C_12
REMARK    7  A    between atoms: C_12  and  O_29
REMARK    8  A    between atoms: N_19  and  C_22
REMARK    9  A    between atoms: C_22  and  N_63
REMARK                            x       y       z     vdW  Elec       q    Type
REMARK                         _______ _______ _______ _____ _____    ______ ____
ROOT
ATOM      1  C   UNL     1       4.314   6.103  -1.281  0.00  0.00    +0.175 C 
ATOM      2  C   UNL     1       5.470   5.241  -0.829  0.00  0.00    +0.014 A 
ATOM      3  C   UNL     1       6.823   5.471  -0.723  0.00  0.00    +0.009 A 
ATOM      4  C   UNL     1       7.660   4.467  -0.266  0.00  0.00    +0.000 A 
ATOM      5  C   UNL     1       7.132   3.237   0.081  0.00  0.00    +0.002 A 
ATOM      6  C   UNL     1       5.777   3.004  -0.025  0.00  0.00    +0.024 A 
ATOM      7  C   UNL     1       4.928   4.010  -0.483  0.00  0.00    +0.041 A 
ATOM      8  N   UNL     1       3.546   4.020  -0.675  0.00  0.00    -0.285 N 
ATOM      9  C   UNL     1       3.106   5.200  -1.143  0.00  0.00    +0.255 C 
ATOM     10  O   UNL     1       1.957   5.489  -1.403  0.00  0.00    -0.272 OA
ENDROOT
BRANCH   1  11
ATOM     11  O   UNL     1       4.185   7.250  -0.438  0.00  0.00    -0.374 OA
ATOM     12  H   UNL     1       3.458   7.838  -0.682  0.00  0.00    +0.211 HD
ENDBRANCH   1  11
BRANCH   1  13
ATOM     13  C   UNL     1       4.500   6.529  -2.738  0.00  0.00    +0.129 C 
BRANCH  13  14
ATOM     14  C   UNL     1       3.335   7.386  -3.164  0.00  0.00    +0.167 C 
ATOM     15  O   UNL     1       2.445   7.632  -2.378  0.00  0.00    -0.292 OA
BRANCH  14  20
ATOM     16  C   UNL     1       3.116   9.490  -8.509  0.00  0.00    +0.044 C 
ATOM     17  C   UNL     1       3.174   8.939  -7.108  0.00  0.00    -0.047 A 
ATOM     18  C   UNL     1       2.101   9.120  -6.252  0.00  0.00    +0.007 A 
ATOM     19  C   UNL     1       2.146   8.619  -4.968  0.00  0.00    -0.040 A 
ATOM     20  C   UNL     1       3.279   7.925  -4.532  0.00  0.00    +0.021 A 
ATOM     21  C   UNL     1       4.361   7.750  -5.401  0.00  0.00    +0.015 A 
ATOM     22  C   UNL     1       4.298   8.253  -6.684  0.00  0.00    -0.047 A 
ATOM     23  C   UNL     1       5.461   8.061  -7.624  0.00  0.00    +0.044 C 
ATOM     24  C   UNL     1       0.977   8.818  -4.038  0.00  0.00    +0.044 C 
ENDBRANCH  14  20
ENDBRANCH  13  14
ENDBRANCH   1  13
BRANCH   8  25
ATOM     25  C   UNL     1       2.675   2.874  -0.404  0.00  0.00    +0.038 C 
BRANCH  25  32
ATOM     26  C   UNL     1       0.926   2.209   1.147  0.00  0.00    -0.077 C 
ATOM     27  C   UNL     1       1.114   0.733   1.370  0.00  0.00    -0.019 C 
ATOM     28  C   UNL     1       1.133   0.467   2.890  0.00  0.00    -0.002 C 
ATOM     29  C   UNL     1       2.418   0.803   3.492  0.00  0.00    -0.002 C 
ATOM     30  C   UNL     1       2.768   2.296   3.324  0.00  0.00    -0.019 C 
ATOM     31  C   UNL     1       3.273   2.514   1.924  0.00  0.00    -0.077 C 
ATOM     32  N   UNL     1       2.201   2.988   0.984  0.00  0.00    +0.390 N 
ATOM     33  H   UNL     1       2.005   3.975   1.188  0.00  0.00    -0.080 HD
ENDBRANCH  25  32
ENDBRANCH   8  25
TORSDOF 6
