REMARK  Name = ZINC35382088
REMARK  4 active torsions:
REMARK  status: ('A' for Active; 'I' for Inactive)
REMARK    1  A    between atoms: C_1  and  C_2
REMARK    2  A    between atoms: C_6  and  C_7
REMARK    3  A    between atoms: C_7  and  C_9
REMARK    4  A    between atoms: C_7  and  N_21
REMARK                            x       y       z     vdW  Elec       q    Type
REMARK                         _______ _______ _______ _____ _____    ______ ____
ROOT
ATOM      1  C   UNL     1       1.171  -0.150   3.210  0.00  0.00    -0.039 A 
ATOM      2  C   UNL     1       1.646  -1.257   3.892  0.00  0.00    +0.052 A 
ATOM      3  C   UNL     1       2.901  -1.219   4.473  0.00  0.00    +0.162 A 
ATOM      4  C   UNL     1       3.680  -0.074   4.372  0.00  0.00    +0.163 A 
ATOM      5  C   UNL     1       3.203   1.032   3.690  0.00  0.00    +0.065 A 
ATOM      6  C   UNL     1       1.949   0.988   3.105  0.00  0.00    +0.023 A 
ATOM      7 BR   UNL     1       1.295   2.493   2.164  0.00  0.00    -0.050 Br
ATOM      8  O   UNL     1       4.917  -0.047   4.948  0.00  0.00    -0.488 OA
ATOM      9  C   UNL     1       4.942  -0.065   6.377  0.00  0.00    +0.232 C 
ATOM     10  C   UNL     1       4.852  -1.490   6.900  0.00  0.00    +0.082 C 
ATOM     11  C   UNL     1       3.524  -2.149   6.561  0.00  0.00    +0.232 C 
ATOM     12  O   UNL     1       3.382  -2.304   5.147  0.00  0.00    -0.488 OA
ENDROOT
BRANCH   1  13
ATOM     13  C   UNL     1      -0.195  -0.188   2.576  0.00  0.00    -0.005 C 
BRANCH  13  19
ATOM     14  C   UNL     1       0.603  -2.849   1.264  0.00  0.00    +0.044 C 
ATOM     15  C   UNL     1       0.291  -1.607   0.470  0.00  0.00    -0.042 A 
ATOM     16  C   UNL     1       0.349  -1.624  -0.911  0.00  0.00    +0.011 A 
ATOM     17  C   UNL     1       0.063  -0.489  -1.595  0.00  0.00    +0.045 A 
ATOM     18  S   UNL     1      -0.304   0.655  -0.275  0.00  0.00    -0.103 S 
ATOM     19  C   UNL     1      -0.056  -0.457   1.099  0.00  0.00    -0.017 A 
ENDBRANCH  13  19
BRANCH  13  20
ATOM     20  N   UNL     1      -0.993  -1.255   3.195  0.00  0.00    +0.386 N 
ATOM     21  H   UNL     1      -1.908  -1.280   2.770  0.00  0.00    -0.089 HD
ATOM     22  H   UNL     1      -0.534  -2.142   3.057  0.00  0.00    -0.089 HD
ATOM     23  H   UNL     1      -1.087  -1.074   4.183  0.00  0.00    -0.089 HD
ENDBRANCH  13  20
ENDBRANCH   1  13
TORSDOF 3
