REMARK  Name = ZINC65227708
REMARK  8 active torsions:
REMARK  status: ('A' for Active; 'I' for Inactive)
REMARK    1  A    between atoms: C_1  and  C_2
REMARK    2  A    between atoms: C_2  and  C_3
REMARK    3  A    between atoms: C_5  and  C_8
REMARK    4  A    between atoms: C_13  and  N_14
REMARK    5  A    between atoms: C_18  and  C_21
REMARK    6  A    between atoms: N_23  and  C_24
REMARK    7  A    between atoms: C_24  and  C_25
REMARK    8  A    between atoms: C_25  and  C_26
REMARK                            x       y       z     vdW  Elec       q    Type
REMARK                         _______ _______ _______ _____ _____    ______ ____
ROOT
ATOM      1  N   UNL     1      -6.049  -2.245   0.259  0.00  0.00    -0.315 N 
ATOM      2  C   UNL     1      -5.117  -1.726   1.269  0.00  0.00    +0.106 C 
ATOM      3  C   UNL     1      -5.879  -0.783   2.205  0.00  0.00    +0.020 C 
ATOM      4  C   UNL     1      -7.091  -1.516   2.785  0.00  0.00    +0.016 C 
ATOM      5  C   UNL     1      -8.029  -1.933   1.650  0.00  0.00    +0.092 C 
ATOM      6  C   UNL     1      -7.294  -2.884   0.708  0.00  0.00    +0.119 C 
ENDROOT
BRANCH   1  12
ATOM      7  C   UNL     1      -5.132  -3.188  -1.764  0.00  0.00    +0.060 A 
ATOM      8  C   UNL     1      -4.857  -3.053  -3.125  0.00  0.00    +0.016 A 
ATOM      9  C   UNL     1      -5.216  -1.873  -3.756  0.00  0.00    +0.018 A 
ATOM     10  C   UNL     1      -5.830  -0.872  -3.027  0.00  0.00    +0.084 A 
ATOM     11  N   UNL     1      -6.079  -1.020  -1.740  0.00  0.00    -0.349 N 
ATOM     12  C   UNL     1      -5.762  -2.130  -1.093  0.00  0.00    +0.110 A 
ATOM     13  H   UNL     1      -6.511  -0.299  -1.257  0.00  0.00    +0.167 HD
BRANCH   7  16
ATOM     14  C   UNL     1      -4.055  -6.447  -0.684  0.00  0.00    +0.227 A 
ATOM     15  N   UNL     1      -4.261  -5.544  -1.599  0.00  0.00    -0.191 NA
ATOM     16  C   UNL     1      -4.768  -4.430  -1.041  0.00  0.00    +0.205 A 
ATOM     17  N   UNL     1      -4.887  -4.626   0.250  0.00  0.00    -0.056 NA
ATOM     18  O   UNL     1      -4.428  -5.946   0.500  0.00  0.00    -0.338 OA
BRANCH  14  20
ATOM     19  C   UNL     1      -1.972  -7.788  -0.793  0.00  0.00    +0.014 C 
ATOM     20  C   UNL     1      -3.496  -7.827  -0.920  0.00  0.00    +0.095 C 
ENDBRANCH  14  20
ENDBRANCH   7  16
ENDBRANCH   1  12
BRANCH   5  21
ATOM     21  C   UNL     1      -9.237  -2.626   2.225  0.00  0.00    +0.218 C 
ATOM     22  O   UNL     1      -9.487  -3.770   1.911  0.00  0.00    -0.275 OA
ATOM     23  N   UNL     1     -10.041  -1.973   3.088  0.00  0.00    -0.315 N 
ATOM     24  H   UNL     1      -9.841  -1.058   3.340  0.00  0.00    +0.149 HD
BRANCH  23  25
ATOM     25  C   UNL     1     -11.216  -2.647   3.647  0.00  0.00    +0.108 C 
BRANCH  25  26
ATOM     26  C   UNL     1     -11.950  -1.692   4.591  0.00  0.00    +0.049 C 
BRANCH  26  27
ATOM     27  C   UNL     1     -13.159  -2.384   5.166  0.00  0.00    -0.072 C 
ATOM     28  C   UNL     1     -13.039  -2.953   6.323  0.00  0.00    -0.028 C 
ATOM     29  C   UNL     1     -14.148  -3.688   7.017  0.00  0.00    +0.027 C 
ATOM     30  C   UNL     1     -15.497  -3.314   6.398  0.00  0.00    +0.004 C 
ATOM     31  C   UNL     1     -15.385  -3.448   4.874  0.00  0.00    +0.005 C 
ATOM     32  C   UNL     1     -14.427  -2.367   4.365  0.00  0.00    +0.030 C 
ENDBRANCH  26  27
ENDBRANCH  25  26
ENDBRANCH  23  25
ENDBRANCH   5  21
TORSDOF 7
