REMARK  Name = ZINC10232648
REMARK  2 active torsions:
REMARK  status: ('A' for Active; 'I' for Inactive)
REMARK    1  A    between atoms: C_6  and  C_7
REMARK    2  A    between atoms: C_20  and  C_22
REMARK                            x       y       z     vdW  Elec       q    Type
REMARK                         _______ _______ _______ _____ _____    ______ ____
ROOT
ATOM      1  C   UNL     1      -1.271  -0.765   0.011  0.00  0.00    +0.101 A 
ATOM      2  C   UNL     1      -1.407  -1.916  -0.771  0.00  0.00    +0.036 A 
ATOM      3  C   UNL     1      -2.616  -2.591  -0.723  0.00  0.00    +0.110 A 
ATOM      4  C   UNL     1      -3.630  -2.080   0.097  0.00  0.00    +0.310 A 
ATOM      5  N   UNL     1      -3.408  -0.982   0.800  0.00  0.00    -0.104 NA
ATOM      6  N   UNL     1      -2.286  -0.361   0.764  0.00  0.00    -0.145 NA
ATOM      7  O   UNL     1      -4.832  -2.708   0.170  0.00  0.00    -0.262 OA
ATOM      8  N   UNL     1      -2.832  -3.757  -1.463  0.00  0.00    -0.278 N 
ATOM      9  C   UNL     1      -1.722  -4.356  -2.039  0.00  0.00    +0.240 A 
ATOM     10  N   UNL     1      -1.581  -5.533  -2.582  0.00  0.00    -0.092 NA
ATOM     11  N   UNL     1      -0.370  -5.693  -2.992  0.00  0.00    -0.021 NA
ATOM     12  N   UNL     1       0.334  -4.637  -2.742  0.00  0.00    -0.042 NA
ATOM     13  N   UNL     1      -0.521  -3.728  -2.118  0.00  0.00    -0.201 N 
ATOM     14  C   UNL     1      -0.262  -2.379  -1.630  0.00  0.00    +0.176 C 
ATOM     15  H   UNL     1      -3.720  -4.132  -1.568  0.00  0.00    +0.155 HD
ENDROOT
BRANCH   1  21
ATOM     16  C   UNL     1      -0.010   1.376  -0.192  0.00  0.00    +0.013 A 
ATOM     17  C   UNL     1       1.176   2.080  -0.198  0.00  0.00    +0.039 A 
ATOM     18  C   UNL     1       2.379   1.417  -0.013  0.00  0.00    +0.123 A 
ATOM     19  C   UNL     1       2.396   0.045   0.179  0.00  0.00    +0.039 A 
ATOM     20  C   UNL     1       1.214  -0.667   0.187  0.00  0.00    +0.013 A 
ATOM     21  C   UNL     1       0.002  -0.004   0.002  0.00  0.00    +0.003 A 
ATOM     22  F   UNL     1       3.538   2.111  -0.021  0.00  0.00    -0.205 F 
ENDBRANCH   1  21
BRANCH  14  23
ATOM     23  C   UNL     1      -0.105  -1.444  -2.802  0.00  0.00    -0.018 A 
ATOM     24  C   UNL     1      -1.149  -1.271  -3.692  0.00  0.00    +0.007 A 
ATOM     25  C   UNL     1      -1.007  -0.414  -4.766  0.00  0.00    +0.015 A 
ATOM     26  C   UNL     1       0.181   0.271  -4.951  0.00  0.00    +0.018 A 
ATOM     27  C   UNL     1       1.225   0.098  -4.061  0.00  0.00    +0.015 A 
ATOM     28  C   UNL     1       1.079  -0.756  -2.983  0.00  0.00    +0.007 A 
ATOM     29 BR   UNL     1       0.377   1.444  -6.422  0.00  0.00    -0.050 Br
ENDBRANCH  14  23
TORSDOF 2
