REMARK  Name = ZINC08812794
REMARK  12 active torsions:
REMARK  status: ('A' for Active; 'I' for Inactive)
REMARK    1  A    between atoms: C_1  and  C_2
REMARK    2  A    between atoms: C_2  and  C_3
REMARK    3  A    between atoms: C_3  and  C_4
REMARK    4  A    between atoms: C_4  and  N_5
REMARK    5  A    between atoms: N_5  and  C_6
REMARK    6  A    between atoms: N_5  and  C_7
REMARK    7  A    between atoms: C_7  and  C_8
REMARK    8  A    between atoms: C_8  and  N_9
REMARK    9  A    between atoms: C_10  and  C_12
REMARK   10  A    between atoms: C_12  and  N_13
REMARK   11  A    between atoms: C_16  and  S_24
REMARK   12  A    between atoms: S_24  and  N_27
REMARK                            x       y       z     vdW  Elec       q    Type
REMARK                         _______ _______ _______ _____ _____    ______ ____
ROOT
ATOM      1  N   UNL     1       2.833  -8.530  -6.343  0.00  0.00    -0.261 N 
ATOM      2  C   UNL     1       1.970  -8.634  -7.431  0.00  0.00    +0.052 A 
ATOM      3  C   UNL     1       0.785  -7.907  -7.437  0.00  0.00    +0.053 A 
ATOM      4  C   UNL     1      -0.085  -8.002  -8.505  0.00  0.00    +0.107 A 
ATOM      5  C   UNL     1       0.212  -8.820  -9.580  0.00  0.00    +0.030 A 
ATOM      6  C   UNL     1       1.388  -9.547  -9.589  0.00  0.00    +0.018 A 
ATOM      7  C   UNL     1       2.265  -9.454  -8.521  0.00  0.00    +0.030 A 
ATOM      8  S   UNL     1       3.774 -10.369  -8.525  0.00  0.00    -0.114 S 
ATOM      9  C   UNL     1       4.881  -9.308  -7.547  0.00  0.00    +0.170 C 
ATOM     10  C   UNL     1       4.134  -8.806  -6.341  0.00  0.00    +0.230 C 
ATOM     11  O   UNL     1       4.752  -8.649  -5.309  0.00  0.00    -0.274 OA
ENDROOT
BRANCH   4  12
ATOM     12  S   UNL     1      -1.583  -7.075  -8.499  0.00  0.00    +0.061 S 
ATOM     13  O   UNL     1      -2.484  -7.753  -9.363  0.00  0.00    -0.153 OA
ATOM     14  O   UNL     1      -1.889  -6.806  -7.138  0.00  0.00    -0.153 OA
BRANCH  12  15
ATOM     15  N   UNL     1      -1.258  -5.614  -9.208  0.00  0.00    -0.177 NA
ATOM     16  C   UNL     1      -0.798  -4.405  -8.508  0.00  0.00    +0.109 C 
ATOM     17  C   UNL     1      -0.654  -3.290  -9.565  0.00  0.00    +0.018 C 
ATOM     18  C   UNL     1      -1.582  -3.775 -10.710  0.00  0.00    +0.018 C 
ATOM     19  C   UNL     1      -1.375  -5.311 -10.646  0.00  0.00    +0.109 C 
ENDBRANCH  12  15
ENDBRANCH   4  12
BRANCH   1  20
ATOM     20  C   UNL     1       2.253  -8.066  -5.080  0.00  0.00    +0.209 C 
BRANCH  20  22
ATOM     21  N   UNL     1       1.864  -5.911  -3.930  0.00  0.00    -0.316 N 
ATOM     22  C   UNL     1       2.339  -6.564  -5.010  0.00  0.00    +0.231 C 
ATOM     23  O   UNL     1       2.837  -5.941  -5.924  0.00  0.00    -0.274 OA
ATOM     24  H   UNL     1       1.466  -6.409  -3.199  0.00  0.00    +0.149 HD
BRANCH  21  25
ATOM     25  C   UNL     1       1.948  -4.450  -3.862  0.00  0.00    +0.085 C 
BRANCH  25  26
ATOM     26  C   UNL     1       1.342  -3.966  -2.543  0.00  0.00    -0.060 C 
BRANCH  26  27
ATOM     27  N   UNL     1       1.427  -2.501  -2.474  0.00  0.00    +0.379 N 
ATOM     28  C   UNL     1       2.837  -2.094  -2.426  0.00  0.00    -0.096 C 
ATOM     29  H   UNL     1       0.988  -2.100  -3.289  0.00  0.00    -0.082 HD
BRANCH  27  30
ATOM     30  C   UNL     1       0.739  -2.027  -1.265  0.00  0.00    -0.079 C 
BRANCH  30  31
ATOM     31  C   UNL     1       0.718  -0.497  -1.257  0.00  0.00    -0.019 C 
BRANCH  31  33
ATOM     32  C   UNL     1      -0.019   1.526   0.010  0.00  0.00    +0.004 C 
ATOM     33  C   UNL     1       0.002  -0.004   0.002  0.00  0.00    -0.005 C 
ENDBRANCH  31  33
ENDBRANCH  30  31
ENDBRANCH  27  30
ENDBRANCH  26  27
ENDBRANCH  25  26
ENDBRANCH  21  25
ENDBRANCH  20  22
ENDBRANCH   1  20
TORSDOF 10
