REMARK  Name = ZINC20751911
REMARK  6 active torsions:
REMARK  status: ('A' for Active; 'I' for Inactive)
REMARK    1  A    between atoms: C_1  and  C_2
REMARK    2  A    between atoms: C_2  and  C_4
REMARK    3  A    between atoms: C_2  and  N_10
REMARK    4  A    between atoms: C_11  and  C_13
REMARK    5  A    between atoms: C_20  and  C_29
REMARK    6  A    between atoms: C_38  and  O_39
REMARK                            x       y       z     vdW  Elec       q    Type
REMARK                         _______ _______ _______ _____ _____    ______ ____
ROOT
ATOM      1  C   UNL     1      -2.185   5.290   2.825  0.00  0.00    +0.058 A 
ATOM      2  C   UNL     1      -3.489   5.462   2.360  0.00  0.00    +0.015 A 
ATOM      3  C   UNL     1      -3.858   4.917   1.150  0.00  0.00    +0.001 A 
ATOM      4  C   UNL     1      -2.942   4.203   0.399  0.00  0.00    +0.006 A 
ATOM      5  C   UNL     1      -1.641   4.022   0.843  0.00  0.00    -0.019 A 
ATOM      6  C   UNL     1      -1.254   4.563   2.057  0.00  0.00    +0.044 A 
ATOM      7  N   UNL     1       0.031   4.420   2.557  0.00  0.00    -0.336 N 
ATOM      8  C   UNL     1       0.696   3.203   2.045  0.00  0.00    +0.109 C 
ATOM      9  C   UNL     1       0.741   3.278   0.517  0.00  0.00    +0.029 C 
ATOM     10  C   UNL     1      -0.704   3.236  -0.026  0.00  0.00    +0.049 C 
ATOM     11  C   UNL     1      -1.056   1.766  -0.028  0.00  0.00    -0.023 C 
ATOM     12  C   UNL     1       0.029   1.034  -0.011  0.00  0.00    -0.030 C 
ATOM     13  C   UNL     1       1.264   1.913  -0.013  0.00  0.00    +0.033 C 
ATOM     14  H   UNL     1       0.562   5.085   3.254  0.00  0.00    +0.147 HD
ENDROOT
BRANCH   8  15
ATOM     15  C   UNL     1       2.101   3.136   2.586  0.00  0.00    +0.022 A 
ATOM     16  C   UNL     1       2.585   1.945   3.150  0.00  0.00    -0.009 A 
ATOM     17  C   UNL     1       1.784   0.791   3.216  0.00  0.00    +0.009 A 
ATOM     18  C   UNL     1       2.288  -0.348   3.764  0.00  0.00    +0.001 A 
ATOM     19  C   UNL     1       3.590  -0.391   4.259  0.00  0.00    +0.001 A 
ATOM     20  C   UNL     1       4.396   0.704   4.208  0.00  0.00    +0.008 A 
ATOM     21  C   UNL     1       3.911   1.899   3.649  0.00  0.00    -0.017 A 
ATOM     22  C   UNL     1       4.715   3.050   3.580  0.00  0.00    +0.012 A 
ATOM     23  C   UNL     1       4.216   4.190   3.032  0.00  0.00    +0.046 A 
ATOM     24  C   UNL     1       2.910   4.236   2.534  0.00  0.00    +0.122 A 
BRANCH  24  25
ATOM     25  O   UNL     1       2.439   5.389   1.992  0.00  0.00    -0.506 OA
ATOM     26  H   UNL     1       3.084   6.279   1.947  0.00  0.00    +0.292 HD
ENDBRANCH  24  25
ENDBRANCH   8  15
BRANCH   1  28
ATOM     27  N   UNL     1      -2.671   6.565   4.853  0.00  0.00    -0.305 N 
ATOM     28  C   UNL     1      -1.781   5.870   4.119  0.00  0.00    +0.246 C 
ATOM     29  O   UNL     1      -0.644   5.720   4.523  0.00  0.00    -0.270 OA
ATOM     30  H   UNL     1      -3.700   6.700   4.487  0.00  0.00    +0.150 HD
BRANCH  27  32
ATOM     31  C   UNL     1      -1.618   8.505   5.905  0.00  0.00    +0.033 C 
ATOM     32  C   UNL     1      -2.270   7.141   6.139  0.00  0.00    +0.100 C 
BRANCH  32  33
ATOM     33  C   UNL     1      -3.484   7.308   7.016  0.00  0.00    -0.027 A 
ATOM     34  C   UNL     1      -4.675   7.751   6.471  0.00  0.00    +0.005 A 
ATOM     35  C   UNL     1      -5.790   7.899   7.274  0.00  0.00    +0.000 A 
ATOM     36  C   UNL     1      -5.712   7.615   8.624  0.00  0.00    +0.000 A 
ATOM     37  C   UNL     1      -4.520   7.176   9.170  0.00  0.00    +0.000 A 
ATOM     38  C   UNL     1      -3.406   7.024   8.366  0.00  0.00    +0.005 A 
ENDBRANCH  32  33
ENDBRANCH  27  32
ENDBRANCH   1  28
TORSDOF 5
