REMARK  Name = ZINC43225322
REMARK  9 active torsions:
REMARK  status: ('A' for Active; 'I' for Inactive)
REMARK    1  A    between atoms: C_1  and  C_2
REMARK    2  A    between atoms: C_2  and  C_3
REMARK    3  A    between atoms: C_3  and  C_4
REMARK    4  A    between atoms: C_5  and  C_21
REMARK    5  A    between atoms: C_6  and  C_18
REMARK    6  A    between atoms: C_7  and  C_17
REMARK    7  A    between atoms: N_8  and  C_9
REMARK    8  A    between atoms: C_9  and  C_10
REMARK    9  A    between atoms: C_10  and  C_11
REMARK                            x       y       z     vdW  Elec       q    Type
REMARK                         _______ _______ _______ _____ _____    ______ ____
ROOT
ATOM      1  C   UNL     1      -1.413  -2.041   0.005  0.00  0.00    +0.029 A 
ATOM      2  C   UNL     1      -1.407  -2.827  -1.104  0.00  0.00    +0.033 A 
ATOM      3  C   UNL     1      -1.386  -4.218  -0.615  0.00  0.00    +0.066 A 
ATOM      4  C   UNL     1      -1.381  -4.139   0.748  0.00  0.00    +0.029 A 
ATOM      5  N   UNL     1      -1.392  -2.839   1.105  0.00  0.00    -0.346 N 
ATOM      6  C   UNL     1      -1.361  -5.310   1.696  0.00  0.00    +0.064 C 
ENDROOT
BRANCH   2   7
ATOM      7  C   UNL     1      -1.419  -2.378  -2.515  0.00  0.00    +0.074 A 
ATOM      8  C   UNL     1      -1.416  -3.338  -3.541  0.00  0.00    +0.029 A 
ATOM      9  C   UNL     1      -1.427  -2.938  -4.843  0.00  0.00    +0.012 A 
ATOM     10  C   UNL     1      -1.442  -1.556  -5.118  0.00  0.00    +0.000 A 
ATOM     11  C   UNL     1      -1.454  -1.076  -6.437  0.00  0.00    +0.010 A 
ATOM     12  C   UNL     1      -1.469   0.267  -6.666  0.00  0.00    +0.001 A 
ATOM     13  C   UNL     1      -1.471   1.172  -5.607  0.00  0.00    +0.002 A 
ATOM     14  C   UNL     1      -1.459   0.742  -4.316  0.00  0.00    +0.028 A 
ATOM     15  C   UNL     1      -1.444  -0.637  -4.039  0.00  0.00    +0.072 A 
ATOM     16  N   UNL     1      -1.438  -1.085  -2.780  0.00  0.00    -0.247 NA
ENDBRANCH   2   7
BRANCH   3  17
ATOM     17  C   UNL     1      -1.373  -5.443  -1.431  0.00  0.00    +0.244 C 
ATOM     18  O   UNL     1      -0.314  -5.935  -1.773  0.00  0.00    -0.270 OA
ATOM     19  N   UNL     1      -2.534  -6.019  -1.799  0.00  0.00    -0.325 N 
ATOM     20  H   UNL     1      -3.378  -5.627  -1.527  0.00  0.00    +0.145 HD
ATOM     21  H   UNL     1      -2.526  -6.827  -2.337  0.00  0.00    +0.145 HD
ENDBRANCH   3  17
BRANCH   1  22
ATOM     22  C   UNL     1      -1.433  -0.534   0.013  0.00  0.00    +0.054 C 
BRANCH  22  24
ATOM     23  C   UNL     1      -0.019   1.526   0.010  0.00  0.00    +0.004 C 
ATOM     24  C   UNL     1       0.002  -0.004   0.002  0.00  0.00    +0.003 C 
ENDBRANCH  22  24
ENDBRANCH   1  22
BRANCH   5  25
ATOM     25  C   UNL     1      -1.385  -2.354   2.487  0.00  0.00    +0.128 C 
BRANCH  25  26
ATOM     26  C   UNL     1      -2.825  -2.205   2.982  0.00  0.00    +0.076 C 
BRANCH  26  27
ATOM     27  C   UNL     1      -2.818  -1.706   4.404  0.00  0.00    +0.037 A 
ATOM     28  C   UNL     1      -2.698  -2.455   5.517  0.00  0.00    +0.133 A 
ATOM     29  N   UNL     1      -2.738  -1.633   6.577  0.00  0.00    -0.244 NA
ATOM     30  C   UNL     1      -2.880  -0.404   6.162  0.00  0.00    +0.196 A 
ATOM     31  N   UNL     1      -2.928  -0.405   4.813  0.00  0.00    -0.348 N 
ATOM     32  H   UNL     1      -3.025   0.372   4.240  0.00  0.00    +0.166 HD
ENDBRANCH  26  27
ENDBRANCH  25  26
ENDBRANCH   5  25
TORSDOF 7
