REMARK  Name = ZINC12580607
REMARK  3 active torsions:
REMARK  status: ('A' for Active; 'I' for Inactive)
REMARK    1  A    between atoms: C_8  and  N_59
REMARK    2  A    between atoms: C_15  and  C_17
REMARK    3  A    between atoms: C_17  and  C_18
REMARK                            x       y       z     vdW  Elec       q    Type
REMARK                         _______ _______ _______ _____ _____    ______ ____
ROOT
ATOM      1  C   UNL     1      -0.937   2.931   0.623  0.00  0.00    -0.058 C 
ATOM      2  C   UNL     1      -1.012   1.428   0.339  0.00  0.00    +0.085 C 
ATOM      3  N   UNL     1       0.332   0.888   0.155  0.00  0.00    -0.318 N 
ATOM      4  C   UNL     1       1.391   1.654  -0.126  0.00  0.00    +0.200 C 
ATOM      5  O   UNL     1       2.466   1.120  -0.299  0.00  0.00    -0.278 OA
ATOM      6  C   UNL     1       1.305   3.150  -0.238  0.00  0.00    +0.028 C 
ATOM      7  H   UNL     1       0.462  -0.070   0.236  0.00  0.00    +0.149 HD
ATOM      8  N   UNL     1      -0.102   3.550  -0.426  0.00  0.00    +0.391 N 
ATOM      9  H   UNL     1      -0.424   3.224  -1.345  0.00  0.00    -0.080 HD
ENDROOT
BRANCH   8  17
ATOM     10  C   UNL     1      -2.973   8.678   0.936  0.00  0.00    +0.000 A 
ATOM     11  C   UNL     1      -2.064   8.729   1.976  0.00  0.00    +0.000 A 
ATOM     12  C   UNL     1      -1.094   7.753   2.093  0.00  0.00    +0.004 A 
ATOM     13  C   UNL     1      -1.028   6.723   1.170  0.00  0.00    -0.046 A 
ATOM     14  C   UNL     1      -1.937   6.671   0.130  0.00  0.00    -0.046 A 
ATOM     15  C   UNL     1      -2.909   7.651   0.015  0.00  0.00    +0.004 A 
ATOM     16  C   UNL     1      -1.658   5.460  -0.734  0.00  0.00    +0.020 C 
ATOM     17  C   UNL     1      -0.223   5.024  -0.367  0.00  0.00    -0.059 C 
ATOM     18  C   UNL     1      -0.071   5.550   1.076  0.00  0.00    +0.020 C 
ENDBRANCH   8  17
BRANCH   6  19
ATOM     19  C   UNL     1       2.118   3.617  -1.447  0.00  0.00    +0.090 C 
BRANCH  19  20
ATOM     20  C   UNL     1       1.530   3.032  -2.704  0.00  0.00    +0.215 C 
ATOM     21  O   UNL     1       0.503   2.388  -2.651  0.00  0.00    -0.276 OA
ATOM     22  N   UNL     1       2.144   3.223  -3.888  0.00  0.00    -0.299 N 
ATOM     23  C   UNL     1       3.387   4.005  -3.976  0.00  0.00    +0.126 C 
ATOM     24  C   UNL     1       4.426   3.173  -4.745  0.00  0.00    +0.125 C 
ATOM     25  N   UNL     1       3.859   2.762  -6.036  0.00  0.00    -0.311 N 
ATOM     26  C   UNL     1       2.694   1.886  -5.852  0.00  0.00    +0.125 C 
ATOM     27  C   UNL     1       1.587   2.660  -5.128  0.00  0.00    +0.126 C 
ATOM     28  C   UNL     1       4.822   2.150  -6.831  0.00  0.00    +0.140 A 
ATOM     29  C   UNL     1       6.006   2.819  -7.133  0.00  0.00    +0.154 A 
ATOM     30  N   UNL     1       6.920   2.232  -7.882  0.00  0.00    -0.258 NA
ATOM     31  C   UNL     1       6.706   1.016  -8.357  0.00  0.00    +0.130 A 
ATOM     32  C   UNL     1       5.530   0.352  -8.065  0.00  0.00    +0.132 A 
ATOM     33  N   UNL     1       4.612   0.931  -7.309  0.00  0.00    -0.237 NA
ENDBRANCH  19  20
ENDBRANCH   6  19
TORSDOF 3
