REMARK  Name = ZINC19217967
REMARK  7 active torsions:
REMARK  status: ('A' for Active; 'I' for Inactive)
REMARK    1  A    between atoms: C_1  and  C_2
REMARK    2  A    between atoms: C_6  and  C_14
REMARK    3  A    between atoms: C_7  and  C_13
REMARK    4  A    between atoms: C_11  and  C_12
REMARK    5  A    between atoms: C_14  and  C_15
REMARK    6  A    between atoms: C_21  and  C_24
REMARK    7  A    between atoms: C_26  and  C_29
REMARK                            x       y       z     vdW  Elec       q    Type
REMARK                         _______ _______ _______ _____ _____    ______ ____
ROOT
ATOM      1  C   UNL     1      -0.078   2.261  -2.138  0.00  0.00    +0.220 C 
ATOM      2  O   UNL     1       1.110   2.480  -2.029  0.00  0.00    -0.275 OA
ATOM      3  N   UNL     1      -0.729   1.575  -1.178  0.00  0.00    -0.300 N 
ATOM      4  C   UNL     1      -2.168   1.303  -1.297  0.00  0.00    +0.108 C 
ATOM      5  C   UNL     1      -2.869   1.797  -0.028  0.00  0.00    +0.020 C 
ATOM      6  C   UNL     1      -2.208   1.161   1.197  0.00  0.00    +0.016 C 
ATOM      7  C   UNL     1      -0.736   1.583   1.264  0.00  0.00    +0.095 C 
ATOM      8  C   UNL     1      -0.013   1.086   0.008  0.00  0.00    +0.120 C 
ENDROOT
BRANCH   7   9
ATOM      9  C   UNL     1      -0.091   0.982   2.486  0.00  0.00    +0.232 A 
ATOM     10  N   UNL     1       0.470   1.637   3.472  0.00  0.00    -0.191 NA
ATOM     11  C   UNL     1       0.906   0.692   4.335  0.00  0.00    +0.204 A 
ATOM     12  N   UNL     1       0.588  -0.470   3.828  0.00  0.00    -0.056 NA
ATOM     13  O   UNL     1       0.012  -0.320   2.771  0.00  0.00    -0.337 OA
BRANCH  11  14
ATOM     14  C   UNL     1       1.614   0.930   5.618  0.00  0.00    +0.041 A 
ATOM     15  C   UNL     1       2.006  -0.144   6.422  0.00  0.00    +0.014 A 
ATOM     16  C   UNL     1       2.668   0.130   7.606  0.00  0.00    +0.020 A 
ATOM     17  C   UNL     1       2.907   1.446   7.959  0.00  0.00    +0.111 A 
ATOM     18  N   UNL     1       2.519   2.439   7.182  0.00  0.00    -0.263 NA
ATOM     19  C   UNL     1       1.892   2.227   6.043  0.00  0.00    +0.122 A 
ENDBRANCH  11  14
ENDBRANCH   7   9
BRANCH   1  20
ATOM     20  C   UNL     1      -0.827   2.757  -3.349  0.00  0.00    +0.133 C 
BRANCH  20  26
ATOM     21  C   UNL     1       3.530   2.154  -8.640  0.00  0.00    +0.044 C 
ATOM     22  C   UNL     1       2.608   2.426  -7.480  0.00  0.00    -0.046 A 
ATOM     23  C   UNL     1       1.884   1.383  -6.918  0.00  0.00    +0.004 A 
ATOM     24  C   UNL     1       1.044   1.610  -5.865  0.00  0.00    +0.010 A 
ATOM     25  C   UNL     1       0.910   2.901  -5.351  0.00  0.00    +0.004 A 
ATOM     26  C   UNL     1       0.123   3.487  -4.263  0.00  0.00    -0.011 A 
ATOM     27  C   UNL     1       0.405   4.800  -4.238  0.00  0.00    +0.018 A 
ATOM     28  N   UNL     1       1.314   5.100  -5.215  0.00  0.00    -0.358 N 
ATOM     29  H   UNL     1       1.667   6.135  -5.338  0.00  0.00    +0.166 HD
ATOM     30  C   UNL     1       1.641   3.961  -5.916  0.00  0.00    +0.050 A 
ATOM     31  C   UNL     1       2.492   3.707  -6.987  0.00  0.00    -0.024 A 
ATOM     32  C   UNL     1       3.283   4.830  -7.607  0.00  0.00    +0.046 C 
ATOM     33  C   UNL     1      -0.190   5.794  -3.274  0.00  0.00    +0.063 C 
ENDBRANCH  20  26
ENDBRANCH   1  20
TORSDOF 4
