REMARK  Name = ZINC14987403
REMARK  22 active torsions:
REMARK  status: ('A' for Active; 'I' for Inactive)
REMARK    1  A    between atoms: C_1  and  C_2
REMARK    2  A    between atoms: C_2  and  C_3
REMARK    3  A    between atoms: C_2  and  C_41
REMARK    4  A    between atoms: C_2  and  C_42
REMARK    5  A    between atoms: C_5  and  C_37
REMARK    6  A    between atoms: C_6  and  O_36
REMARK    7  A    between atoms: C_7  and  C_9
REMARK    8  A    between atoms: N_10  and  C_11
REMARK    9  A    between atoms: C_13  and  N_19
REMARK   10  A    between atoms: C_20  and  C_21
REMARK   11  A    between atoms: C_22  and  O_35
REMARK   12  A    between atoms: C_23  and  C_31
REMARK   13  A    between atoms: C_25  and  C_27
REMARK   14  A    between atoms: C_27  and  C_28
REMARK   15  A    between atoms: C_27  and  C_29
REMARK   16  A    between atoms: C_27  and  C_30
REMARK   17  A    between atoms: C_31  and  C_32
REMARK   18  A    between atoms: C_31  and  C_33
REMARK   19  A    between atoms: C_31  and  C_34
REMARK   20  A    between atoms: C_37  and  C_38
REMARK   21  A    between atoms: C_37  and  C_39
REMARK   22  A    between atoms: C_37  and  C_40
REMARK                            x       y       z     vdW  Elec       q    Type
REMARK                         _______ _______ _______ _____ _____    ______ ____
ROOT
ATOM      1  C   UNL     1       3.467   1.422   6.365  0.00  0.00    +0.101 C 
ATOM      2  C   UNL     1       2.710   1.158   7.668  0.00  0.00    +0.101 C 
ATOM      3  C   UNL     1       3.171   2.151   8.736  0.00  0.00    +0.026 C 
ATOM      4  C   UNL     1       4.673   1.982   8.976  0.00  0.00    +0.002 C 
ATOM      5  C   UNL     1       5.430   2.246   7.673  0.00  0.00    +0.002 C 
ATOM      6  C   UNL     1       4.968   1.253   6.604  0.00  0.00    +0.026 C 
ENDROOT
BRANCH   1   8
ATOM      7  C   UNL     1       2.490   0.903   4.245  0.00  0.00    +0.090 C 
ATOM      8  N   UNL     1       3.025   0.471   5.342  0.00  0.00    -0.385 N 
ATOM      9  H   UNL     1       3.133  -0.482   5.487  0.00  0.00    +0.159 HD
BRANCH   7  14
ATOM     10  C   UNL     1       0.752  -0.491   1.226  0.00  0.00    -0.041 A 
ATOM     11  C   UNL     1       0.921  -1.852   1.419  0.00  0.00    +0.012 A 
ATOM     12  C   UNL     1       1.597  -2.322   2.528  0.00  0.00    +0.000 A 
ATOM     13  C   UNL     1       2.114  -1.432   3.456  0.00  0.00    +0.129 A 
ATOM     14  C   UNL     1       1.946  -0.053   3.265  0.00  0.00    +0.033 A 
ATOM     15  C   UNL     1       1.264   0.409   2.136  0.00  0.00    +0.017 A 
BRANCH  10  17
ATOM     16  C   UNL     1      -0.029   1.538   0.033  0.00  0.00    +0.015 C 
ATOM     17  C   UNL     1       0.012   0.009   0.013  0.00  0.00    -0.013 C 
ATOM     18  C   UNL     1      -1.417  -0.539   0.025  0.00  0.00    +0.015 C 
ATOM     19  C   UNL     1       0.729  -0.466  -1.253  0.00  0.00    +0.015 C 
ENDBRANCH  10  17
BRANCH  12  20
ATOM     20  C   UNL     1       1.775  -3.805   2.728  0.00  0.00    -0.009 C 
ATOM     21  C   UNL     1       1.117  -4.559   1.570  0.00  0.00    +0.015 C 
ATOM     22  C   UNL     1       3.267  -4.139   2.771  0.00  0.00    +0.015 C 
ATOM     23  C   UNL     1       1.120  -4.223   4.046  0.00  0.00    +0.015 C 
ENDBRANCH  12  20
BRANCH  13  24
ATOM     24  O   UNL     1       2.778  -1.892   4.546  0.00  0.00    -0.506 OA
ATOM     25  H   UNL     1       3.730  -1.996   4.412  0.00  0.00    +0.292 HD
ENDBRANCH  13  24
ENDBRANCH   7  14
ENDBRANCH   1   8
BRANCH   2  26
ATOM     26  N   UNL     1       2.981  -0.208   8.122  0.00  0.00    -0.385 N 
ATOM     27  C   UNL     1       2.007  -1.050   8.259  0.00  0.00    +0.090 C 
ATOM     28  H   UNL     1       3.890  -0.482   8.319  0.00  0.00    +0.159 HD
BRANCH  27  29
ATOM     29  C   UNL     1       2.263  -2.388   8.821  0.00  0.00    +0.033 A 
ATOM     30  C   UNL     1       3.574  -2.792   9.109  0.00  0.00    +0.129 A 
ATOM     31  C   UNL     1       3.803  -4.053   9.638  0.00  0.00    +0.000 A 
ATOM     32  C   UNL     1       2.743  -4.906   9.880  0.00  0.00    +0.012 A 
ATOM     33  C   UNL     1       1.447  -4.510   9.597  0.00  0.00    -0.041 A 
ATOM     34  C   UNL     1       1.200  -3.258   9.076  0.00  0.00    +0.017 A 
BRANCH  33  35
ATOM     35  C   UNL     1       0.300  -5.450   9.865  0.00  0.00    -0.013 C 
ATOM     36  C   UNL     1       0.265  -5.801  11.354  0.00  0.00    +0.015 C 
ATOM     37  C   UNL     1      -1.015  -4.776   9.469  0.00  0.00    +0.015 C 
ATOM     38  C   UNL     1       0.485  -6.728   9.045  0.00  0.00    +0.015 C 
ENDBRANCH  33  35
BRANCH  31  39
ATOM     39  C   UNL     1       5.210  -4.494   9.949  0.00  0.00    -0.009 C 
ATOM     40  C   UNL     1       5.185  -5.914  10.518  0.00  0.00    +0.015 C 
ATOM     41  C   UNL     1       6.046  -4.473   8.668  0.00  0.00    +0.015 C 
ATOM     42  C   UNL     1       5.827  -3.544  10.977  0.00  0.00    +0.015 C 
ENDBRANCH  31  39
BRANCH  30  43
ATOM     43  O   UNL     1       4.614  -1.954   8.870  0.00  0.00    -0.506 OA
ATOM     44  H   UNL     1       4.838  -1.383   9.617  0.00  0.00    +0.292 HD
ENDBRANCH  30  43
ENDBRANCH  27  29
ENDBRANCH   2  26
TORSDOF 10
