REMARK  Name = ZINC46689553
REMARK  6 active torsions:
REMARK  status: ('A' for Active; 'I' for Inactive)
REMARK    1  A    between atoms: C_1  and  C_2
REMARK    2  A    between atoms: C_4  and  C_14
REMARK    3  A    between atoms: N_16  and  C_17
REMARK    4  A    between atoms: C_17  and  C_18
REMARK    5  A    between atoms: C_18  and  C_20
REMARK    6  A    between atoms: C_18  and  O_27
REMARK                            x       y       z     vdW  Elec       q    Type
REMARK                         _______ _______ _______ _____ _____    ______ ____
ROOT
ATOM      1  C   UNL     1      -2.019  -0.054   1.450  0.00  0.00    +0.258 C 
ATOM      2  O   UNL     1      -2.213  -0.833   2.359  0.00  0.00    -0.272 OA
ATOM      3  N   UNL     1      -2.334   1.248   1.600  0.00  0.00    -0.309 N 
ATOM      4  H   UNL     1      -2.247   1.857   0.850  0.00  0.00    +0.149 HD
ENDROOT
BRANCH   1   7
ATOM      5  C   UNL     1      -0.001   1.516   0.024  0.00  0.00    +0.056 C 
ATOM      6  C   UNL     1       0.008  -0.014   0.009  0.00  0.00    +0.220 C 
ATOM      7  C   UNL     1      -1.426  -0.542   0.154  0.00  0.00    +0.299 C 
ATOM      8  O   UNL     1      -1.380  -1.973   0.151  0.00  0.00    -0.472 OA
ATOM      9  C   UNL     1      -0.437  -2.555   0.940  0.00  0.00    +0.163 A 
ATOM     10  C   UNL     1      -0.560  -3.897   1.270  0.00  0.00    +0.049 A 
ATOM     11  C   UNL     1       0.392  -4.504   2.068  0.00  0.00    +0.004 A 
ATOM     12  C   UNL     1       1.469  -3.776   2.539  0.00  0.00    +0.004 A 
ATOM     13  C   UNL     1       1.596  -2.438   2.215  0.00  0.00    +0.049 A 
ATOM     14  C   UNL     1       0.644  -1.823   1.417  0.00  0.00    +0.163 A 
ATOM     15  O   UNL     1       0.779  -0.503   1.113  0.00  0.00    -0.481 OA
ENDBRANCH   1   7
BRANCH   3  16
ATOM     16  C   UNL     1      -2.806   1.744   2.895  0.00  0.00    +0.140 C 
BRANCH  16  17
ATOM     17  C   UNL     1      -3.091   3.243   2.795  0.00  0.00    +0.162 C 
BRANCH  17  18
ATOM     18  C   UNL     1      -3.577   3.753   4.127  0.00  0.00    -0.016 A 
ATOM     19  C   UNL     1      -2.666   4.131   5.096  0.00  0.00    +0.006 A 
ATOM     20  C   UNL     1      -3.111   4.598   6.319  0.00  0.00    +0.002 A 
ATOM     21  C   UNL     1      -4.467   4.688   6.573  0.00  0.00    +0.020 A 
ATOM     22  C   UNL     1      -5.378   4.310   5.603  0.00  0.00    +0.041 A 
ATOM     23  C   UNL     1      -4.933   3.848   4.378  0.00  0.00    +0.026 A 
ATOM     24 CL   UNL     1      -7.081   4.422   5.922  0.00  0.00    -0.084 Cl
ENDBRANCH  17  18
BRANCH  17  25
ATOM     25  O   UNL     1      -1.893   3.932   2.429  0.00  0.00    -0.386 OA
ATOM     26  H   UNL     1      -1.168   3.821   3.059  0.00  0.00    +0.210 HD
ENDBRANCH  17  25
ENDBRANCH  16  17
ENDBRANCH   3  16
TORSDOF 5
