REMARK  Name = ZINC66451668
REMARK  7 active torsions:
REMARK  status: ('A' for Active; 'I' for Inactive)
REMARK    1  A    between atoms: C_1  and  C_2
REMARK    2  A    between atoms: C_3  and  C_15
REMARK    3  A    between atoms: C_4  and  C_14
REMARK    4  A    between atoms: N_5  and  C_7
REMARK    5  A    between atoms: N_17  and  C_18
REMARK    6  A    between atoms: N_23  and  C_25
REMARK    7  A    between atoms: C_25  and  C_26
REMARK                            x       y       z     vdW  Elec       q    Type
REMARK                         _______ _______ _______ _____ _____    ______ ____
ROOT
ATOM      1  C   UNL     1      -0.372  -0.396  -2.525  0.00  0.00    +0.248 C 
ATOM      2  O   UNL     1       0.574  -0.061  -3.212  0.00  0.00    -0.270 OA
ATOM      3  N   UNL     1      -1.620  -0.363  -3.034  0.00  0.00    -0.310 N 
ATOM      4  H   UNL     1      -2.374  -0.630  -2.486  0.00  0.00    +0.149 HD
ENDROOT
BRANCH   1   7
ATOM      5  C   UNL     1      -0.366   1.475   0.038  0.00  0.00    +0.068 C 
ATOM      6  C   UNL     1      -0.149  -0.016   0.014  0.00  0.00    +0.073 A 
ATOM      7  C   UNL     1      -0.154  -0.838  -1.136  0.00  0.00    +0.080 A 
ATOM      8  C   UNL     1       0.083  -2.131  -0.715  0.00  0.00    +0.054 A 
ATOM      9  N   UNL     1       0.224  -2.098   0.623  0.00  0.00    -0.236 N 
ATOM     10  N   UNL     1       0.081  -0.774   1.051  0.00  0.00    -0.171 NA
ATOM     11  C   UNL     1       0.166  -3.354  -1.591  0.00  0.00    +0.066 C 
BRANCH   9  12
ATOM     12  C   UNL     1       0.478  -3.204   1.447  0.00  0.00    +0.066 A 
ATOM     13  C   UNL     1       1.401  -4.165   1.057  0.00  0.00    +0.030 A 
ATOM     14  C   UNL     1       1.649  -5.253   1.871  0.00  0.00    +0.040 A 
ATOM     15  C   UNL     1       0.977  -5.386   3.075  0.00  0.00    +0.124 A 
ATOM     16  C   UNL     1       0.056  -4.429   3.465  0.00  0.00    +0.040 A 
ATOM     17  C   UNL     1      -0.190  -3.336   2.657  0.00  0.00    +0.030 A 
ATOM     18  F   UNL     1       1.221  -6.452   3.869  0.00  0.00    -0.205 F 
ENDBRANCH   9  12
ENDBRANCH   1   7
BRANCH   3  19
ATOM     19  C   UNL     1      -1.836   0.076  -4.415  0.00  0.00    +0.057 C 
ATOM     20  C   UNL     1      -1.640  -1.109  -5.365  0.00  0.00    +0.018 C 
ATOM     21  C   UNL     1      -1.945  -0.659  -6.797  0.00  0.00    -0.017 C 
ATOM     22  C   UNL     1      -3.367  -0.096  -6.857  0.00  0.00    -0.078 C 
ATOM     23  N   UNL     1      -3.482   1.050  -5.947  0.00  0.00    +0.387 N 
ATOM     24  C   UNL     1      -3.261   0.612  -4.563  0.00  0.00    -0.056 C 
ATOM     25  H   UNL     1      -2.792   1.744  -6.193  0.00  0.00    -0.081 HD
BRANCH  23  26
ATOM     26  C   UNL     1      -4.825   1.634  -6.066  0.00  0.00    +0.018 C 
BRANCH  26  27
ATOM     27  C   UNL     1      -5.004   2.203  -7.450  0.00  0.00    +0.194 C 
ATOM     28  O   UNL     1      -4.102   2.129  -8.257  0.00  0.00    -0.278 OA
ATOM     29  N   UNL     1      -6.166   2.795  -7.790  0.00  0.00    -0.331 N 
ATOM     30  H   UNL     1      -6.888   2.854  -7.144  0.00  0.00    +0.145 HD
ATOM     31  H   UNL     1      -6.282   3.161  -8.681  0.00  0.00    +0.145 HD
ENDBRANCH  26  27
ENDBRANCH  23  26
ENDBRANCH   3  19
TORSDOF 5
