REMARK  Name = ZINC07923051
REMARK  7 active torsions:
REMARK  status: ('A' for Active; 'I' for Inactive)
REMARK    1  A    between atoms: C_1  and  C_2
REMARK    2  A    between atoms: C_15  and  C_17
REMARK    3  A    between atoms: C_17  and  N_53
REMARK    4  A    between atoms: C_18  and  N_53
REMARK    5  A    between atoms: C_19  and  C_21
REMARK    6  A    between atoms: C_19  and  C_22
REMARK    7  A    between atoms: C_19  and  N_53
REMARK                            x       y       z     vdW  Elec       q    Type
REMARK                         _______ _______ _______ _____ _____    ______ ____
ROOT
ATOM      1  C   UNL     1      -0.406   4.799  -2.552  0.00  0.00    +0.029 C 
ATOM      2  C   UNL     1       0.893   4.616  -1.765  0.00  0.00    +0.087 C 
ATOM      3  C   UNL     1       1.920   3.895  -2.639  0.00  0.00    +0.118 C 
ATOM      4  C   UNL     1       3.037   3.355  -1.787  0.00  0.00    +0.219 C 
ATOM      5  O   UNL     1       4.113   3.915  -1.777  0.00  0.00    -0.275 OA
ATOM      6  N   UNL     1       2.849   2.250  -1.033  0.00  0.00    -0.284 N 
ATOM      7  C   UNL     1       1.588   1.648  -0.958  0.00  0.00    +0.055 A 
ATOM      8  C   UNL     1       1.440   0.282  -1.137  0.00  0.00    +0.025 A 
ATOM      9  C   UNL     1       0.188  -0.294  -1.028  0.00  0.00    +0.002 A 
ATOM     10  C   UNL     1      -0.916   0.486  -0.737  0.00  0.00    +0.002 A 
ATOM     11  C   UNL     1      -0.778   1.851  -0.563  0.00  0.00    +0.025 A 
ATOM     12  C   UNL     1       0.471   2.438  -0.683  0.00  0.00    +0.058 A 
ATOM     13  N   UNL     1       0.624   3.827  -0.561  0.00  0.00    -0.268 N 
ATOM     14  C   UNL     1       0.524   4.425   0.643  0.00  0.00    +0.204 C 
ATOM     15  O   UNL     1       0.658   5.627   0.736  0.00  0.00    -0.277 OA
ATOM     16  H   UNL     1       3.594   1.870  -0.541  0.00  0.00    +0.155 HD
ENDROOT
BRANCH  14  17
ATOM     17  C   UNL     1       0.246   3.600   1.873  0.00  0.00    +0.020 C 
BRANCH  17  19
ATOM     18  C   UNL     1       1.496   5.085   3.322  0.00  0.00    -0.095 C 
ATOM     19  N   UNL     1       0.167   4.501   3.043  0.00  0.00    +0.389 N 
ATOM     20  H   UNL     1      -0.493   5.259   2.836  0.00  0.00    -0.081 HD
BRANCH  19  21
ATOM     21  C   UNL     1      -0.314   3.754   4.224  0.00  0.00    -0.014 C 
ATOM     22  C   UNL     1      -0.440   4.719   5.404  0.00  0.00    -0.006 C 
BRANCH  21  23
ATOM     23  C   UNL     1      -1.665   3.163   3.912  0.00  0.00    +0.066 A 
ATOM     24  N   UNL     1      -2.096   1.957   4.156  0.00  0.00    -0.246 NA
ATOM     25  C   UNL     1      -3.339   1.550   3.824  0.00  0.00    +0.078 A 
ATOM     26  C   UNL     1      -3.946   0.290   4.020  0.00  0.00    +0.029 A 
ATOM     27  C   UNL     1      -5.224   0.064   3.613  0.00  0.00    +0.002 A 
ATOM     28  C   UNL     1      -5.977   1.052   2.995  0.00  0.00    +0.001 A 
ATOM     29  C   UNL     1      -5.419   2.299   2.785  0.00  0.00    +0.017 A 
ATOM     30  C   UNL     1      -4.129   2.538   3.192  0.00  0.00    +0.039 A 
ATOM     31  S   UNL     1      -3.024   3.926   3.147  0.00  0.00    -0.074 S 
ENDBRANCH  21  23
ENDBRANCH  19  21
ENDBRANCH  17  19
ENDBRANCH  14  17
TORSDOF 4
