REMARK  Name = ZINC40327654
REMARK  8 active torsions:
REMARK  status: ('A' for Active; 'I' for Inactive)
REMARK    1  A    between atoms: C_1  and  C_2
REMARK    2  A    between atoms: C_2  and  C_4
REMARK    3  A    between atoms: C_2  and  C_17
REMARK    4  A    between atoms: C_4  and  N_5
REMARK    5  A    between atoms: N_5  and  S_6
REMARK    6  A    between atoms: S_6  and  C_9
REMARK    7  A    between atoms: C_12  and  O_16
REMARK    8  A    between atoms: C_13  and  N_15
REMARK                            x       y       z     vdW  Elec       q    Type
REMARK                         _______ _______ _______ _____ _____    ______ ____
ROOT
ATOM      1  S   UNL     1       3.100  -0.181   2.524  0.00  0.00    +0.058 S 
ATOM      2  O   UNL     1       4.397   0.248   2.132  0.00  0.00    -0.153 OA
ATOM      3  O   UNL     1       2.373   0.448   3.570  0.00  0.00    -0.153 OA
ENDROOT
BRANCH   1   4
ATOM      4  C   UNL     1       3.244  -1.882   2.963  0.00  0.00    +0.107 A 
ATOM      5  C   UNL     1       2.323  -2.452   3.822  0.00  0.00    +0.032 A 
ATOM      6  C   UNL     1       2.430  -3.786   4.170  0.00  0.00    +0.049 A 
ATOM      7  C   UNL     1       3.462  -4.555   3.658  0.00  0.00    +0.137 A 
ATOM      8  C   UNL     1       4.391  -3.981   2.792  0.00  0.00    +0.068 A 
ATOM      9  C   UNL     1       4.274  -2.643   2.443  0.00  0.00    +0.055 A 
BRANCH   8  10
ATOM     10  N   UNL     1       5.436  -4.753   2.272  0.00  0.00    -0.355 N 
ATOM     11  H   UNL     1       5.515  -5.689   2.514  0.00  0.00    +0.142 HD
ATOM     12  H   UNL     1       6.082  -4.352   1.669  0.00  0.00    +0.142 HD
ENDBRANCH   8  10
BRANCH   7  13
ATOM     13  O   UNL     1       3.570  -5.867   3.999  0.00  0.00    -0.505 OA
ATOM     14  H   UNL     1       3.094  -6.468   3.409  0.00  0.00    +0.292 HD
ENDBRANCH   7  13
ENDBRANCH   1   4
BRANCH   1  15
ATOM     15  N   UNL     1       2.148  -0.104   1.172  0.00  0.00    -0.189 NA
ATOM     16  H   UNL     1       2.520   0.211   0.333  0.00  0.00    +0.148 HD
BRANCH  15  17
ATOM     17  C   UNL     1       0.742  -0.511   1.242  0.00  0.00    +0.113 C 
BRANCH  17  19
ATOM     18  C   UNL     1      -0.019   1.526   0.010  0.00  0.00    +0.014 C 
ATOM     19  C   UNL     1       0.002  -0.004   0.002  0.00  0.00    +0.031 C 
BRANCH  19  20
ATOM     20  C   UNL     1      -1.412  -0.526   0.013  0.00  0.00    -0.043 A 
ATOM     21  C   UNL     1      -2.259  -0.204   1.056  0.00  0.00    +0.004 A 
ATOM     22  C   UNL     1      -3.556  -0.683   1.066  0.00  0.00    +0.000 A 
ATOM     23  C   UNL     1      -4.006  -1.482   0.032  0.00  0.00    +0.000 A 
ATOM     24  C   UNL     1      -3.159  -1.803  -1.012  0.00  0.00    +0.000 A 
ATOM     25  C   UNL     1      -1.863  -1.321  -1.024  0.00  0.00    +0.004 A 
ENDBRANCH  19  20
ENDBRANCH  17  19
ENDBRANCH  15  17
ENDBRANCH   1  15
TORSDOF 7
