REMARK  Name = ZINC18068182
REMARK  3 active torsions:
REMARK  status: ('A' for Active; 'I' for Inactive)
REMARK    1  A    between atoms: C_1  and  C_2
REMARK    2  A    between atoms: C_14  and  C_16
REMARK    3  A    between atoms: C_25  and  C_28
REMARK                            x       y       z     vdW  Elec       q    Type
REMARK                         _______ _______ _______ _____ _____    ______ ____
ROOT
ATOM      1  C   UNL     1       3.222  -1.764  -1.485  0.00  0.00    +0.110 C 
ATOM      2  C   UNL     1       3.172  -0.274  -1.269  0.00  0.00    +0.218 C 
ATOM      3  O   UNL     1       3.695   0.473  -2.070  0.00  0.00    -0.276 OA
ATOM      4  N   UNL     1       2.548   0.230  -0.186  0.00  0.00    -0.258 N 
ATOM      5  C   UNL     1       1.950  -0.639   0.728  0.00  0.00    +0.058 A 
ATOM      6  C   UNL     1       2.708  -1.486   1.520  0.00  0.00    +0.025 A 
ATOM      7  C   UNL     1       2.083  -2.253   2.488  0.00  0.00    +0.002 A 
ATOM      8  C   UNL     1       0.713  -2.177   2.664  0.00  0.00    +0.002 A 
ATOM      9  C   UNL     1      -0.049  -1.348   1.860  0.00  0.00    +0.025 A 
ATOM     10  C   UNL     1       0.573  -0.593   0.880  0.00  0.00    +0.053 A 
ATOM     11  N   UNL     1      -0.137   0.226   0.010  0.00  0.00    -0.316 N 
ATOM     12  C   UNL     1      -0.034   1.578  -0.036  0.00  0.00    +0.017 C 
ATOM     13  C   UNL     1       1.122   2.263  -0.048  0.00  0.00    +0.037 C 
ATOM     14  C   UNL     1       2.508   1.664   0.009  0.00  0.00    +0.146 C 
ATOM     15  C   UNL     1       1.112   3.675  -0.131  0.00  0.00    +0.163 C 
ATOM     16  O   UNL     1       2.173   4.269  -0.123  0.00  0.00    -0.292 OA
ATOM     17  C   UNL     1      -0.157   4.467  -0.230  0.00  0.00    +0.088 C 
ATOM     18  C   UNL     1      -1.231   3.593  -0.887  0.00  0.00    +0.032 C 
ATOM     19  C   UNL     1      -1.363   2.316  -0.060  0.00  0.00    +0.059 C 
ATOM     20  H   UNL     1      -0.750  -0.200  -0.609  0.00  0.00    +0.152 HD
ENDROOT
BRANCH  18  21
ATOM     21  C   UNL     1      -2.547   4.328  -0.906  0.00  0.00    -0.043 A 
ATOM     22  C   UNL     1      -3.133   4.725   0.281  0.00  0.00    +0.005 A 
ATOM     23  C   UNL     1      -4.337   5.405   0.264  0.00  0.00    +0.020 A 
ATOM     24  C   UNL     1      -4.960   5.678  -0.941  0.00  0.00    +0.041 A 
ATOM     25  C   UNL     1      -4.375   5.275  -2.128  0.00  0.00    +0.020 A 
ATOM     26  C   UNL     1      -3.169   4.601  -2.110  0.00  0.00    +0.005 A 
ATOM     27 CL   UNL     1      -6.475   6.525  -0.963  0.00  0.00    -0.084 Cl
ENDBRANCH  18  21
BRANCH  14  28
ATOM     28  C   UNL     1       3.111   1.980   1.353  0.00  0.00    -0.022 A 
ATOM     29  C   UNL     1       2.556   1.449   2.502  0.00  0.00    +0.006 A 
ATOM     30  C   UNL     1       3.112   1.735   3.735  0.00  0.00    +0.000 A 
ATOM     31  C   UNL     1       4.217   2.562   3.819  0.00  0.00    +0.000 A 
ATOM     32  C   UNL     1       4.769   3.097   2.671  0.00  0.00    +0.000 A 
ATOM     33  C   UNL     1       4.216   2.807   1.438  0.00  0.00    +0.006 A 
ENDBRANCH  14  28
TORSDOF 2
