REMARK  Name = ZINC12097971
REMARK  10 active torsions:
REMARK  status: ('A' for Active; 'I' for Inactive)
REMARK    1  A    between atoms: C_1  and  C_2
REMARK    2  A    between atoms: C_2  and  C_3
REMARK    3  A    between atoms: C_2  and  C_4
REMARK    4  A    between atoms: C_6  and  C_9
REMARK    5  A    between atoms: N_11  and  C_12
REMARK    6  A    between atoms: C_12  and  C_13
REMARK    7  A    between atoms: C_13  and  N_61
REMARK    8  A    between atoms: C_22  and  C_25
REMARK    9  A    between atoms: C_30  and  O_31
REMARK   10  A    between atoms: O_31  and  C_32
REMARK                            x       y       z     vdW  Elec       q    Type
REMARK                         _______ _______ _______ _____ _____    ______ ____
ROOT
ATOM      1  C   UNL     1       0.839   8.025  -1.137  0.00  0.00    -0.039 C 
ATOM      2  C   UNL     1       0.906   8.183   0.370  0.00  0.00    -0.022 A 
ATOM      3  C   UNL     1       0.802   9.435   0.941  0.00  0.00    +0.005 A 
ATOM      4  C   UNL     1       0.915   9.573   2.313  0.00  0.00    +0.000 A 
ATOM      5  C   UNL     1       1.131   8.462   3.107  0.00  0.00    +0.004 A 
ATOM      6  C   UNL     1       1.223   7.207   2.536  0.00  0.00    +0.046 A 
ATOM      7  C   UNL     1       1.101   7.067   1.161  0.00  0.00    +0.123 A 
ATOM      8  O   UNL     1       1.167   5.833   0.590  0.00  0.00    -0.486 OA
ATOM      9  C   UNL     1      -0.059   5.351   0.028  0.00  0.00    +0.191 C 
ATOM     10  C   UNL     1      -0.234   5.853  -1.389  0.00  0.00    -0.028 C 
ATOM     11  N   UNL     1      -0.423   7.318  -1.463  0.00  0.00    +0.386 N 
ATOM     12  H   UNL     1      -1.140   7.593  -0.781  0.00  0.00    -0.081 HD
ENDROOT
BRANCH   9  13
ATOM     13  C   UNL     1      -0.043   3.844   0.021  0.00  0.00    +0.032 A 
ATOM     14  C   UNL     1       1.161   3.165   0.007  0.00  0.00    +0.011 A 
ATOM     15  C   UNL     1       1.176   1.783   0.000  0.00  0.00    +0.001 A 
ATOM     16  C   UNL     1      -0.013   1.076   0.008  0.00  0.00    +0.004 A 
ATOM     17  C   UNL     1      -1.218   1.750   0.017  0.00  0.00    +0.046 A 
ATOM     18  C   UNL     1      -1.236   3.137   0.029  0.00  0.00    +0.127 A 
BRANCH  18  19
ATOM     19  O   UNL     1      -2.421   3.802   0.043  0.00  0.00    -0.495 OA
ATOM     20  C   UNL     1      -3.610   3.009   0.051  0.00  0.00    +0.277 C 
ENDBRANCH  18  19
ENDBRANCH   9  13
BRANCH  11  21
ATOM     21  C   UNL     1      -0.878   7.696  -2.810  0.00  0.00    -0.059 C 
BRANCH  21  22
ATOM     22  C   UNL     1       0.123   7.241  -3.875  0.00  0.00    +0.086 C 
BRANCH  22  25
ATOM     23  C   UNL     1       0.360   7.335  -6.298  0.00  0.00    +0.266 C 
ATOM     24  O   UNL     1       1.414   6.741  -6.189  0.00  0.00    -0.268 OA
ATOM     25  N   UNL     1      -0.363   7.633  -5.201  0.00  0.00    -0.312 N 
ATOM     26  H   UNL     1      -1.205   8.107  -5.288  0.00  0.00    +0.149 HD
BRANCH  23  29
ATOM     27  C   UNL     1      -0.335   8.047  -9.795  0.00  0.00    +0.141 A 
ATOM     28  C   UNL     1       0.509   7.501  -8.889  0.00  0.00    +0.081 A 
ATOM     29  C   UNL     1      -0.132   7.733  -7.640  0.00  0.00    +0.168 A 
ATOM     30  N   UNL     1      -1.241   8.373  -7.915  0.00  0.00    -0.073 NA
ATOM     31  O   UNL     1      -1.365   8.553  -9.104  0.00  0.00    -0.359 OA
BRANCH  27  33
ATOM     32  C   UNL     1      -1.314   7.361 -11.967  0.00  0.00    +0.015 C 
ATOM     33  C   UNL     1      -0.149   8.085 -11.290  0.00  0.00    +0.052 C 
ATOM     34  C   UNL     1      -0.108   9.539 -11.762  0.00  0.00    +0.015 C 
ENDBRANCH  27  33
ENDBRANCH  23  29
ENDBRANCH  22  25
ENDBRANCH  21  22
ENDBRANCH  11  21
TORSDOF 7
