REMARK  Name = ZINC11882135
REMARK  10 active torsions:
REMARK  status: ('A' for Active; 'I' for Inactive)
REMARK    1  A    between atoms: C_1  and  C_2
REMARK    2  A    between atoms: C_2  and  C_8
REMARK    3  A    between atoms: C_13  and  C_16
REMARK    4  A    between atoms: C_16  and  C_27
REMARK    5  A    between atoms: N_19  and  C_23
REMARK    6  A    between atoms: C_23  and  C_24
REMARK    7  A    between atoms: C_24  and  N_74
REMARK    8  A    between atoms: C_25  and  N_74
REMARK    9  A    between atoms: C_26  and  N_74
REMARK   10  A    between atoms: C_27  and  C_28
REMARK                            x       y       z     vdW  Elec       q    Type
REMARK                         _______ _______ _______ _____ _____    ______ ____
ROOT
ATOM      1  C   UNL     1      -2.521   2.500  -0.509  0.00  0.00    +0.119 C 
ATOM      2  C   UNL     1      -2.760   1.032  -0.215  0.00  0.00    +0.247 C 
ATOM      3  O   UNL     1      -3.618   0.320  -0.690  0.00  0.00    -0.273 OA
ATOM      4  N   UNL     1      -1.819   0.683   0.685  0.00  0.00    -0.226 N 
ATOM      5  C   UNL     1      -1.027   1.716   0.996  0.00  0.00    +0.309 C 
ATOM      6  O   UNL     1      -0.105   1.646   1.785  0.00  0.00    -0.252 OA
ATOM      7  N   UNL     1      -1.366   2.843   0.338  0.00  0.00    -0.284 N 
ATOM      8  H   UNL     1      -0.935   3.709   0.407  0.00  0.00    +0.151 HD
ENDROOT
BRANCH   1  14
ATOM      9  C   UNL     1      -5.240   6.304   2.292  0.00  0.00    +0.221 C 
ATOM     10  O   UNL     1      -5.646   6.037   3.404  0.00  0.00    -0.275 OA
ATOM     11  N   UNL     1      -5.082   5.325   1.380  0.00  0.00    -0.301 N 
ATOM     12  C   UNL     1      -5.302   3.919   1.744  0.00  0.00    +0.108 C 
ATOM     13  C   UNL     1      -4.058   3.110   1.364  0.00  0.00    +0.025 C 
ATOM     14  C   UNL     1      -3.743   3.333  -0.117  0.00  0.00    +0.025 C 
ATOM     15  C   UNL     1      -3.448   4.815  -0.359  0.00  0.00    +0.025 C 
ATOM     16  C   UNL     1      -4.686   5.643   0.001  0.00  0.00    +0.108 C 
BRANCH   9  18
ATOM     17  C   UNL     1      -3.450   7.823   1.496  0.00  0.00    +0.021 C 
ATOM     18  C   UNL     1      -4.913   7.730   1.932  0.00  0.00    +0.044 C 
ATOM     19  C   UNL     1      -5.140   8.629   3.149  0.00  0.00    +0.016 C 
ATOM     20  C   UNL     1      -6.604   8.536   3.586  0.00  0.00    +0.001 C 
ATOM     21  C   UNL     1      -7.508   8.993   2.439  0.00  0.00    +0.000 C 
ATOM     22  C   UNL     1      -7.280   8.094   1.222  0.00  0.00    +0.001 C 
ATOM     23  C   UNL     1      -5.817   8.187   0.785  0.00  0.00    +0.016 C 
ENDBRANCH   9  18
ENDBRANCH   1  14
BRANCH   4  24
ATOM     24  C   UNL     1      -1.680  -0.660   1.252  0.00  0.00    +0.099 C 
BRANCH  24  25
ATOM     25  C   UNL     1      -0.740  -1.490   0.375  0.00  0.00    -0.060 C 
BRANCH  25  28
ATOM     26  C   UNL     1       0.099  -3.732   0.012  0.00  0.00    -0.097 C 
ATOM     27  C   UNL     1       0.082  -2.792   2.244  0.00  0.00    -0.097 C 
ATOM     28  N   UNL     1      -0.627  -2.848   0.948  0.00  0.00    +0.377 N 
ATOM     29  H   UNL     1      -1.570  -3.224   1.100  0.00  0.00    -0.083 HD
ENDBRANCH  25  28
ENDBRANCH  24  25
ENDBRANCH   4  24
BRANCH   1  30
ATOM     30  C   UNL     1      -2.184   2.704  -1.987  0.00  0.00    +0.070 C 
BRANCH  30  31
ATOM     31  C   UNL     1      -0.979   1.874  -2.347  0.00  0.00    -0.042 A 
ATOM     32  C   UNL     1      -1.143   0.579  -2.803  0.00  0.00    +0.004 A 
ATOM     33  C   UNL     1      -0.039  -0.182  -3.139  0.00  0.00    +0.003 A 
ATOM     34  C   UNL     1       1.231   0.351  -3.020  0.00  0.00    +0.038 A 
ATOM     35  C   UNL     1       1.396   1.648  -2.564  0.00  0.00    +0.124 A 
ATOM     36  C   UNL     1       0.289   2.409  -2.228  0.00  0.00    +0.042 A 
ATOM     37  F   UNL     1       2.637   2.171  -2.448  0.00  0.00    -0.205 F 
ENDBRANCH  30  31
ENDBRANCH   1  30
TORSDOF 7
