REMARK  Name = ZINC62099583
REMARK  6 active torsions:
REMARK  status: ('A' for Active; 'I' for Inactive)
REMARK    1  A    between atoms: C_1  and  C_2
REMARK    2  A    between atoms: C_2  and  C_3
REMARK    3  A    between atoms: C_3  and  C_5
REMARK    4  A    between atoms: C_3  and  N_22
REMARK    5  A    between atoms: C_5  and  C_7
REMARK    6  A    between atoms: C_5  and  N_14
REMARK                            x       y       z     vdW  Elec       q    Type
REMARK                         _______ _______ _______ _____ _____    ______ ____
ROOT
ATOM      1  C   UNL     1       0.980  -2.022   1.235  0.00  0.00    +0.072 C 
ENDROOT
BRANCH   1   2
ATOM      2  N   UNL     1       1.833  -2.378   0.093  0.00  0.00    -0.295 NA
ATOM      3  C   UNL     1       1.403  -1.690  -1.115  0.00  0.00    +0.094 C 
ATOM      4  C   UNL     1       2.498  -1.738  -2.184  0.00  0.00    +0.111 C 
ATOM      5  C   UNL     1       2.381  -3.052  -2.929  0.00  0.00    +0.214 C 
ATOM      6  O   UNL     1       2.001  -3.066  -4.081  0.00  0.00    -0.276 OA
ATOM      7  N   UNL     1       2.698  -4.196  -2.316  0.00  0.00    -0.314 N 
ATOM      8  C   UNL     1       3.166  -4.180  -0.919  0.00  0.00    +0.119 C 
ATOM      9  C   UNL     1       1.985  -3.822  -0.014  0.00  0.00    +0.103 C 
ATOM     10  H   UNL     1       2.620  -5.038  -2.791  0.00  0.00    +0.149 HD
ENDBRANCH   1   2
BRANCH   1  11
ATOM     11  C   UNL     1       1.526  -2.656   2.488  0.00  0.00    -0.032 A 
ATOM     12  C   UNL     1       2.891  -2.690   2.707  0.00  0.00    +0.006 A 
ATOM     13  C   UNL     1       3.393  -3.271   3.856  0.00  0.00    +0.015 A 
ATOM     14  C   UNL     1       2.529  -3.819   4.787  0.00  0.00    +0.018 A 
ATOM     15  C   UNL     1       1.164  -3.785   4.568  0.00  0.00    +0.015 A 
ATOM     16  C   UNL     1       0.663  -3.199   3.421  0.00  0.00    +0.006 A 
ATOM     17 BR   UNL     1       3.215  -4.614   6.360  0.00  0.00    -0.050 Br
ENDBRANCH   1  11
BRANCH   1  18
ATOM     18  C   UNL     1       0.958  -0.501   1.400  0.00  0.00    -0.053 C 
BRANCH  18  19
ATOM     19  N   UNL     1       2.330  -0.009   1.580  0.00  0.00    +0.381 N 
ATOM     20  H   UNL     1       2.883  -0.251   0.771  0.00  0.00    -0.090 HD
ATOM     21  H   UNL     1       2.316   0.994   1.689  0.00  0.00    -0.090 HD
ATOM     22  H   UNL     1       2.734  -0.431   2.402  0.00  0.00    -0.090 HD
ENDBRANCH  18  19
BRANCH  18  24
ATOM     23  C   UNL     1      -0.020   1.387   2.711  0.00  0.00    +0.002 C 
ATOM     24  C   UNL     1       0.120  -0.134   2.626  0.00  0.00    -0.018 C 
ENDBRANCH  18  24
ENDBRANCH   1  18
TORSDOF 5
