REMARK  Name = ZINC36492206
REMARK  9 active torsions:
REMARK  status: ('A' for Active; 'I' for Inactive)
REMARK    1  A    between atoms: C_1  and  C_2
REMARK    2  A    between atoms: C_5  and  S_8
REMARK    3  A    between atoms: S_8  and  C_11
REMARK    4  A    between atoms: C_11  and  N_12
REMARK    5  A    between atoms: C_13  and  C_15
REMARK    6  A    between atoms: C_15  and  C_17
REMARK    7  A    between atoms: C_15  and  N_22
REMARK    8  A    between atoms: N_22  and  C_23
REMARK    9  A    between atoms: C_29  and  C_31
REMARK                            x       y       z     vdW  Elec       q    Type
REMARK                         _______ _______ _______ _____ _____    ______ ____
ROOT
ATOM      1  C   UNL     1       4.155  -6.077   2.762  0.00  0.00    +0.229 C 
ENDROOT
BRANCH   1   2
ATOM      2  C   UNL     1       3.108  -5.215   2.104  0.00  0.00    +0.134 A 
ATOM      3  C   UNL     1       3.342  -4.099   1.391  0.00  0.00    +0.047 A 
ATOM      4  C   UNL     1       2.085  -3.615   0.963  0.00  0.00    +0.041 A 
ATOM      5  C   UNL     1       1.157  -4.463   1.441  0.00  0.00    +0.195 A 
ATOM      6  O   UNL     1       1.783  -5.434   2.127  0.00  0.00    -0.465 OA
ENDBRANCH   1   2
BRANCH   1   8
ATOM      7  N   UNL     1       4.891  -7.112   0.640  0.00  0.00    -0.294 N 
ATOM      8  C   UNL     1       4.433  -7.278   1.896  0.00  0.00    +0.242 C 
ATOM      9  O   UNL     1       4.245  -8.395   2.330  0.00  0.00    -0.273 OA
ATOM     10  H   UNL     1       5.042  -6.218   0.293  0.00  0.00    +0.150 HD
BRANCH   7  11
ATOM     11  C   UNL     1       5.162  -8.280  -0.202  0.00  0.00    +0.278 C 
BRANCH  11  12
ATOM     12  S   UNL     1       3.714  -8.626  -1.239  0.00  0.00    +0.013 S 
ATOM     13  O   UNL     1       2.531  -8.602  -0.452  0.00  0.00    -0.168 OA
ATOM     14  O   UNL     1       3.984  -9.718  -2.107  0.00  0.00    -0.168 OA
BRANCH  12  19
ATOM     15  C   UNL     1       3.233  -3.844  -4.886  0.00  0.00    +0.044 C 
ATOM     16  C   UNL     1       3.354  -5.038  -3.975  0.00  0.00    -0.050 A 
ATOM     17  C   UNL     1       4.114  -6.127  -4.359  0.00  0.00    +0.005 A 
ATOM     18  C   UNL     1       4.224  -7.223  -3.524  0.00  0.00    +0.027 A 
ATOM     19  C   UNL     1       3.574  -7.229  -2.304  0.00  0.00    +0.090 A 
ATOM     20  C   UNL     1       2.815  -6.140  -1.919  0.00  0.00    +0.027 A 
ATOM     21  C   UNL     1       2.708  -5.043  -2.753  0.00  0.00    +0.005 A 
ENDBRANCH  12  19
ENDBRANCH  11  12
ENDBRANCH   7  11
ENDBRANCH   1   8
BRANCH   1  22
ATOM     22  N   UNL     1       3.670  -6.520   4.072  0.00  0.00    -0.276 N 
ATOM     23  C   UNL     1       4.351  -6.196   5.188  0.00  0.00    +0.249 C 
ATOM     24  O   UNL     1       4.820  -5.081   5.311  0.00  0.00    -0.270 OA
BRANCH  23  25
ATOM     25  C   UNL     1       4.528  -7.194   6.263  0.00  0.00    +0.055 A 
ATOM     26  C   UNL     1       3.513  -8.111   6.542  0.00  0.00    +0.014 A 
ATOM     27  C   UNL     1       3.684  -9.041   7.546  0.00  0.00    +0.001 A 
ATOM     28  C   UNL     1       4.859  -9.067   8.277  0.00  0.00    +0.001 A 
ATOM     29  C   UNL     1       5.869  -8.162   8.007  0.00  0.00    +0.021 A 
ATOM     30  C   UNL     1       5.714  -7.229   7.000  0.00  0.00    +0.053 A 
ATOM     31 CL   UNL     1       6.986  -6.099   6.657  0.00  0.00    -0.083 Cl
ENDBRANCH  23  25
BRANCH  22  32
ATOM     32  C   UNL     1       2.444  -7.317   4.167  0.00  0.00    +0.078 C 
ATOM     33  C   UNL     1       1.632  -6.861   5.381  0.00  0.00    +0.022 C 
ATOM     34  C   UNL     1       0.352  -7.693   5.481  0.00  0.00    +0.002 C 
ATOM     35  C   UNL     1       0.716  -9.171   5.637  0.00  0.00    +0.000 C 
ATOM     36  C   UNL     1       1.527  -9.627   4.423  0.00  0.00    +0.002 C 
ATOM     37  C   UNL     1       2.807  -8.795   4.323  0.00  0.00    +0.022 C 
ENDBRANCH  22  32
ENDBRANCH   1  22
TORSDOF 8
