REMARK  Name = ZINC04844989
REMARK  9 active torsions:
REMARK  status: ('A' for Active; 'I' for Inactive)
REMARK    1  A    between atoms: C_1  and  C_2
REMARK    2  A    between atoms: C_2  and  O_3
REMARK    3  A    between atoms: O_3  and  C_4
REMARK    4  A    between atoms: C_6  and  C_14
REMARK    5  A    between atoms: C_9  and  O_10
REMARK    6  A    between atoms: O_10  and  C_11
REMARK    7  A    between atoms: C_11  and  C_12
REMARK    8  A    between atoms: N_15  and  N_16
REMARK    9  A    between atoms: C_17  and  C_18
REMARK                            x       y       z     vdW  Elec       q    Type
REMARK                         _______ _______ _______ _____ _____    ______ ____
ROOT
ATOM      1  C   UNL     1       2.224  -6.364   1.200  0.00  0.00    +0.141 C 
ATOM      2  N   UNL     1       1.498  -7.372   0.793  0.00  0.00    -0.180 NA
ENDROOT
BRANCH   1   5
ATOM      3  C   UNL     1       5.167  -4.354   0.028  0.00  0.00    +0.163 A 
ATOM      4  C   UNL     1       4.118  -4.802   0.808  0.00  0.00    +0.060 A 
ATOM      5  C   UNL     1       3.340  -5.882   0.374  0.00  0.00    +0.012 A 
ATOM      6  C   UNL     1       3.629  -6.501  -0.848  0.00  0.00    +0.030 A 
ATOM      7  C   UNL     1       4.678  -6.047  -1.619  0.00  0.00    +0.065 A 
ATOM      8  C   UNL     1       5.445  -4.973  -1.190  0.00  0.00    +0.163 A 
ATOM      9 BR   UNL     1       2.582  -7.961  -1.439  0.00  0.00    -0.050 Br
BRANCH   3  10
ATOM     10  O   UNL     1       5.925  -3.305   0.446  0.00  0.00    -0.489 OA
BRANCH  10  12
ATOM     11  C   UNL     1       6.539  -1.562   2.003  0.00  0.00    +0.048 C 
ATOM     12  C   UNL     1       5.583  -2.719   1.704  0.00  0.00    +0.226 C 
ENDBRANCH  10  12
ENDBRANCH   3  10
BRANCH   8  13
ATOM     13  O   UNL     1       6.474  -4.526  -1.957  0.00  0.00    -0.489 OA
BRANCH  13  14
ATOM     14  C   UNL     1       6.704  -5.205  -3.193  0.00  0.00    +0.226 C 
ATOM     15  C   UNL     1       7.893  -4.566  -3.912  0.00  0.00    +0.048 C 
ENDBRANCH  13  14
ENDBRANCH   8  13
ENDBRANCH   1   5
BRANCH   2  16
ATOM     16  N   UNL     1       0.518  -7.795   1.517  0.00  0.00    -0.263 N 
ATOM     17  C   UNL     1      -0.212  -8.810   1.108  0.00  0.00    +0.143 C 
ATOM     18  N   UNL     1       0.071  -9.422  -0.096  0.00  0.00    -0.342 N 
ATOM     19  H   UNL     1       0.647  -8.982  -0.741  0.00  0.00    +0.144 HD
ATOM     20  H   UNL     1      -0.307 -10.292  -0.298  0.00  0.00    +0.144 HD
ATOM     21  H   UNL     1       0.319  -7.365   2.363  0.00  0.00    +0.190 HD
BRANCH  17  22
ATOM     22  C   UNL     1      -1.334  -9.294   1.937  0.00  0.00    +0.187 A 
ATOM     23  C   UNL     1      -2.475 -10.089   1.463  0.00  0.00    +0.191 A 
ATOM     24  N   UNL     1      -3.258 -10.327   2.478  0.00  0.00    -0.033 NA
ATOM     25  O   UNL     1      -2.686  -9.721   3.624  0.00  0.00    -0.240 OA
ATOM     26  N   UNL     1      -1.480  -9.094   3.223  0.00  0.00    -0.044 NA
ATOM     27  N   UNL     1      -2.684 -10.513   0.158  0.00  0.00    -0.339 N 
ATOM     28  H   UNL     1      -2.107 -10.195  -0.554  0.00  0.00    +0.144 HD
ATOM     29  H   UNL     1      -3.407 -11.127  -0.043  0.00  0.00    +0.144 HD
ENDBRANCH  17  22
ENDBRANCH   2  16
TORSDOF 7
