REMARK  Name = ZINC04754077
REMARK  13 active torsions:
REMARK  status: ('A' for Active; 'I' for Inactive)
REMARK    1  A    between atoms: C_1  and  C_2
REMARK    2  A    between atoms: C_7  and  C_32
REMARK    3  A    between atoms: C_9  and  C_10
REMARK    4  A    between atoms: C_9  and  N_62
REMARK    5  A    between atoms: C_10  and  C_12
REMARK    6  A    between atoms: C_10  and  O_31
REMARK    7  A    between atoms: C_12  and  O_13
REMARK    8  A    between atoms: O_13  and  C_14
REMARK    9  A    between atoms: C_17  and  N_20
REMARK   10  A    between atoms: C_21  and  C_22
REMARK   11  A    between atoms: C_26  and  O_29
REMARK   12  A    between atoms: C_27  and  O_28
REMARK   13  A    between atoms: O_29  and  C_30
REMARK                            x       y       z     vdW  Elec       q    Type
REMARK                         _______ _______ _______ _____ _____    ______ ____
ROOT
ATOM      1  C   UNL     1       7.356  -0.207  -0.225  0.00  0.00    +0.121 A 
ATOM      2  C   UNL     1       7.176   0.844  -1.115  0.00  0.00    +0.048 A 
ATOM      3  C   UNL     1       5.990   1.546  -1.124  0.00  0.00    +0.031 A 
ATOM      4  C   UNL     1       4.968   1.199  -0.236  0.00  0.00    +0.064 A 
ATOM      5  C   UNL     1       5.156   0.145   0.660  0.00  0.00    +0.031 A 
ATOM      6  C   UNL     1       6.343  -0.556   0.659  0.00  0.00    +0.048 A 
ENDROOT
BRANCH   4   7
ATOM      7  N   UNL     1       3.789   1.894  -0.242  0.00  0.00    -0.255 NA
ATOM      8  C   UNL     1       2.655   1.253  -0.197  0.00  0.00    +0.123 C 
BRANCH   8   9
ATOM      9  C   UNL     1       1.388   2.000  -0.202  0.00  0.00    +0.038 A 
ATOM     10  C   UNL     1       0.168   1.316  -0.154  0.00  0.00    +0.013 A 
ATOM     11  C   UNL     1      -1.016   2.019  -0.166  0.00  0.00    +0.004 A 
ATOM     12  C   UNL     1      -1.008   3.404  -0.213  0.00  0.00    +0.049 A 
ATOM     13  C   UNL     1       0.192   4.095  -0.262  0.00  0.00    +0.162 A 
ATOM     14  C   UNL     1       1.396   3.400  -0.257  0.00  0.00    +0.167 A 
BRANCH  14  15
ATOM     15  O   UNL     1       2.574   4.075  -0.304  0.00  0.00    -0.503 OA
ATOM     16  H   UNL     1       2.899   4.236  -1.200  0.00  0.00    +0.292 HD
ENDBRANCH  14  15
BRANCH  13  17
ATOM     17  O   UNL     1       0.191   5.454  -0.315  0.00  0.00    -0.491 OA
ATOM     18  C   UNL     1      -1.082   6.103  -0.318  0.00  0.00    +0.277 C 
ENDBRANCH  13  17
ENDBRANCH   8   9
ENDBRANCH   4   7
BRANCH   1  19
ATOM     19  O   UNL     1       8.527  -0.897  -0.220  0.00  0.00    -0.489 OA
BRANCH  19  20
ATOM     20  C   UNL     1       8.646  -1.966   0.721  0.00  0.00    +0.258 C 
BRANCH  20  21
ATOM     21  C   UNL     1      10.022  -2.620   0.580  0.00  0.00    +0.135 C 
BRANCH  21  22
ATOM     22  O   UNL     1      11.035  -1.681   0.945  0.00  0.00    -0.390 OA
ATOM     23  H   UNL     1      10.964  -1.360   1.854  0.00  0.00    +0.210 HD
ENDBRANCH  21  22
BRANCH  21  24
ATOM     24  C   UNL     1      10.103  -3.841   1.498  0.00  0.00    -0.043 C 
BRANCH  24  32
ATOM     25  C   UNL     1      10.610  -6.227  -0.136  0.00  0.00    -0.013 C 
ATOM     26  C   UNL     1      11.590  -5.063   0.029  0.00  0.00    -0.071 C 
ATOM     27  C   UNL     1      13.023  -5.577  -0.127  0.00  0.00    -0.016 C 
ATOM     28  C   UNL     1      13.307  -6.621   0.957  0.00  0.00    -0.003 C 
ATOM     29  C   UNL     1      13.080  -5.990   2.333  0.00  0.00    -0.016 C 
ATOM     30  C   UNL     1      11.646  -5.464   2.418  0.00  0.00    -0.071 C 
ATOM     31  C   UNL     1      11.421  -4.815   3.785  0.00  0.00    -0.013 C 
ATOM     32  N   UNL     1      11.444  -4.447   1.365  0.00  0.00    +0.385 N 
ATOM     33  H   UNL     1      12.154  -3.712   1.471  0.00  0.00    -0.081 HD
ENDBRANCH  24  32
ENDBRANCH  21  24
ENDBRANCH  20  21
ENDBRANCH  19  20
ENDBRANCH   1  19
TORSDOF 10
