REMARK  Name = ZINC00828844
REMARK  6 active torsions:
REMARK  status: ('A' for Active; 'I' for Inactive)
REMARK    1  A    between atoms: C_1  and  C_2
REMARK    2  A    between atoms: C_5  and  N_8
REMARK    3  A    between atoms: C_9  and  C_11
REMARK    4  A    between atoms: C_12  and  C_30
REMARK    5  A    between atoms: C_17  and  C_19
REMARK    6  A    between atoms: C_28  and  O_29
REMARK                            x       y       z     vdW  Elec       q    Type
REMARK                         _______ _______ _______ _____ _____    ______ ____
ROOT
ATOM      1  C   UNL     1       1.549   0.202   0.231  0.00  0.00    +0.056 C 
ATOM      2  C   UNL     1       2.524   1.030   0.659  0.00  0.00    +0.017 C 
ATOM      3  N   UNL     1       3.836   0.652   0.627  0.00  0.00    -0.300 N 
ATOM      4  C   UNL     1       4.255  -0.535   0.170  0.00  0.00    +0.135 C 
ATOM      5  S   UNL     1       5.931  -0.880   0.179  0.00  0.00    -0.019 S 
ATOM      6  N   UNL     1       3.400  -1.467  -0.296  0.00  0.00    -0.315 N 
ATOM      7  C   UNL     1       1.960  -1.157  -0.299  0.00  0.00    +0.143 C 
ATOM      8  C   UNL     1       2.159   2.394   1.187  0.00  0.00    +0.061 C 
ATOM      9  H   UNL     1       4.501   1.279   0.950  0.00  0.00    +0.154 HD
ATOM     10  H   UNL     1       3.725  -2.320  -0.623  0.00  0.00    +0.149 HD
ENDROOT
BRANCH   7  11
ATOM     11  C   UNL     1       1.462  -1.274  -1.716  0.00  0.00    +0.026 A 
ATOM     12  C   UNL     1       0.233  -1.900  -1.984  0.00  0.00    -0.009 A 
ATOM     13  C   UNL     1      -0.557  -2.428  -0.948  0.00  0.00    +0.009 A 
ATOM     14  C   UNL     1      -1.742  -3.027  -1.244  0.00  0.00    +0.001 A 
ATOM     15  C   UNL     1      -2.188  -3.125  -2.562  0.00  0.00    +0.001 A 
ATOM     16  C   UNL     1      -1.450  -2.625  -3.590  0.00  0.00    +0.008 A 
ATOM     17  C   UNL     1      -0.219  -2.000  -3.324  0.00  0.00    -0.017 A 
ATOM     18  C   UNL     1       0.569  -1.472  -4.361  0.00  0.00    +0.012 A 
ATOM     19  C   UNL     1       1.754  -0.872  -4.069  0.00  0.00    +0.046 A 
ATOM     20  C   UNL     1       2.200  -0.767  -2.747  0.00  0.00    +0.123 A 
BRANCH  20  21
ATOM     21  O   UNL     1       3.386  -0.157  -2.486  0.00  0.00    -0.506 OA
ATOM     22  H   UNL     1       4.146  -0.755  -2.494  0.00  0.00    +0.292 HD
ENDBRANCH  20  21
ENDBRANCH   7  11
BRANCH   1  24
ATOM     23  N   UNL     1      -0.278   1.503  -0.608  0.00  0.00    -0.282 N 
ATOM     24  C   UNL     1       0.188   0.591   0.269  0.00  0.00    +0.248 C 
ATOM     25  O   UNL     1      -0.563   0.102   1.094  0.00  0.00    -0.270 OA
ATOM     26  H   UNL     1       0.324   1.906  -1.253  0.00  0.00    +0.155 HD
BRANCH  23  31
ATOM     27  C   UNL     1      -5.749   2.997  -0.511  0.00  0.00    +0.044 C 
ATOM     28  C   UNL     1      -4.295   2.600  -0.537  0.00  0.00    -0.050 A 
ATOM     29  C   UNL     1      -3.562   2.741  -1.701  0.00  0.00    +0.005 A 
ATOM     30  C   UNL     1      -2.230   2.378  -1.728  0.00  0.00    +0.023 A 
ATOM     31  C   UNL     1      -1.626   1.871  -0.584  0.00  0.00    +0.034 A 
ATOM     32  C   UNL     1      -2.367   1.726   0.582  0.00  0.00    +0.023 A 
ATOM     33  C   UNL     1      -3.698   2.096   0.603  0.00  0.00    +0.005 A 
ENDBRANCH  23  31
ENDBRANCH   1  24
TORSDOF 4
