REMARK  Name = ZINC15037196
REMARK  6 active torsions:
REMARK  status: ('A' for Active; 'I' for Inactive)
REMARK    1  A    between atoms: C_4  and  N_7
REMARK    2  A    between atoms: C_8  and  C_10
REMARK    3  A    between atoms: C_10  and  C_11
REMARK    4  A    between atoms: C_11  and  N_12
REMARK    5  A    between atoms: C_16  and  C_17
REMARK    6  A    between atoms: C_20  and  O_23
REMARK                            x       y       z     vdW  Elec       q    Type
REMARK                         _______ _______ _______ _____ _____    ______ ____
ROOT
ATOM      1  N   UNL     1       4.283   6.038   0.303  0.00  0.00    -0.255 N 
ATOM      2  C   UNL     1       3.050   5.644   0.034  0.00  0.00    +0.258 C 
ATOM      3  O   UNL     1       2.138   6.440  -0.100  0.00  0.00    -0.269 OA
ATOM      4  C   UNL     1       2.834   4.189  -0.098  0.00  0.00    +0.077 C 
ATOM      5  C   UNL     1       1.693   3.504  -0.367  0.00  0.00    +0.028 C 
ATOM      6  S   UNL     1       4.487   3.577   0.202  0.00  0.00    -0.061 S 
ATOM      7  C   UNL     1       5.289   5.153   0.450  0.00  0.00    +0.121 C 
ATOM      8  S   UNL     1       6.937   5.464   0.796  0.00  0.00    -0.027 S 
ENDROOT
BRANCH   5   9
ATOM      9  C   UNL     1       1.749   2.061  -0.633  0.00  0.00    -0.024 A 
ATOM     10  C   UNL     1       0.584   1.287  -0.559  0.00  0.00    +0.011 A 
ATOM     11  C   UNL     1       0.642  -0.065  -0.809  0.00  0.00    +0.046 A 
ATOM     12  C   UNL     1       1.854  -0.663  -1.134  0.00  0.00    +0.117 A 
ATOM     13  C   UNL     1       3.013   0.100  -1.209  0.00  0.00    +0.046 A 
ATOM     14  C   UNL     1       2.967   1.453  -0.962  0.00  0.00    +0.011 A 
BRANCH  12  15
ATOM     15  O   UNL     1       1.905  -1.998  -1.379  0.00  0.00    -0.507 OA
ATOM     16  H   UNL     1       1.765  -2.233  -2.307  0.00  0.00    +0.292 HD
ENDBRANCH  12  15
ENDBRANCH   5   9
BRANCH   1  17
ATOM     17  C   UNL     1       4.561   7.469   0.446  0.00  0.00    +0.124 C 
BRANCH  17  18
ATOM     18  C   UNL     1       4.377   7.881   1.908  0.00  0.00    +0.115 C 
BRANCH  18  20
ATOM     19  N   UNL     1       4.564   9.942   3.264  0.00  0.00    -0.285 N 
ATOM     20  C   UNL     1       4.664   9.353   2.055  0.00  0.00    +0.219 C 
ATOM     21  O   UNL     1       4.984  10.009   1.086  0.00  0.00    -0.275 OA
ATOM     22  H   UNL     1       4.372   9.407   4.049  0.00  0.00    +0.155 HD
BRANCH  19  26
ATOM     23  C   UNL     1       5.080  14.060   3.624  0.00  0.00    +0.000 A 
ATOM     24  C   UNL     1       4.482  13.536   2.493  0.00  0.00    +0.002 A 
ATOM     25  C   UNL     1       4.309  12.171   2.370  0.00  0.00    +0.023 A 
ATOM     26  C   UNL     1       4.738  11.325   3.384  0.00  0.00    +0.033 A 
ATOM     27  C   UNL     1       5.333  11.855   4.521  0.00  0.00    +0.023 A 
ATOM     28  C   UNL     1       5.507  13.220   4.636  0.00  0.00    +0.002 A 
ENDBRANCH  19  26
ENDBRANCH  18  20
ENDBRANCH  17  18
ENDBRANCH   1  17
TORSDOF 6
