REMARK  Name = ZINC63141986
REMARK  8 active torsions:
REMARK  status: ('A' for Active; 'I' for Inactive)
REMARK    1  A    between atoms: C_1  and  C_2
REMARK    2  A    between atoms: C_2  and  C_3
REMARK    3  A    between atoms: C_2  and  O_4
REMARK    4  A    between atoms: O_4  and  C_5
REMARK    5  A    between atoms: C_5  and  C_6
REMARK    6  A    between atoms: C_6  and  C_7
REMARK    7  A    between atoms: C_7  and  N_8
REMARK    8  A    between atoms: C_28  and  C_30
REMARK                            x       y       z     vdW  Elec       q    Type
REMARK                         _______ _______ _______ _____ _____    ______ ____
ROOT
ATOM      1  N   UNL     1       0.572  -1.902   5.823  0.00  0.00    -0.291 N 
ATOM      2  C   UNL     1       0.755  -3.336   5.972  0.00  0.00    +0.203 C 
ATOM      3  C   UNL     1       1.593  -3.678   7.159  0.00  0.00    +0.234 C 
ATOM      4  O   UNL     1       1.807  -4.851   7.378  0.00  0.00    -0.274 OA
ATOM      5  N   UNL     1       2.124  -2.782   7.999  0.00  0.00    -0.279 N 
ATOM      6  C   UNL     1       1.951  -1.343   7.829  0.00  0.00    +0.167 C 
ATOM      7  C   UNL     1       1.107  -1.001   6.646  0.00  0.00    +0.237 C 
ATOM      8  O   UNL     1       0.893   0.171   6.421  0.00  0.00    -0.274 OA
ATOM      9  C   UNL     1       3.325  -0.661   7.695  0.00  0.00    +0.065 C 
ATOM     10  C   UNL     1       4.197  -1.235   8.784  0.00  0.00    -0.034 C 
ATOM     11  C   UNL     1       4.946  -0.650   9.711  0.00  0.00    -0.001 A 
ATOM     12  C   UNL     1       5.288   0.761   9.948  0.00  0.00    +0.010 A 
ATOM     13  C   UNL     1       6.079   1.013  11.025  0.00  0.00    +0.001 A 
ATOM     14  C   UNL     1       6.558   0.015  11.879  0.00  0.00    +0.002 A 
ATOM     15  C   UNL     1       6.301  -1.309  11.730  0.00  0.00    +0.026 A 
ATOM     16  C   UNL     1       5.486  -1.700  10.628  0.00  0.00    +0.043 A 
ATOM     17  N   UNL     1       5.107  -2.882  10.240  0.00  0.00    -0.375 N 
ATOM     18  C   UNL     1       4.337  -2.736   9.005  0.00  0.00    +0.131 C 
ATOM     19  C   UNL     1       2.916  -3.291   9.142  0.00  0.00    +0.133 C 
ATOM     20  H   UNL     1       5.302  -3.717  10.692  0.00  0.00    +0.160 HD
ENDROOT
BRANCH  19  21
ATOM     21  C   UNL     1       2.950  -4.797   9.109  0.00  0.00    -0.023 A 
ATOM     22  C   UNL     1       3.903  -5.451   8.351  0.00  0.00    +0.005 A 
ATOM     23  C   UNL     1       3.935  -6.832   8.321  0.00  0.00    +0.002 A 
ATOM     24  C   UNL     1       3.013  -7.561   9.049  0.00  0.00    +0.020 A 
ATOM     25  C   UNL     1       2.059  -6.907   9.808  0.00  0.00    +0.041 A 
ATOM     26  C   UNL     1       2.031  -5.524   9.842  0.00  0.00    +0.025 A 
ATOM     27 CL   UNL     1       0.901  -7.822  10.723  0.00  0.00    -0.084 Cl
ENDBRANCH  19  21
BRANCH   1  28
ATOM     28  C   UNL     1      -0.242  -1.420   4.705  0.00  0.00    +0.110 C 
BRANCH  28  29
ATOM     29  C   UNL     1       0.651  -1.194   3.484  0.00  0.00    +0.047 C 
BRANCH  29  30
ATOM     30  C   UNL     1      -0.199  -0.690   2.315  0.00  0.00    +0.161 C 
BRANCH  30  31
ATOM     31  O   UNL     1       0.636  -0.479   1.175  0.00  0.00    -0.377 OA
BRANCH  31  33
ATOM     32  C   UNL     1      -0.084   1.524   0.031  0.00  0.00    +0.037 C 
ATOM     33  C   UNL     1      -0.063  -0.006   0.022  0.00  0.00    +0.112 C 
ATOM     34  C   UNL     1       0.644  -0.499  -1.241  0.00  0.00    +0.037 C 
ENDBRANCH  31  33
ENDBRANCH  30  31
ENDBRANCH  29  30
ENDBRANCH  28  29
ENDBRANCH   1  28
TORSDOF 6
