REMARK  Name = ZINC21350098
REMARK  6 active torsions:
REMARK  status: ('A' for Active; 'I' for Inactive)
REMARK    1  A    between atoms: C_1  and  C_2
REMARK    2  A    between atoms: C_8  and  C_10
REMARK    3  A    between atoms: N_15  and  C_17
REMARK    4  A    between atoms: C_17  and  C_18
REMARK    5  A    between atoms: C_17  and  C_19
REMARK    6  A    between atoms: C_17  and  C_20
REMARK                            x       y       z     vdW  Elec       q    Type
REMARK                         _______ _______ _______ _____ _____    ______ ____
ROOT
ATOM      1  C   UNL     1      -2.469  -3.980   1.794  0.00  0.00    +0.101 C 
ATOM      2  C   UNL     1      -2.624  -4.776   0.477  0.00  0.00    +0.110 C 
ATOM      3  C   UNL     1      -3.559  -5.910   0.837  0.00  0.00    +0.217 C 
ATOM      4  O   UNL     1      -4.155  -6.599   0.037  0.00  0.00    -0.276 OA
ATOM      5  N   UNL     1      -3.631  -6.043   2.173  0.00  0.00    -0.296 N 
ATOM      6  C   UNL     1      -2.780  -5.059   2.854  0.00  0.00    +0.121 C 
ENDROOT
BRANCH   1  14
ATOM      7  C   UNL     1      -0.019   1.526   0.010  0.00  0.00    +0.007 C 
ATOM      8  C   UNL     1       0.002  -0.004   0.002  0.00  0.00    -0.011 C 
ATOM      9  C   UNL     1      -1.434  -0.533   0.011  0.00  0.00    +0.022 C 
ATOM     10  C   UNL     1      -1.409  -2.065  -0.032  0.00  0.00    +0.108 C 
ATOM     11  N   UNL     1      -0.578  -2.556   1.075  0.00  0.00    -0.301 N 
ATOM     12  C   UNL     1       0.791  -2.042   1.212  0.00  0.00    +0.108 C 
ATOM     13  C   UNL     1       0.742  -0.511   1.242  0.00  0.00    +0.022 C 
ATOM     14  C   UNL     1      -1.062  -3.462   1.948  0.00  0.00    +0.221 C 
ATOM     15  O   UNL     1      -0.366  -3.860   2.857  0.00  0.00    -0.275 OA
ENDBRANCH   1  14
BRANCH   5  16
ATOM     16  C   UNL     1      -4.454  -7.040   2.861  0.00  0.00    +0.029 C 
ATOM     17  C   UNL     1      -5.200  -7.886   1.827  0.00  0.00    +0.031 C 
ATOM     18  C   UNL     1      -3.558  -7.944   3.708  0.00  0.00    +0.031 C 
ATOM     19  C   UNL     1      -5.465  -6.332   3.765  0.00  0.00    +0.031 C 
ENDBRANCH   5  16
TORSDOF 2
