REMARK  Name = ZINC63561156
REMARK  5 active torsions:
REMARK  status: ('A' for Active; 'I' for Inactive)
REMARK    1  A    between atoms: C_7  and  C_10
REMARK    2  A    between atoms: C_10  and  C_11
REMARK    3  A    between atoms: C_11  and  N_12
REMARK    4  A    between atoms: C_13  and  C_30
REMARK    5  A    between atoms: C_16  and  C_23
REMARK                            x       y       z     vdW  Elec       q    Type
REMARK                         _______ _______ _______ _____ _____    ______ ____
ROOT
ATOM      1  N   UNL     1      -0.458  -4.798  -1.460  0.00  0.00    -0.287 N 
ATOM      2  C   UNL     1      -0.050  -6.218  -1.362  0.00  0.00    +0.156 C 
ATOM      3  C   UNL     1      -1.270  -6.903  -0.802  0.00  0.00    +0.019 C 
ATOM      4  C   UNL     1      -1.995  -7.742  -0.084  0.00  0.00    +0.097 C 
ATOM      5  N   UNL     1      -3.271  -7.269   0.037  0.00  0.00    -0.153 NA
ATOM      6  N   UNL     1      -3.536  -6.342  -0.744  0.00  0.00    -0.170 NA
ATOM      7  C   UNL     1      -2.357  -6.121  -1.572  0.00  0.00    +0.244 C 
ATOM      8  C   UNL     1      -1.812  -4.720  -1.543  0.00  0.00    +0.247 C 
ATOM      9  O   UNL     1      -2.465  -3.699  -1.588  0.00  0.00    -0.273 OA
ENDROOT
BRANCH   4  10
ATOM     10  C   UNL     1      -1.498  -9.010   0.504  0.00  0.00    +0.002 A 
ATOM     11  C   UNL     1      -0.170  -9.392   0.320  0.00  0.00    +0.011 A 
ATOM     12  C   UNL     1       0.288 -10.572   0.870  0.00  0.00    +0.016 A 
ATOM     13  C   UNL     1      -0.569 -11.376   1.602  0.00  0.00    +0.018 A 
ATOM     14  C   UNL     1      -1.889 -11.001   1.787  0.00  0.00    +0.016 A 
ATOM     15  C   UNL     1      -2.355  -9.820   1.246  0.00  0.00    +0.011 A 
ATOM     16 BR   UNL     1       0.065 -12.992   2.351  0.00  0.00    -0.050 Br
ENDBRANCH   4  10
BRANCH   2  17
ATOM     17  C   UNL     1       1.121  -6.369  -0.426  0.00  0.00    +0.066 A 
ATOM     18  C   UNL     1       2.332  -6.823  -0.915  0.00  0.00    +0.025 A 
ATOM     19  C   UNL     1       3.404  -6.958  -0.046  0.00  0.00    +0.003 A 
ATOM     20  C   UNL     1       3.217  -6.629   1.288  0.00  0.00    +0.020 A 
ATOM     21  C   UNL     1       1.978  -6.182   1.704  0.00  0.00    +0.111 A 
ATOM     22  N   UNL     1       0.982  -6.061   0.848  0.00  0.00    -0.258 NA
ENDBRANCH   2  17
BRANCH   1  23
ATOM     23  C   UNL     1       0.457  -3.653  -1.462  0.00  0.00    +0.113 C 
BRANCH  23  24
ATOM     24  C   UNL     1       0.691  -3.186  -0.024  0.00  0.00    +0.052 C 
BRANCH  24  31
ATOM     25  C   UNL     1      -0.016   1.348   0.009  0.00  0.00    +0.001 A 
ATOM     26  C   UNL     1       1.166   2.101   0.002  0.00  0.00    +0.002 A 
ATOM     27  C   UNL     1       2.391   1.535  -0.013  0.00  0.00    +0.026 A 
ATOM     28  C   UNL     1       2.529   0.120  -0.022  0.00  0.00    +0.043 A 
ATOM     29  N   UNL     1       3.587  -0.654  -0.037  0.00  0.00    -0.380 N 
ATOM     30  C   UNL     1       3.143  -2.053  -0.041  0.00  0.00    +0.144 C 
ATOM     31  C   UNL     1       1.631  -2.008  -0.025  0.00  0.00    -0.040 C 
ATOM     32  C   UNL     1       1.295  -0.698  -0.014  0.00  0.00    -0.001 A 
ATOM     33  C   UNL     1       0.002  -0.004   0.002  0.00  0.00    +0.010 A 
ATOM     34  H   UNL     1       4.509  -0.353  -0.045  0.00  0.00    +0.160 HD
ENDBRANCH  24  31
ENDBRANCH  23  24
ENDBRANCH   1  23
TORSDOF 5
