REMARK  Name = ZINC19691716
REMARK  9 active torsions:
REMARK  status: ('A' for Active; 'I' for Inactive)
REMARK    1  A    between atoms: C_1  and  O_2
REMARK    2  A    between atoms: O_2  and  C_3
REMARK    3  A    between atoms: C_6  and  N_9
REMARK    4  A    between atoms: C_12  and  C_32
REMARK    5  A    between atoms: C_13  and  C_26
REMARK    6  A    between atoms: C_15  and  C_22
REMARK    7  A    between atoms: C_18  and  O_21
REMARK    8  A    between atoms: C_22  and  O_24
REMARK    9  A    between atoms: O_24  and  C_25
REMARK                            x       y       z     vdW  Elec       q    Type
REMARK                         _______ _______ _______ _____ _____    ______ ____
ROOT
ATOM      1  N   UNL     1       1.492   6.181   0.902  0.00  0.00    -0.253 N 
ATOM      2  C   UNL     1       2.506   5.136   0.865  0.00  0.00    +0.145 C 
ATOM      3  C   UNL     1       2.346   4.180  -0.265  0.00  0.00    -0.001 C 
ATOM      4  C   UNL     1       3.307   3.745  -1.078  0.00  0.00    +0.022 C 
ATOM      5  S   UNL     1       4.984   4.272  -1.040  0.00  0.00    -0.105 S 
ATOM      6  C   UNL     1       5.141   5.114   0.569  0.00  0.00    +0.191 C 
ATOM      7  C   UNL     1       3.835   5.848   0.779  0.00  0.00    +0.026 C 
ATOM      8  C   UNL     1       3.597   7.140   0.906  0.00  0.00    +0.182 C 
ATOM      9  C   UNL     1       2.142   7.360   1.002  0.00  0.00    +0.286 C 
ATOM     10  O   UNL     1       1.608   8.443   1.149  0.00  0.00    -0.266 OA
ENDROOT
BRANCH   1  14
ATOM     11  C   UNL     1      -2.638   5.638   0.722  0.00  0.00    +0.120 A 
ATOM     12  C   UNL     1      -1.923   5.161   1.810  0.00  0.00    +0.047 A 
ATOM     13  C   UNL     1      -0.555   5.340   1.871  0.00  0.00    +0.027 A 
ATOM     14  C   UNL     1       0.105   5.999   0.841  0.00  0.00    +0.038 A 
ATOM     15  C   UNL     1      -0.613   6.481  -0.246  0.00  0.00    +0.027 A 
ATOM     16  C   UNL     1      -1.980   6.296  -0.307  0.00  0.00    +0.047 A 
BRANCH  11  18
ATOM     17  C   UNL     1      -4.657   5.978  -0.487  0.00  0.00    +0.277 C 
ATOM     18  O   UNL     1      -3.985   5.461   0.663  0.00  0.00    -0.495 OA
ENDBRANCH  11  18
ENDBRANCH   1  14
BRANCH   4  19
ATOM     19  C   UNL     1       2.934   2.740  -2.095  0.00  0.00    -0.011 A 
ATOM     20  C   UNL     1       2.277   1.568  -1.715  0.00  0.00    +0.009 A 
ATOM     21  C   UNL     1       1.927   0.636  -2.670  0.00  0.00    +0.001 A 
ATOM     22  C   UNL     1       2.235   0.856  -4.000  0.00  0.00    +0.000 A 
ATOM     23  C   UNL     1       2.890   2.012  -4.384  0.00  0.00    +0.001 A 
ATOM     24  C   UNL     1       3.241   2.955  -3.440  0.00  0.00    +0.009 A 
ENDBRANCH   4  19
BRANCH   3  25
ATOM     25  C   UNL     1       0.989   3.667  -0.511  0.00  0.00    -0.019 A 
ATOM     26  C   UNL     1       0.374   2.828   0.423  0.00  0.00    +0.008 A 
ATOM     27  C   UNL     1      -0.898   2.353   0.185  0.00  0.00    +0.001 A 
ATOM     28  C   UNL     1      -1.564   2.700  -0.977  0.00  0.00    +0.000 A 
ATOM     29  C   UNL     1      -0.965   3.534  -1.904  0.00  0.00    +0.001 A 
ATOM     30  C   UNL     1       0.307   4.018  -1.681  0.00  0.00    +0.008 A 
ENDBRANCH   3  25
BRANCH   8  31
ATOM     31  O   UNL     1       4.545   8.115   0.943  0.00  0.00    -0.502 OA
ATOM     32  H   UNL     1       4.246   9.168   1.052  0.00  0.00    +0.292 HD
ENDBRANCH   8  31
BRANCH   6  33
ATOM     33  C   UNL     1       5.352   4.104   1.667  0.00  0.00    +0.325 C 
ATOM     34  O   UNL     1       4.402   3.564   2.181  0.00  0.00    -0.249 OA
BRANCH  33  35
ATOM     35  O   UNL     1       6.596   3.803   2.072  0.00  0.00    -0.467 OA
ATOM     36  C   UNL     1       6.724   2.821   3.134  0.00  0.00    +0.280 C 
ENDBRANCH  33  35
ENDBRANCH   6  33
TORSDOF 7
