REMARK  Name = ZINC63279752
REMARK  9 active torsions:
REMARK  status: ('A' for Active; 'I' for Inactive)
REMARK    1  A    between atoms: C_1  and  C_2
REMARK    2  A    between atoms: C_2  and  C_4
REMARK    3  A    between atoms: C_2  and  N_14
REMARK    4  A    between atoms: C_4  and  C_5
REMARK    5  A    between atoms: C_15  and  C_17
REMARK    6  A    between atoms: C_17  and  C_19
REMARK    7  A    between atoms: C_17  and  N_22
REMARK    8  A    between atoms: C_19  and  C_20
REMARK    9  A    between atoms: C_19  and  C_21
REMARK                            x       y       z     vdW  Elec       q    Type
REMARK                         _______ _______ _______ _____ _____    ______ ____
ROOT
ATOM      1  N   UNL     1      -1.274  -1.315   0.125  0.00  0.00    -0.311 N 
ATOM      2  C   UNL     1      -2.047  -0.817   1.111  0.00  0.00    +0.236 C 
ATOM      3  O   UNL     1      -1.554  -0.123   1.976  0.00  0.00    -0.274 OA
ATOM      4  H   UNL     1      -1.654  -1.926  -0.526  0.00  0.00    +0.149 HD
ENDROOT
BRANCH   1   6
ATOM      5  C   UNL     1       0.263   0.384  -0.730  0.00  0.00    +0.028 C 
ATOM      6  C   UNL     1       0.137  -0.934   0.037  0.00  0.00    +0.074 C 
BRANCH   6   7
ATOM      7  C   UNL     1       0.916  -2.028  -0.697  0.00  0.00    +0.055 C 
BRANCH   7   8
ATOM      8  C   UNL     1       0.895  -3.294   0.121  0.00  0.00    -0.040 C 
ATOM      9  C   UNL     1       0.035  -4.330  -0.007  0.00  0.00    -0.001 A 
ATOM     10  C   UNL     1      -1.095  -4.579  -0.910  0.00  0.00    +0.010 A 
ATOM     11  C   UNL     1      -1.783  -5.737  -0.795  0.00  0.00    +0.001 A 
ATOM     12  C   UNL     1      -1.446  -6.703   0.163  0.00  0.00    +0.002 A 
ATOM     13  C   UNL     1      -0.421  -6.546   1.027  0.00  0.00    +0.026 A 
ATOM     14  C   UNL     1       0.371  -5.366   0.996  0.00  0.00    +0.043 A 
ATOM     15  N   UNL     1       1.399  -4.985   1.715  0.00  0.00    -0.380 N 
ATOM     16  C   UNL     1       1.835  -3.665   1.246  0.00  0.00    +0.144 C 
ATOM     17  H   UNL     1       1.805  -5.493   2.435  0.00  0.00    +0.160 HD
ENDBRANCH   7   8
ENDBRANCH   6   7
ENDBRANCH   1   6
BRANCH   2  18
ATOM     18  C   UNL     1      -3.522  -1.121   1.139  0.00  0.00    +0.183 C 
BRANCH  18  19
ATOM     19  N   UNL     1      -4.013  -1.033   2.517  0.00  0.00    -0.205 N 
ATOM     20  C   UNL     1      -4.565  -2.127   3.090  0.00  0.00    +0.264 C 
ATOM     21  O   UNL     1      -4.575  -3.201   2.520  0.00  0.00    -0.269 OA
ATOM     22  C   UNL     1      -5.155  -1.970   4.434  0.00  0.00    +0.060 A 
ATOM     23  C   UNL     1      -5.529  -3.047   5.226  0.00  0.00    +0.015 A 
ATOM     24  C   UNL     1      -6.077  -2.811   6.472  0.00  0.00    +0.001 A 
ATOM     25  C   UNL     1      -6.253  -1.515   6.930  0.00  0.00    +0.002 A 
ATOM     26  C   UNL     1      -5.883  -0.434   6.151  0.00  0.00    +0.025 A 
ATOM     27  C   UNL     1      -5.332  -0.653   4.902  0.00  0.00    +0.055 A 
ATOM     28  N   UNL     1      -4.926   0.377   4.062  0.00  0.00    -0.264 N 
ATOM     29  N   UNL     1      -3.896   0.145   3.188  0.00  0.00    -0.157 NA
ATOM     30  H   UNL     1      -5.362   1.243   4.095  0.00  0.00    +0.168 HD
ATOM     31  H   UNL     1      -3.002   0.210   3.652  0.00  0.00    +0.168 HD
ENDBRANCH  18  19
BRANCH  18  32
ATOM     32  C   UNL     1      -4.268  -0.109   0.267  0.00  0.00    +0.014 C 
ATOM     33  C   UNL     1      -3.906   1.310   0.709  0.00  0.00    +0.009 C 
ATOM     34  C   UNL     1      -3.869  -0.305  -1.197  0.00  0.00    +0.009 C 
ENDBRANCH  18  32
ENDBRANCH   2  18
TORSDOF 6
