REMARK  Name = ZINC40687327
REMARK  5 active torsions:
REMARK  status: ('A' for Active; 'I' for Inactive)
REMARK    1  A    between atoms: C_1  and  C_2
REMARK    2  A    between atoms: C_6  and  N_9
REMARK    3  A    between atoms: C_7  and  C_8
REMARK    4  A    between atoms: C_11  and  N_25
REMARK    5  A    between atoms: C_12  and  N_16
REMARK                            x       y       z     vdW  Elec       q    Type
REMARK                         _______ _______ _______ _____ _____    ______ ____
ROOT
ATOM      1  N   UNL     1       0.060  -2.797   2.392  0.00  0.00    -0.299 N 
ATOM      2  C   UNL     1      -0.029  -4.185   2.384  0.00  0.00    +0.126 A 
ATOM      3  C   UNL     1      -0.127  -4.896   3.581  0.00  0.00    +0.104 A 
ATOM      4  C   UNL     1      -0.215  -6.288   3.516  0.00  0.00    +0.151 A 
ATOM      5  N   UNL     1      -0.203  -6.880   2.324  0.00  0.00    -0.220 NA
ATOM      6  C   UNL     1      -0.109  -6.171   1.217  0.00  0.00    +0.200 A 
ATOM      7  N   UNL     1      -0.029  -4.856   1.234  0.00  0.00    -0.333 N 
ATOM      8  H   UNL     1       0.150  -2.322   3.232  0.00  0.00    +0.154 HD
ATOM      9  H   UNL     1       0.035  -4.370   0.397  0.00  0.00    +0.168 HD
ENDROOT
BRANCH   4  10
ATOM     10  N   UNL     1      -0.314  -7.044   4.679  0.00  0.00    -0.283 N 
ATOM     11  C   UNL     1      -1.565  -7.343   5.383  0.00  0.00    +0.117 C 
ATOM     12  C   UNL     1      -1.152  -8.198   6.591  0.00  0.00    +0.056 C 
ATOM     13  C   UNL     1       0.350  -8.322   6.474  0.00  0.00    -0.025 A 
ATOM     14  C   UNL     1       0.762  -7.636   5.343  0.00  0.00    +0.038 A 
ATOM     15  C   UNL     1       2.121  -7.614   5.021  0.00  0.00    +0.024 A 
ATOM     16  C   UNL     1       3.035  -8.270   5.817  0.00  0.00    +0.002 A 
ATOM     17  C   UNL     1       2.613  -8.956   6.941  0.00  0.00    +0.000 A 
ATOM     18  C   UNL     1       1.270  -8.974   7.272  0.00  0.00    +0.005 A 
ENDBRANCH   4  10
BRANCH   1  24
ATOM     19  C   UNL     1      -2.447  -1.322  -1.570  0.00  0.00    +0.044 C 
ATOM     20  C   UNL     1      -1.181  -1.355  -0.753  0.00  0.00    -0.046 A 
ATOM     21  C   UNL     1      -0.056  -0.683  -1.194  0.00  0.00    +0.004 A 
ATOM     22  C   UNL     1       1.107  -0.711  -0.447  0.00  0.00    +0.002 A 
ATOM     23  C   UNL     1       1.149  -1.411   0.743  0.00  0.00    +0.023 A 
ATOM     24  C   UNL     1       0.021  -2.088   1.189  0.00  0.00    +0.036 A 
ATOM     25  C   UNL     1      -1.148  -2.053   0.438  0.00  0.00    -0.026 A 
ATOM     26  C   UNL     1      -2.376  -2.781   0.921  0.00  0.00    +0.046 C 
ENDBRANCH   1  24
BRANCH   3  27
ATOM     27  N   UNL     1      -0.137  -4.230   4.817  0.00  0.00    -0.353 N 
ATOM     28  H   UNL     1      -0.149  -3.260   4.845  0.00  0.00    +0.143 HD
ATOM     29  H   UNL     1      -0.131  -4.739   5.643  0.00  0.00    +0.143 HD
ENDBRANCH   3  27
TORSDOF 3
