REMARK  Name = ZINC08826054
REMARK  12 active torsions:
REMARK  status: ('A' for Active; 'I' for Inactive)
REMARK    1  A    between atoms: C_1  and  O_2
REMARK    2  A    between atoms: O_2  and  C_3
REMARK    3  A    between atoms: C_3  and  C_4
REMARK    4  A    between atoms: C_4  and  N_5
REMARK    5  A    between atoms: N_12  and  C_23
REMARK    6  A    between atoms: N_15  and  C_16
REMARK    7  A    between atoms: C_16  and  C_17
REMARK    8  A    between atoms: C_23  and  C_24
REMARK    9  A    between atoms: C_24  and  O_26
REMARK   10  A    between atoms: O_26  and  C_27
REMARK   11  A    between atoms: C_27  and  C_28
REMARK   12  A    between atoms: C_33  and  C_34
REMARK                            x       y       z     vdW  Elec       q    Type
REMARK                         _______ _______ _______ _____ _____    ______ ____
ROOT
ATOM      1  N   UNL     1       9.862   0.422   2.058  0.00  0.00    -0.322 N 
ATOM      2  C   UNL     1      10.866  -0.205   1.416  0.00  0.00    +0.202 A 
ATOM      3  N   UNL     1      10.696  -0.100   0.122  0.00  0.00    -0.218 NA
ATOM      4  C   UNL     1       9.585   0.595  -0.133  0.00  0.00    +0.168 A 
ATOM      5  C   UNL     1       9.027   0.944   1.090  0.00  0.00    +0.152 A 
ATOM      6  C   UNL     1       7.833   1.696   1.112  0.00  0.00    +0.283 A 
ATOM      7  O   UNL     1       7.327   2.018   2.172  0.00  0.00    -0.265 OA
ATOM      8  N   UNL     1       7.255   2.049  -0.055  0.00  0.00    -0.248 N 
ATOM      9  C   UNL     1       7.806   1.704  -1.232  0.00  0.00    +0.334 A 
ATOM     10  O   UNL     1       7.260   2.045  -2.264  0.00  0.00    -0.246 OA
ATOM     11  N   UNL     1       8.947   0.992  -1.297  0.00  0.00    -0.272 N 
ENDROOT
BRANCH   1  12
ATOM     12  C   UNL     1       9.689   0.531   3.509  0.00  0.00    +0.151 C 
BRANCH  12  13
ATOM     13  C   UNL     1       8.761  -0.583   3.997  0.00  0.00    +0.181 C 
BRANCH  13  15
ATOM     14  C   UNL     1       7.739  -1.476   5.972  0.00  0.00    +0.194 C 
ATOM     15  O   UNL     1       8.593  -0.476   5.412  0.00  0.00    -0.381 OA
ENDBRANCH  13  15
ENDBRANCH  12  13
ENDBRANCH   1  12
BRANCH  11  16
ATOM     16  C   UNL     1       9.514   0.637  -2.600  0.00  0.00    +0.163 C 
BRANCH  16  17
ATOM     17  C   UNL     1      10.460   1.720  -3.048  0.00  0.00    -0.028 A 
ATOM     18  C   UNL     1       9.992   2.778  -3.805  0.00  0.00    +0.005 A 
ATOM     19  C   UNL     1      10.860   3.774  -4.212  0.00  0.00    +0.000 A 
ATOM     20  C   UNL     1      12.198   3.708  -3.871  0.00  0.00    +0.000 A 
ATOM     21  C   UNL     1      12.667   2.647  -3.118  0.00  0.00    +0.000 A 
ATOM     22  C   UNL     1      11.798   1.654  -2.707  0.00  0.00    +0.005 A 
ENDBRANCH  16  17
ENDBRANCH  11  16
BRANCH   8  23
ATOM     23  C   UNL     1       6.013   2.825  -0.040  0.00  0.00    +0.250 C 
BRANCH  23  24
ATOM     24  C   UNL     1       4.834   1.887  -0.033  0.00  0.00    +0.328 C 
ATOM     25  O   UNL     1       5.014   0.692  -0.041  0.00  0.00    -0.249 OA
BRANCH  24  26
ATOM     26  O   UNL     1       3.585   2.378  -0.019  0.00  0.00    -0.459 OA
BRANCH  26  27
ATOM     27  C   UNL     1       2.498   1.415  -0.014  0.00  0.00    +0.269 C 
BRANCH  27  28
ATOM     28  C   UNL     1       1.180   2.145   0.002  0.00  0.00    +0.007 A 
ATOM     29  C   UNL     1       1.154   3.525   0.010  0.00  0.00    +0.008 A 
ATOM     30  C   UNL     1      -0.055   4.197   0.025  0.00  0.00    +0.000 A 
ATOM     31  C   UNL     1      -1.246   3.492   0.032  0.00  0.00    +0.001 A 
ATOM     32  C   UNL     1      -1.234   2.113   0.019  0.00  0.00    +0.019 A 
ATOM     33  C   UNL     1      -0.017   1.428   0.010  0.00  0.00    +0.058 A 
BRANCH  33  34
ATOM     34  C   UNL     1       0.002  -0.004   0.002  0.00  0.00    +0.100 C 
ATOM     35  N   UNL     1       0.018  -1.140  -0.004  0.00  0.00    -0.191 NA
ENDBRANCH  33  34
ENDBRANCH  27  28
ENDBRANCH  26  27
ENDBRANCH  24  26
ENDBRANCH  23  24
ENDBRANCH   8  23
TORSDOF 11
