REMARK  Name = ZINC31370841
REMARK  6 active torsions:
REMARK  status: ('A' for Active; 'I' for Inactive)
REMARK    1  A    between atoms: C_1  and  C_2
REMARK    2  A    between atoms: C_5  and  C_7
REMARK    3  A    between atoms: C_9  and  C_12
REMARK    4  A    between atoms: N_14  and  C_15
REMARK    5  A    between atoms: C_15  and  C_17
REMARK    6  A    between atoms: C_15  and  C_18
REMARK                            x       y       z     vdW  Elec       q    Type
REMARK                         _______ _______ _______ _____ _____    ______ ____
ROOT
ATOM      1  C   UNL     1       7.268  -0.636  -3.829  0.00  0.00    +0.263 C 
ATOM      2  O   UNL     1       7.096  -1.718  -4.358  0.00  0.00    -0.268 OA
ATOM      3  N   UNL     1       6.208   0.108  -3.458  0.00  0.00    -0.304 N 
ATOM      4  H   UNL     1       6.363   1.086  -2.979  0.00  0.00    +0.150 HD
ENDROOT
BRANCH   1   7
ATOM      5  C   UNL     1      10.064   1.472  -2.812  0.00  0.00    +0.144 A 
ATOM      6  N   UNL     1       8.831   1.037  -3.018  0.00  0.00    -0.231 NA
ATOM      7  C   UNL     1       8.635  -0.140  -3.594  0.00  0.00    +0.133 A 
ATOM      8  C   UNL     1       9.721  -0.893  -3.964  0.00  0.00    +0.080 A 
ATOM      9  S   UNL     1      11.037   0.130  -3.477  0.00  0.00    -0.072 S 
BRANCH   5  14
ATOM     10  C   UNL     1       9.962   5.972  -0.605  0.00  0.00    +0.086 C 
ATOM     11  C   UNL     1      10.476   4.701  -1.231  0.00  0.00    +0.103 A 
ATOM     12  C   UNL     1      11.775   4.377  -1.398  0.00  0.00    +0.045 A 
ATOM     13  C   UNL     1      11.809   3.114  -2.018  0.00  0.00    +0.052 A 
ATOM     14  C   UNL     1      10.514   2.730  -2.197  0.00  0.00    +0.160 A 
ATOM     15  O   UNL     1       9.718   3.707  -1.719  0.00  0.00    -0.458 OA
ENDBRANCH   5  14
ENDBRANCH   1   7
BRANCH   3  16
ATOM     16  C   UNL     1       4.848  -0.386  -3.691  0.00  0.00    +0.100 C 
ATOM     17  C   UNL     1       4.414  -0.030  -5.114  0.00  0.00    +0.033 C 
BRANCH  16  18
ATOM     18  C   UNL     1       3.905   0.252  -2.704  0.00  0.00    -0.025 A 
ATOM     19  C   UNL     1       4.049   1.588  -2.378  0.00  0.00    +0.009 A 
ATOM     20  C   UNL     1       3.188   2.181  -1.472  0.00  0.00    +0.048 A 
ATOM     21  C   UNL     1       2.179   1.435  -0.891  0.00  0.00    +0.142 A 
ATOM     22  C   UNL     1       2.034   0.088  -1.219  0.00  0.00    +0.076 A 
ATOM     23  C   UNL     1       2.899  -0.500  -2.126  0.00  0.00    +0.032 A 
ATOM     24  N   UNL     1       1.007  -0.657  -0.621  0.00  0.00    -0.280 N 
ATOM     25  C   UNL     1       0.002  -0.004   0.002  0.00  0.00    +0.255 C 
ATOM     26  O   UNL     1      -0.881  -0.628   0.552  0.00  0.00    -0.272 OA
ATOM     27  C   UNL     1      -0.018   1.503   0.010  0.00  0.00    +0.325 C 
ATOM     28  O   UNL     1       1.322   2.002   0.000  0.00  0.00    -0.481 OA
ATOM     29  H   UNL     1       1.028  -1.756  -0.664  0.00  0.00    +0.155 HD
ENDBRANCH  16  18
ENDBRANCH   3  16
TORSDOF 4
