REMARK  Name = ZINC16310378
REMARK  7 active torsions:
REMARK  status: ('A' for Active; 'I' for Inactive)
REMARK    1  A    between atoms: C_1  and  C_2
REMARK    2  A    between atoms: C_5  and  S_8
REMARK    3  A    between atoms: S_8  and  N_11
REMARK    4  A    between atoms: N_11  and  N_12
REMARK    5  A    between atoms: N_12  and  C_13
REMARK    6  A    between atoms: C_15  and  C_24
REMARK    7  A    between atoms: C_16  and  C_22
REMARK                            x       y       z     vdW  Elec       q    Type
REMARK                         _______ _______ _______ _____ _____    ______ ____
ROOT
ATOM      1  N   UNL     1       2.337  -4.649   1.179  0.00  0.00    -0.268 N 
ATOM      2  H   UNL     1       2.322  -3.745   1.531  0.00  0.00    +0.167 HD
ENDROOT
BRANCH   1   3
ATOM      3  C   UNL     1       3.183  -5.558   1.697  0.00  0.00    +0.099 C 
ATOM      4  C   UNL     1       4.104  -5.177   2.668  0.00  0.00    +0.056 C 
ATOM      5  C   UNL     1       4.905  -6.146   3.312  0.00  0.00    -0.015 C 
ATOM      6  C   UNL     1       5.813  -5.728   4.274  0.00  0.00    +0.117 C 
ATOM      7  C   UNL     1       5.919  -4.304   4.597  0.00  0.00    +0.261 C 
ATOM      8  O   UNL     1       6.716  -3.937   5.441  0.00  0.00    -0.269 OA
ATOM      9  N   UNL     1       5.149  -3.397   3.973  0.00  0.00    -0.248 N 
ATOM     10  C   UNL     1       4.260  -3.763   3.031  0.00  0.00    +0.252 C 
ATOM     11  O   UNL     1       3.580  -2.918   2.480  0.00  0.00    -0.270 OA
ATOM     12  C   UNL     1       4.776  -7.606   2.961  0.00  0.00    +0.046 C 
ATOM     13  H   UNL     1       5.237  -2.459   4.203  0.00  0.00    +0.158 HD
BRANCH   6  14
ATOM     14  C   UNL     1       6.641  -6.683   4.947  0.00  0.00    +0.105 C 
ATOM     15  N   UNL     1       7.297  -7.441   5.481  0.00  0.00    -0.191 NA
ENDBRANCH   6  14
ENDBRANCH   1   3
BRANCH   1  16
ATOM     16  N   UNL     1       1.479  -5.007   0.132  0.00  0.00    -0.110 NA
ATOM     17  H   UNL     1       1.841  -5.393  -0.682  0.00  0.00    +0.171 HD
BRANCH  16  18
ATOM     18  S   UNL     1      -0.153  -4.773   0.281  0.00  0.00    +0.073 S 
ATOM     19  O   UNL     1      -0.547  -5.420   1.484  0.00  0.00    -0.152 OA
ATOM     20  O   UNL     1      -0.727  -5.093  -0.979  0.00  0.00    -0.152 OA
BRANCH  18  25
ATOM     21  C   UNL     1      -1.041   1.134   1.130  0.00  0.00    +0.044 C 
ATOM     22  C   UNL     1      -0.819  -0.341   0.918  0.00  0.00    -0.050 A 
ATOM     23  C   UNL     1      -0.803  -0.861  -0.363  0.00  0.00    +0.005 A 
ATOM     24  C   UNL     1      -0.599  -2.214  -0.557  0.00  0.00    +0.029 A 
ATOM     25  C   UNL     1      -0.412  -3.048   0.529  0.00  0.00    +0.107 A 
ATOM     26  C   UNL     1      -0.427  -2.529   1.810  0.00  0.00    +0.029 A 
ATOM     27  C   UNL     1      -0.627  -1.174   2.004  0.00  0.00    +0.005 A 
ENDBRANCH  18  25
ENDBRANCH  16  18
ENDBRANCH   1  16
TORSDOF 5
