REMARK  Name = ZINC40937258
REMARK  6 active torsions:
REMARK  status: ('A' for Active; 'I' for Inactive)
REMARK    1  A    between atoms: C_1  and  N_2
REMARK    2  A    between atoms: C_10  and  C_11
REMARK    3  A    between atoms: C_11  and  N_12
REMARK    4  A    between atoms: C_19  and  C_20
REMARK    5  A    between atoms: C_20  and  O_21
REMARK    6  A    between atoms: O_21  and  C_22
REMARK                            x       y       z     vdW  Elec       q    Type
REMARK                         _______ _______ _______ _____ _____    ______ ____
ROOT
ATOM      1  N   UNL     1      -1.352  -0.206   3.000  0.00  0.00    +0.385 N 
ATOM      2  C   UNL     1      -1.979  -1.543   3.161  0.00  0.00    -0.074 C 
ATOM      3  C   UNL     1      -3.138  -1.312   4.154  0.00  0.00    -0.019 C 
ATOM      4  C   UNL     1      -2.740  -0.050   4.947  0.00  0.00    -0.019 C 
ATOM      5  C   UNL     1      -1.375   0.375   4.367  0.00  0.00    -0.074 C 
ATOM      6  C   UNL     1      -2.845  -1.450   5.649  0.00  0.00    +0.030 C 
ATOM      7  H   UNL     1      -1.891   0.364   2.365  0.00  0.00    -0.081 HD
ENDROOT
BRANCH   1   8
ATOM      8  C   UNL     1       0.031  -0.341   2.522  0.00  0.00    -0.003 C 
BRANCH   8  18
ATOM      9  C   UNL     1      -0.018   1.461   0.010  0.00  0.00    +0.150 C 
ATOM     10  N   UNL     1       0.002  -0.004   0.002  0.00  0.00    -0.331 N 
ATOM     11  C   UNL     1       0.009  -0.817  -1.113  0.00  0.00    +0.088 A 
ATOM     12  C   UNL     1       0.000  -0.586  -2.483  0.00  0.00    +0.031 A 
ATOM     13  C   UNL     1       0.012  -1.680  -3.330  0.00  0.00    +0.022 A 
ATOM     14  C   UNL     1       0.032  -2.958  -2.794  0.00  0.00    +0.113 A 
ATOM     15  N   UNL     1       0.039  -3.156  -1.494  0.00  0.00    -0.234 NA
ATOM     16  C   UNL     1       0.029  -2.139  -0.635  0.00  0.00    +0.178 A 
ATOM     17  N   UNL     1       0.034  -2.064   0.720  0.00  0.00    -0.215 NA
ATOM     18  C   UNL     1       0.024  -0.816   1.091  0.00  0.00    +0.096 A 
ENDBRANCH   8  18
ENDBRANCH   1   8
BRANCH   6  19
ATOM     19  C   UNL     1      -1.552  -2.163   6.051  0.00  0.00    +0.233 C 
BRANCH  19  20
ATOM     20  O   UNL     1      -1.506  -2.300   7.473  0.00  0.00    -0.492 OA
BRANCH  20  21
ATOM     21  C   UNL     1      -0.415  -2.916   7.998  0.00  0.00    +0.122 A 
ATOM     22  C   UNL     1       0.594  -3.374   7.163  0.00  0.00    +0.046 A 
ATOM     23  C   UNL     1       1.703  -3.999   7.699  0.00  0.00    +0.005 A 
ATOM     24  C   UNL     1       1.809  -4.169   9.067  0.00  0.00    +0.020 A 
ATOM     25  C   UNL     1       0.804  -3.714   9.902  0.00  0.00    +0.044 A 
ATOM     26  C   UNL     1      -0.305  -3.083   9.371  0.00  0.00    +0.065 A 
ATOM     27 CL   UNL     1       0.940  -3.930  11.620  0.00  0.00    -0.083 Cl
ENDBRANCH  20  21
ENDBRANCH  19  20
ENDBRANCH   6  19
TORSDOF 5
