REMARK  Name = ZINC45702107
REMARK  8 active torsions:
REMARK  status: ('A' for Active; 'I' for Inactive)
REMARK    1  A    between atoms: C_1  and  C_2
REMARK    2  A    between atoms: C_3  and  C_33
REMARK    3  A    between atoms: C_11  and  C_13
REMARK    4  A    between atoms: C_13  and  S_14
REMARK    5  A    between atoms: S_14  and  C_15
REMARK    6  A    between atoms: C_15  and  C_17
REMARK    7  A    between atoms: C_15  and  C_18
REMARK    8  A    between atoms: N_26  and  C_27
REMARK                            x       y       z     vdW  Elec       q    Type
REMARK                         _______ _______ _______ _____ _____    ______ ____
ROOT
ATOM      1  C   UNL     1       0.103  -6.141   5.432  0.00  0.00    +0.133 C 
ATOM      2  C   UNL     1       1.406  -5.879   6.189  0.00  0.00    +0.029 C 
ENDROOT
BRANCH   1   3
ATOM      3  C   UNL     1       0.016  -7.601   5.072  0.00  0.00    +0.246 C 
ATOM      4  O   UNL     1       0.387  -7.980   3.982  0.00  0.00    -0.271 OA
ATOM      5  N   UNL     1      -0.475  -8.487   5.962  0.00  0.00    -0.273 N 
ATOM      6  C   UNL     1      -0.791  -8.077   7.231  0.00  0.00    +0.096 A 
ATOM      7  C   UNL     1      -1.282  -8.949   8.133  0.00  0.00    +0.018 A 
ATOM      8  C   UNL     1      -1.480 -10.299   7.787  0.00  0.00    +0.005 A 
ATOM      9  C   UNL     1      -1.174 -10.728   6.536  0.00  0.00    +0.044 A 
ATOM     10  C   UNL     1      -0.663  -9.804   5.592  0.00  0.00    +0.114 A 
ATOM     11  N   UNL     1      -0.366 -10.199   4.374  0.00  0.00    -0.368 N 
ATOM     12  H   UNL     1       0.058  -9.584   3.755  0.00  0.00    +0.161 HD
BRANCH  11  13
ATOM     13  C   UNL     1      -0.676 -11.567   3.951  0.00  0.00    +0.081 C 
ATOM     14  C   UNL     1      -2.124 -11.634   3.462  0.00  0.00    +0.024 C 
ATOM     15  C   UNL     1      -2.447 -13.062   3.020  0.00  0.00    +0.002 C 
ATOM     16  C   UNL     1      -1.506 -13.471   1.885  0.00  0.00    +0.000 C 
ATOM     17  C   UNL     1      -0.058 -13.404   2.374  0.00  0.00    +0.002 C 
ATOM     18  C   UNL     1       0.266 -11.975   2.816  0.00  0.00    +0.024 C 
ENDBRANCH  11  13
ENDBRANCH   1   3
BRANCH   1  19
ATOM     19  S   UNL     1       0.072  -5.142   3.918  0.00  0.00    -0.140 S 
BRANCH  19  20
ATOM     20  C   UNL     1       0.029  -3.432   4.521  0.00  0.00    +0.144 C 
BRANCH  20  31
ATOM     21  C   UNL     1      -0.114   1.477  -0.043  0.00  0.00    +0.045 C 
ATOM     22  C   UNL     1      -0.074  -0.029  -0.043  0.00  0.00    -0.026 A 
ATOM     23  C   UNL     1      -0.055  -0.708  -1.201  0.00  0.00    -0.008 A 
ATOM     24  S   UNL     1      -0.011  -2.413  -0.680  0.00  0.00    -0.073 S 
ATOM     25  C   UNL     1      -0.019  -2.163   1.077  0.00  0.00    +0.116 A 
ATOM     26  C   UNL     1      -0.051  -0.763   1.209  0.00  0.00    +0.075 A 
ATOM     27  C   UNL     1      -0.059  -0.268   2.553  0.00  0.00    +0.260 A 
ATOM     28  O   UNL     1      -0.091   0.931   2.771  0.00  0.00    -0.267 OA
ATOM     29  N   UNL     1      -0.033  -1.147   3.572  0.00  0.00    -0.310 N 
ATOM     30  H   UNL     1      -0.039  -0.818   4.484  0.00  0.00    +0.170 HD
ATOM     31  C   UNL     1       0.001  -2.486   3.348  0.00  0.00    +0.121 A 
ATOM     32  N   UNL     1       0.001  -2.969   2.135  0.00  0.00    -0.226 NA
ATOM     33  C   UNL     1      -0.069  -0.161  -2.605  0.00  0.00    +0.052 C 
ENDBRANCH  20  31
ENDBRANCH  19  20
ENDBRANCH   1  19
TORSDOF 5
