REMARK  Name = ZINC20859136
REMARK  9 active torsions:
REMARK  status: ('A' for Active; 'I' for Inactive)
REMARK    1  A    between atoms: C_1  and  C_2
REMARK    2  A    between atoms: C_5  and  C_7
REMARK    3  A    between atoms: C_7  and  N_8
REMARK    4  A    between atoms: N_8  and  C_9
REMARK    5  A    between atoms: C_9  and  C_10
REMARK    6  A    between atoms: C_13  and  C_26
REMARK    7  A    between atoms: N_15  and  C_25
REMARK    8  A    between atoms: C_16  and  C_18
REMARK    9  A    between atoms: C_26  and  O_27
REMARK                            x       y       z     vdW  Elec       q    Type
REMARK                         _______ _______ _______ _____ _____    ______ ____
ROOT
ATOM      1  C   UNL     1      -0.522   2.040  -3.600  0.00  0.00    -0.039 C 
ATOM      2  C   UNL     1      -0.125   1.006  -2.521  0.00  0.00    -0.013 C 
ATOM      3  C   UNL     1      -0.753   1.593  -1.232  0.00  0.00    -0.042 C 
ATOM      4  N   UNL     1      -0.560   3.056  -1.395  0.00  0.00    +0.386 N 
ATOM      5  C   UNL     1      -0.812   3.339  -2.825  0.00  0.00    -0.033 C 
ATOM      6  C   UNL     1      -1.488   3.808  -0.539  0.00  0.00    -0.095 C 
ATOM      7  H   UNL     1       0.449   3.373  -1.093  0.00  0.00    -0.081 HD
ENDROOT
BRANCH   5   8
ATOM      8  C   UNL     1       0.102   4.438  -3.304  0.00  0.00    -0.026 A 
ATOM      9  C   UNL     1       1.282   4.696  -2.633  0.00  0.00    +0.005 A 
ATOM     10  C   UNL     1       2.121   5.704  -3.072  0.00  0.00    +0.000 A 
ATOM     11  C   UNL     1       1.780   6.453  -4.183  0.00  0.00    +0.003 A 
ATOM     12  C   UNL     1       0.601   6.196  -4.855  0.00  0.00    +0.038 A 
ATOM     13  C   UNL     1      -0.238   5.184  -4.419  0.00  0.00    +0.125 A 
ATOM     14  F   UNL     1      -1.389   4.928  -5.079  0.00  0.00    -0.205 F 
ENDBRANCH   5   8
BRANCH   1  15
ATOM     15  C   UNL     1       0.632   2.254  -4.581  0.00  0.00    -0.080 C 
BRANCH  15  16
ATOM     16  N   UNL     1       0.859   1.021  -5.346  0.00  0.00    +0.382 N 
ATOM     17  H   UNL     1      -0.063   0.770  -5.892  0.00  0.00    -0.085 HD
ATOM     18  H   UNL     1       1.102   0.209  -4.644  0.00  0.00    -0.085 HD
BRANCH  16  19
ATOM     19  C   UNL     1       1.963   1.189  -6.301  0.00  0.00    -0.039 C 
BRANCH  19  24
ATOM     20  C   UNL     1       3.350  -3.867  -8.447  0.00  0.00    +0.051 C 
ATOM     21  C   UNL     1       2.826  -2.501  -8.087  0.00  0.00    -0.013 A 
ATOM     22  C   UNL     1       1.936  -1.726  -8.754  0.00  0.00    +0.011 A 
ATOM     23  C   UNL     1       1.593  -0.494  -8.228  0.00  0.00    +0.009 A 
ATOM     24  C   UNL     1       2.165  -0.094  -7.066  0.00  0.00    -0.027 A 
ATOM     25  S   UNL     1       3.215  -1.483  -6.673  0.00  0.00    -0.100 S 
ENDBRANCH  19  24
ENDBRANCH  16  19
ENDBRANCH  15  16
ENDBRANCH   1  15
BRANCH   3  26
ATOM     26  C   UNL     1      -0.013   1.086   0.008  0.00  0.00    +0.140 C 
BRANCH  26  27
ATOM     27  O   UNL     1      -0.682   1.547   1.184  0.00  0.00    -0.397 OA
ATOM     28  H   UNL     1      -0.293   1.281   2.178  0.00  0.00    +0.209 HD
ENDBRANCH  26  27
ENDBRANCH   3  26
TORSDOF 7
