REMARK  Name = ZINC22513007
REMARK  11 active torsions:
REMARK  status: ('A' for Active; 'I' for Inactive)
REMARK    1  A    between atoms: C_1  and  C_2
REMARK    2  A    between atoms: C_2  and  O_3
REMARK    3  A    between atoms: O_3  and  C_4
REMARK    4  A    between atoms: C_7  and  C_10
REMARK    5  A    between atoms: C_10  and  C_12
REMARK    6  A    between atoms: C_10  and  N_13
REMARK    7  A    between atoms: C_14  and  C_16
REMARK    8  A    between atoms: C_19  and  N_23
REMARK    9  A    between atoms: C_20  and  C_22
REMARK   10  A    between atoms: N_23  and  S_24
REMARK   11  A    between atoms: S_24  and  C_27
REMARK                            x       y       z     vdW  Elec       q    Type
REMARK                         _______ _______ _______ _____ _____    ______ ____
ROOT
ATOM      1  N   UNL     1      -6.202  -1.446   2.325  0.00  0.00    -0.305 N 
ATOM      2  C   UNL     1      -5.885  -0.173   2.634  0.00  0.00    +0.245 C 
ATOM      3  O   UNL     1      -6.707   0.545   3.171  0.00  0.00    -0.270 OA
ATOM      4  H   UNL     1      -5.459  -2.096   1.840  0.00  0.00    +0.150 HD
ENDROOT
BRANCH   2   5
ATOM      5  C   UNL     1      -4.542   0.349   2.321  0.00  0.00    +0.037 A 
ATOM      6  C   UNL     1      -3.596  -0.476   1.703  0.00  0.00    +0.015 A 
ATOM      7  C   UNL     1      -2.344   0.014   1.413  0.00  0.00    +0.025 A 
ATOM      8  C   UNL     1      -2.017   1.329   1.733  0.00  0.00    +0.051 A 
ATOM      9  C   UNL     1      -2.955   2.151   2.353  0.00  0.00    -0.027 A 
ATOM     10  C   UNL     1      -4.211   1.669   2.641  0.00  0.00    +0.018 A 
ATOM     11  C   UNL     1      -2.595   3.572   2.704  0.00  0.00    +0.046 C 
BRANCH   8  12
ATOM     12  N   UNL     1      -0.751   1.822   1.438  0.00  0.00    -0.221 N 
ATOM     13  H   UNL     1      -0.267   2.538   2.119  0.00  0.00    +0.173 HD
BRANCH  12  14
ATOM     14  S   UNL     1       0.029   1.329   0.063  0.00  0.00    +0.040 S 
ATOM     15  O   UNL     1       0.071  -0.088   0.157  0.00  0.00    -0.155 OA
ATOM     16  O   UNL     1       1.230   2.089   0.035  0.00  0.00    -0.155 OA
ATOM     17  C   UNL     1      -1.061   1.834  -1.297  0.00  0.00    +0.218 C 
ENDBRANCH  12  14
ENDBRANCH   8  12
ENDBRANCH   2   5
BRANCH   1  18
ATOM     18  C   UNL     1      -7.537  -1.965   2.636  0.00  0.00    +0.100 C 
ATOM     19  C   UNL     1      -8.501  -1.605   1.504  0.00  0.00    +0.033 C 
BRANCH  18  23
ATOM     20  C   UNL     1      -7.353  -6.214   3.052  0.00  0.00    +0.121 A 
ATOM     21  C   UNL     1      -8.141  -5.465   3.914  0.00  0.00    +0.046 A 
ATOM     22  C   UNL     1      -8.198  -4.092   3.778  0.00  0.00    +0.009 A 
ATOM     23  C   UNL     1      -7.472  -3.463   2.783  0.00  0.00    -0.027 A 
ATOM     24  C   UNL     1      -6.690  -4.208   1.919  0.00  0.00    +0.009 A 
ATOM     25  C   UNL     1      -6.624  -5.581   2.055  0.00  0.00    +0.046 A 
BRANCH  20  26
ATOM     26  O   UNL     1      -7.295  -7.566   3.183  0.00  0.00    -0.492 OA
BRANCH  26  28
ATOM     27  C   UNL     1      -6.525  -9.771   2.563  0.00  0.00    +0.048 C 
ATOM     28  C   UNL     1      -6.463  -8.272   2.261  0.00  0.00    +0.225 C 
ENDBRANCH  26  28
ENDBRANCH  20  26
ENDBRANCH  18  23
ENDBRANCH   1  18
TORSDOF 7
