REMARK  Name = ZINC39494868
REMARK  11 active torsions:
REMARK  status: ('A' for Active; 'I' for Inactive)
REMARK    1  A    between atoms: C_4  and  C_7
REMARK    2  A    between atoms: C_7  and  C_9
REMARK    3  A    between atoms: C_7  and  N_27
REMARK    4  A    between atoms: C_9  and  C_11
REMARK    5  A    between atoms: C_9  and  C_18
REMARK    6  A    between atoms: C_16  and  O_17
REMARK    7  A    between atoms: C_18  and  C_20
REMARK    8  A    between atoms: C_25  and  O_26
REMARK    9  A    between atoms: C_28  and  S_30
REMARK   10  A    between atoms: S_30  and  O_33
REMARK   11  A    between atoms: O_33  and  C_34
REMARK                            x       y       z     vdW  Elec       q    Type
REMARK                         _______ _______ _______ _____ _____    ______ ____
ROOT
ATOM      1  C   UNL     1       3.496  -0.750   0.030  0.00  0.00    +0.120 C 
ENDROOT
BRANCH   1   5
ATOM      2  C   UNL     1      -0.581   0.417   0.543  0.00  0.00    +0.000 A 
ATOM      3  C   UNL     1       0.380   1.370   0.260  0.00  0.00    +0.000 A 
ATOM      4  C   UNL     1       1.700   0.992   0.095  0.00  0.00    +0.005 A 
ATOM      5  C   UNL     1       2.058  -0.338   0.212  0.00  0.00    -0.026 A 
ATOM      6  C   UNL     1       1.096  -1.290   0.495  0.00  0.00    +0.005 A 
ATOM      7  C   UNL     1      -0.223  -0.913   0.659  0.00  0.00    +0.000 A 
ENDBRANCH   1   5
BRANCH   1   8
ATOM      8  N   UNL     1       3.559  -1.936  -0.828  0.00  0.00    -0.286 N 
ATOM      9  C   UNL     1       3.564  -1.799  -2.168  0.00  0.00    +0.391 C 
ATOM     10  O   UNL     1       3.516  -0.693  -2.665  0.00  0.00    -0.246 OA
ATOM     11  H   UNL     1       3.598  -2.820  -0.430  0.00  0.00    +0.151 HD
BRANCH   9  12
ATOM     12  S   UNL     1       3.641  -3.225  -3.200  0.00  0.00    +0.203 S 
ATOM     13  O   UNL     1       3.840  -2.757  -4.527  0.00  0.00    -0.127 OA
ATOM     14  O   UNL     1       4.534  -4.134  -2.571  0.00  0.00    -0.127 OA
BRANCH  12  15
ATOM     15  O   UNL     1       2.265  -3.877  -3.170  0.00  0.00    -0.339 OA
BRANCH  15  16
ATOM     16  C   UNL     1       1.327  -3.220  -3.902  0.00  0.00    +0.157 A 
ATOM     17  C   UNL     1       0.561  -2.223  -3.316  0.00  0.00    +0.048 A 
ATOM     18  C   UNL     1      -0.392  -1.557  -4.062  0.00  0.00    +0.004 A 
ATOM     19  C   UNL     1      -0.582  -1.884  -5.392  0.00  0.00    +0.000 A 
ATOM     20  C   UNL     1       0.180  -2.878  -5.979  0.00  0.00    +0.004 A 
ATOM     21  C   UNL     1       1.138  -3.542  -5.238  0.00  0.00    +0.048 A 
ENDBRANCH  15  16
ENDBRANCH  12  15
ENDBRANCH   9  12
ENDBRANCH   1   8
BRANCH   1  22
ATOM     22  C   UNL     1       4.110  -1.073   1.393  0.00  0.00    +0.118 C 
BRANCH  22  23
ATOM     23  C   UNL     1       4.129   0.171   2.244  0.00  0.00    +0.007 A 
ATOM     24  C   UNL     1       4.889   1.259   1.860  0.00  0.00    +0.008 A 
ATOM     25  C   UNL     1       4.907   2.401   2.639  0.00  0.00    +0.001 A 
ATOM     26  C   UNL     1       4.164   2.457   3.804  0.00  0.00    +0.004 A 
ATOM     27  C   UNL     1       3.402   1.373   4.192  0.00  0.00    +0.046 A 
ATOM     28  C   UNL     1       3.378   0.228   3.409  0.00  0.00    +0.121 A 
BRANCH  28  29
ATOM     29  O   UNL     1       2.625  -0.839   3.785  0.00  0.00    -0.506 OA
ATOM     30  H   UNL     1       3.091  -1.470   4.350  0.00  0.00    +0.292 HD
ENDBRANCH  28  29
ENDBRANCH  22  23
BRANCH  22  31
ATOM     31  C   UNL     1       5.519  -1.573   1.204  0.00  0.00    +0.176 C 
ATOM     32  O   UNL     1       6.179  -1.185   0.263  0.00  0.00    -0.291 OA
BRANCH  31  33
ATOM     33  C   UNL     1       6.092  -2.530   2.158  0.00  0.00    +0.059 A 
ATOM     34  C   UNL     1       5.333  -2.985   3.243  0.00  0.00    +0.015 A 
ATOM     35  C   UNL     1       5.878  -3.883   4.133  0.00  0.00    +0.001 A 
ATOM     36  C   UNL     1       7.176  -4.338   3.962  0.00  0.00    +0.004 A 
ATOM     37  C   UNL     1       7.937  -3.898   2.898  0.00  0.00    +0.046 A 
ATOM     38  C   UNL     1       7.405  -2.999   1.986  0.00  0.00    +0.127 A 
BRANCH  38  39
ATOM     39  O   UNL     1       8.150  -2.571   0.937  0.00  0.00    -0.506 OA
ATOM     40  H   UNL     1       8.669  -1.776   1.122  0.00  0.00    +0.292 HD
ENDBRANCH  38  39
ENDBRANCH  31  33
ENDBRANCH  22  31
ENDBRANCH   1  22
TORSDOF 11
