REMARK  Name = ZINC63655457
REMARK  5 active torsions:
REMARK  status: ('A' for Active; 'I' for Inactive)
REMARK    1  A    between atoms: C_6  and  C_10
REMARK    2  A    between atoms: C_10  and  C_11
REMARK    3  A    between atoms: C_11  and  N_12
REMARK    4  A    between atoms: C_13  and  C_15
REMARK    5  A    between atoms: C_15  and  N_16
REMARK                            x       y       z     vdW  Elec       q    Type
REMARK                         _______ _______ _______ _____ _____    ______ ____
ROOT
ATOM      1  N   UNL     1       3.466  -4.918  -2.499  0.00  0.00    -0.314 N 
ATOM      2  C   UNL     1       3.122  -6.204  -2.705  0.00  0.00    +0.233 C 
ATOM      3  O   UNL     1       2.439  -6.787  -1.890  0.00  0.00    -0.274 OA
ATOM      4  H   UNL     1       4.012  -4.451  -3.151  0.00  0.00    +0.149 HD
ENDROOT
BRANCH   1   5
ATOM      5  C   UNL     1       3.016  -4.223  -1.290  0.00  0.00    +0.108 C 
BRANCH   5   6
ATOM      6  C   UNL     1       3.542  -2.787  -1.302  0.00  0.00    +0.065 C 
BRANCH   6  12
ATOM      7  C   UNL     1      -0.016   1.344   0.009  0.00  0.00    +0.002 A 
ATOM      8  C   UNL     1       1.158   2.118   0.002  0.00  0.00    +0.002 A 
ATOM      9  C   UNL     1       2.389   1.570  -0.013  0.00  0.00    +0.027 A 
ATOM     10  C   UNL     1       2.533   0.108  -0.022  0.00  0.00    +0.060 A 
ATOM     11  N   UNL     1       3.569  -0.680  -0.036  0.00  0.00    -0.363 N 
ATOM     12  C   UNL     1       3.071  -2.062  -0.039  0.00  0.00    +0.175 C 
ATOM     13  N   UNL     1       1.606  -1.974  -0.024  0.00  0.00    -0.363 N 
ATOM     14  C   UNL     1       1.290  -0.712  -0.014  0.00  0.00    +0.060 A 
ATOM     15  C   UNL     1       0.002  -0.004   0.002  0.00  0.00    +0.027 A 
ATOM     16  H   UNL     1       4.499  -0.405  -0.045  0.00  0.00    +0.162 HD
ATOM     17  H   UNL     1       0.987  -2.721  -0.022  0.00  0.00    +0.162 HD
ENDBRANCH   6  12
ENDBRANCH   5   6
ENDBRANCH   1   5
BRANCH   2  18
ATOM     18  C   UNL     1       3.584  -6.918  -3.949  0.00  0.00    +0.224 C 
BRANCH  18  19
ATOM     19  N   UNL     1       3.082  -8.294  -3.938  0.00  0.00    -0.265 N 
ATOM     20  C   UNL     1       3.725  -9.403  -3.389  0.00  0.00    +0.091 A 
ATOM     21  C   UNL     1       4.934  -9.573  -2.733  0.00  0.00    +0.030 A 
ATOM     22  C   UNL     1       5.306 -10.829  -2.294  0.00  0.00    +0.002 A 
ATOM     23  C   UNL     1       4.476 -11.916  -2.509  0.00  0.00    +0.004 A 
ATOM     24  C   UNL     1       3.270 -11.754  -3.162  0.00  0.00    +0.048 A 
ATOM     25  C   UNL     1       2.888 -10.497  -3.605  0.00  0.00    +0.157 A 
ATOM     26  O   UNL     1       1.791 -10.042  -4.260  0.00  0.00    -0.407 OA
ATOM     27  C   UNL     1       1.910  -8.719  -4.452  0.00  0.00    +0.422 A 
ATOM     28  O   UNL     1       1.089  -8.013  -5.006  0.00  0.00    -0.223 OA
ENDBRANCH  18  19
ENDBRANCH   2  18
TORSDOF 5
