REMARK  Name = ZINC55651852
REMARK  7 active torsions:
REMARK  status: ('A' for Active; 'I' for Inactive)
REMARK    1  A    between atoms: C_1  and  C_2
REMARK    2  A    between atoms: C_2  and  N_3
REMARK    3  A    between atoms: C_4  and  C_6
REMARK    4  A    between atoms: C_9  and  N_13
REMARK    5  A    between atoms: C_10  and  C_12
REMARK    6  A    between atoms: N_13  and  S_14
REMARK    7  A    between atoms: S_14  and  C_17
REMARK                            x       y       z     vdW  Elec       q    Type
REMARK                         _______ _______ _______ _____ _____    ______ ____
ROOT
ATOM      1  N   UNL     1       3.580  -3.681   5.961  0.00  0.00    -0.216 N 
ATOM      2  H   UNL     1       4.176  -4.441   5.879  0.00  0.00    +0.174 HD
ENDROOT
BRANCH   1   6
ATOM      3  C   UNL     1       1.091  -2.639   2.792  0.00  0.00    +0.037 A 
ATOM      4  C   UNL     1       1.653  -1.645   3.597  0.00  0.00    +0.015 A 
ATOM      5  C   UNL     1       2.475  -1.992   4.644  0.00  0.00    +0.025 A 
ATOM      6  C   UNL     1       2.748  -3.333   4.902  0.00  0.00    +0.051 A 
ATOM      7  C   UNL     1       2.190  -4.326   4.101  0.00  0.00    -0.027 A 
ATOM      8  C   UNL     1       1.362  -3.985   3.056  0.00  0.00    +0.018 A 
ATOM      9  C   UNL     1       2.488  -5.776   4.383  0.00  0.00    +0.046 C 
BRANCH   3  11
ATOM     10  N   UNL     1      -0.051  -0.972   1.415  0.00  0.00    -0.312 N 
ATOM     11  C   UNL     1       0.209  -2.270   1.669  0.00  0.00    +0.244 C 
ATOM     12  O   UNL     1      -0.283  -3.136   0.972  0.00  0.00    -0.270 OA
ATOM     13  H   UNL     1       0.341  -0.281   1.970  0.00  0.00    +0.149 HD
BRANCH  10  15
ATOM     14  C   UNL     1      -1.056   0.917   0.231  0.00  0.00    +0.024 C 
ATOM     15  C   UNL     1      -0.928  -0.606   0.299  0.00  0.00    +0.101 C 
ENDBRANCH  10  15
ENDBRANCH   3  11
ENDBRANCH   1   6
BRANCH   1  16
ATOM     16  S   UNL     1       3.551  -2.797   7.361  0.00  0.00    +0.072 S 
ATOM     17  O   UNL     1       4.392  -3.474   8.285  0.00  0.00    -0.150 OA
ATOM     18  O   UNL     1       3.763  -1.442   6.990  0.00  0.00    -0.150 OA
BRANCH  16  19
ATOM     19  C   UNL     1       1.914  -2.894   8.005  0.00  0.00    +0.109 A 
ATOM     20  C   UNL     1       0.966  -1.959   7.632  0.00  0.00    +0.029 A 
ATOM     21  C   UNL     1      -0.313  -2.040   8.143  0.00  0.00    +0.006 A 
ATOM     22  C   UNL     1      -0.657  -3.053   9.028  0.00  0.00    -0.044 A 
ATOM     23  C   UNL     1       0.286  -3.987   9.396  0.00  0.00    -0.042 A 
ATOM     24  C   UNL     1       1.573  -3.905   8.878  0.00  0.00    +0.032 A 
ATOM     25  C   UNL     1      -0.021  -5.122  10.338  0.00  0.00    +0.035 C 
ATOM     26  C   UNL     1      -1.297  -4.835  11.127  0.00  0.00    +0.005 C 
ATOM     27  C   UNL     1      -2.402  -4.449  10.136  0.00  0.00    +0.005 C 
ATOM     28  C   UNL     1      -2.068  -3.077   9.553  0.00  0.00    +0.035 C 
ENDBRANCH  16  19
ENDBRANCH   1  16
TORSDOF 5
