REMARK  Name = ZINC01929694
REMARK  11 active torsions:
REMARK  status: ('A' for Active; 'I' for Inactive)
REMARK    1  A    between atoms: C_1  and  C_2
REMARK    2  A    between atoms: C_9  and  N_14
REMARK    3  A    between atoms: C_10  and  C_11
REMARK    4  A    between atoms: C_15  and  C_17
REMARK    5  A    between atoms: C_18  and  C_19
REMARK    6  A    between atoms: C_21  and  O_29
REMARK    7  A    between atoms: C_22  and  O_27
REMARK    8  A    between atoms: C_23  and  O_25
REMARK    9  A    between atoms: O_25  and  C_26
REMARK   10  A    between atoms: O_27  and  C_28
REMARK   11  A    between atoms: O_29  and  C_30
REMARK                            x       y       z     vdW  Elec       q    Type
REMARK                         _______ _______ _______ _____ _____    ______ ____
ROOT
ATOM      1  N   UNL     1      -1.439  -0.890   2.497  0.00  0.00    -0.276 N 
ATOM      2  C   UNL     1      -2.168  -1.335   3.539  0.00  0.00    +0.241 C 
ATOM      3  O   UNL     1      -3.201  -1.947   3.341  0.00  0.00    -0.270 OA
ATOM      4  H   UNL     1      -0.615  -0.402   2.654  0.00  0.00    +0.156 HD
ENDROOT
BRANCH   1  12
ATOM      5  C   UNL     1      -4.237  -2.368  -4.655  0.00  0.00    +0.008 C 
ATOM      6  C   UNL     1      -3.567  -1.651  -3.482  0.00  0.00    -0.009 C 
ATOM      7  C   UNL     1      -2.044  -1.718  -3.637  0.00  0.00    +0.008 C 
ATOM      8  C   UNL     1      -1.376  -0.799  -2.613  0.00  0.00    +0.037 C 
ATOM      9  C   UNL     1      -1.919  -1.128  -1.228  0.00  0.00    -0.023 A 
ATOM     10  C   UNL     1      -3.070  -1.821  -1.079  0.00  0.00    -0.004 A 
ATOM     11  S   UNL     1      -3.285  -1.968   0.672  0.00  0.00    -0.077 S 
ATOM     12  C   UNL     1      -1.865  -1.129   1.201  0.00  0.00    +0.085 A 
ATOM     13  C   UNL     1      -1.257  -0.754   0.010  0.00  0.00    +0.068 A 
ATOM     14  C   UNL     1      -3.960  -2.338  -2.166  0.00  0.00    +0.046 C 
BRANCH  13  15
ATOM     15  C   UNL     1       0.002  -0.004   0.002  0.00  0.00    +0.244 C 
ATOM     16  O   UNL     1       1.064  -0.598  -0.011  0.00  0.00    -0.270 OA
ATOM     17  N   UNL     1      -0.016   1.344   0.009  0.00  0.00    -0.325 N 
ATOM     18  H   UNL     1       0.817   1.840   0.004  0.00  0.00    +0.145 HD
ATOM     19  H   UNL     1      -0.863   1.817   0.016  0.00  0.00    +0.145 HD
ENDBRANCH  13  15
ENDBRANCH   1  12
BRANCH   2  20
ATOM     20  C   UNL     1      -1.718  -1.083   4.907  0.00  0.00    +0.068 C 
ATOM     21  C   UNL     1      -2.449  -1.529   5.951  0.00  0.00    +0.013 C 
BRANCH  21  22
ATOM     22  C   UNL     1      -1.997  -1.275   7.326  0.00  0.00    -0.018 A 
ATOM     23  C   UNL     1      -0.806  -0.577   7.555  0.00  0.00    +0.057 A 
ATOM     24  C   UNL     1      -0.386  -0.336   8.850  0.00  0.00    +0.166 A 
ATOM     25  C   UNL     1      -1.141  -0.796   9.925  0.00  0.00    +0.204 A 
ATOM     26  C   UNL     1      -2.324  -1.497   9.701  0.00  0.00    +0.166 A 
ATOM     27  C   UNL     1      -2.753  -1.737   8.410  0.00  0.00    +0.057 A 
BRANCH  26  28
ATOM     28  O   UNL     1      -3.058  -1.945  10.755  0.00  0.00    -0.491 OA
ATOM     29  C   UNL     1      -4.260  -2.656  10.452  0.00  0.00    +0.277 C 
ENDBRANCH  26  28
BRANCH  25  30
ATOM     30  O   UNL     1      -0.723  -0.563  11.197  0.00  0.00    -0.488 OA
ATOM     31  C   UNL     1       0.128  -1.546  11.791  0.00  0.00    +0.277 C 
ENDBRANCH  25  30
BRANCH  24  32
ATOM     32  O   UNL     1       0.768   0.348   9.073  0.00  0.00    -0.491 OA
ATOM     33  C   UNL     1       1.492   0.791   7.924  0.00  0.00    +0.277 C 
ENDBRANCH  24  32
ENDBRANCH  21  22
ENDBRANCH   2  20
TORSDOF 7
