REMARK  Name = ZINC00937408
REMARK  7 active torsions:
REMARK  status: ('A' for Active; 'I' for Inactive)
REMARK    1  A    between atoms: C_1  and  C_2
REMARK    2  A    between atoms: C_2  and  O_3
REMARK    3  A    between atoms: O_3  and  C_4
REMARK    4  A    between atoms: C_4  and  C_6
REMARK    5  A    between atoms: C_10  and  N_11
REMARK    6  A    between atoms: C_12  and  C_14
REMARK    7  A    between atoms: C_14  and  C_15
REMARK                            x       y       z     vdW  Elec       q    Type
REMARK                         _______ _______ _______ _____ _____    ______ ____
ROOT
ATOM      1  N   UNL     1      -1.709   3.258   4.902  0.00  0.00    -0.279 N 
ATOM      2  C   UNL     1      -1.040   2.948   3.774  0.00  0.00    +0.216 C 
ATOM      3  O   UNL     1      -0.084   2.203   3.822  0.00  0.00    -0.276 OA
ATOM      4  H   UNL     1      -2.474   3.854   4.864  0.00  0.00    +0.155 HD
ENDROOT
BRANCH   1   9
ATOM      5  C   UNL     1      -1.861   2.925   7.374  0.00  0.00    +0.091 A 
ATOM      6  C   UNL     1      -1.241   2.243   8.497  0.00  0.00    -0.021 A 
ATOM      7  C   UNL     1      -0.173   1.477   8.187  0.00  0.00    -0.004 A 
ATOM      8  S   UNL     1       0.011   1.645   6.434  0.00  0.00    -0.077 S 
ATOM      9  C   UNL     1      -1.305   2.726   6.117  0.00  0.00    +0.086 A 
ATOM     10  C   UNL     1       0.661   0.665   9.129  0.00  0.00    +0.043 C 
ATOM     11  C   UNL     1       0.355   1.123  10.563  0.00  0.00    +0.005 C 
ATOM     12  C   UNL     1      -1.164   1.192  10.745  0.00  0.00    +0.005 C 
ATOM     13  C   UNL     1      -1.732   2.359   9.935  0.00  0.00    +0.037 C 
BRANCH   5  14
ATOM     14  C   UNL     1      -3.028   3.790   7.560  0.00  0.00    +0.342 C 
ATOM     15  O   UNL     1      -4.149   3.323   7.487  0.00  0.00    -0.245 OA
BRANCH  14  16
ATOM     16  O   UNL     1      -2.860   5.104   7.813  0.00  0.00    -0.461 OA
BRANCH  16  18
ATOM     17  C   UNL     1      -3.674   7.354   8.263  0.00  0.00    +0.048 C 
ATOM     18  C   UNL     1      -4.062   5.901   7.987  0.00  0.00    +0.229 C 
ENDBRANCH  16  18
ENDBRANCH  14  16
ENDBRANCH   5  14
ENDBRANCH   1   9
BRANCH   2  19
ATOM     19  C   UNL     1      -1.479   3.526   2.454  0.00  0.00    +0.089 C 
BRANCH  19  20
ATOM     20  C   UNL     1      -0.558   3.019   1.343  0.00  0.00    +0.025 C 
ATOM     21  C   UNL     1      -0.920   3.691   0.049  0.00  0.00    +0.199 C 
ATOM     22  O   UNL     1      -1.158   4.880   0.058  0.00  0.00    -0.278 OA
ATOM     23  N   UNL     1      -0.991   3.033  -1.113  0.00  0.00    -0.318 N 
ATOM     24  C   UNL     1      -0.759   1.596  -1.226  0.00  0.00    +0.085 C 
ATOM     25  C   UNL     1      -0.013   1.086   0.008  0.00  0.00    -0.063 C 
ATOM     26  H   UNL     1      -1.206   3.532  -1.916  0.00  0.00    +0.149 HD
ATOM     27  N   UNL     1      -0.710   1.560   1.218  0.00  0.00    +0.388 N 
ATOM     28  H   UNL     1      -1.708   1.327   1.150  0.00  0.00    -0.085 HD
ATOM     29  H   UNL     1      -0.307   1.104   2.044  0.00  0.00    -0.085 HD
ENDBRANCH  19  20
ENDBRANCH   2  19
TORSDOF 6
