REMARK  Name = ZINC40022359
REMARK  7 active torsions:
REMARK  status: ('A' for Active; 'I' for Inactive)
REMARK    1  A    between atoms: C_1  and  C_2
REMARK    2  A    between atoms: C_4  and  C_13
REMARK    3  A    between atoms: C_9  and  C_12
REMARK    4  A    between atoms: C_14  and  C_24
REMARK    5  A    between atoms: N_16  and  C_18
REMARK    6  A    between atoms: C_33  and  C_40
REMARK    7  A    between atoms: C_36  and  C_39
REMARK                            x       y       z     vdW  Elec       q    Type
REMARK                         _______ _______ _______ _____ _____    ______ ____
ROOT
ATOM      1  C   UNL     1       0.031  -2.806  -2.504  0.00  0.00    +0.100 A 
ATOM      2  C   UNL     1      -0.649  -2.400  -3.741  0.00  0.00    +0.022 A 
ATOM      3  C   UNL     1      -0.365  -3.377  -4.678  0.00  0.00    +0.123 A 
ATOM      4  N   UNL     1       0.413  -4.301  -4.087  0.00  0.00    -0.239 N 
ATOM      5  N   UNL     1       0.651  -3.936  -2.759  0.00  0.00    -0.166 NA
ENDROOT
BRANCH   2   6
ATOM      6  C   UNL     1      -1.465  -1.199  -3.942  0.00  0.00    +0.032 C 
ATOM      7  C   UNL     1      -2.033  -0.959  -5.153  0.00  0.00    +0.080 C 
ATOM      8  C   UNL     1      -2.880   0.171  -5.594  0.00  0.00    +0.276 C 
ATOM      9  O   UNL     1      -3.179   1.084  -4.841  0.00  0.00    -0.267 OA
ATOM     10  N   UNL     1      -3.292   0.139  -6.843  0.00  0.00    -0.154 NA
ATOM     11  C   UNL     1      -2.975  -0.845  -7.670  0.00  0.00    +0.154 C 
ATOM     12  S   UNL     1      -1.960  -1.915  -6.662  0.00  0.00    -0.052 S 
ATOM     13  N   UNL     1      -3.334  -1.001  -8.983  0.00  0.00    -0.307 N 
ATOM     14  C   UNL     1      -2.890  -2.172  -9.755  0.00  0.00    +0.138 C 
ATOM     15  C   UNL     1      -2.274  -1.680 -11.070  0.00  0.00    +0.133 C 
ATOM     16  O   UNL     1      -3.195  -0.802 -11.721  0.00  0.00    -0.371 OA
ATOM     17  C   UNL     1      -3.496   0.384 -10.982  0.00  0.00    +0.133 C 
ATOM     18  C   UNL     1      -4.180  -0.006  -9.661  0.00  0.00    +0.138 C 
ATOM     19  C   UNL     1      -4.436   1.272 -11.800  0.00  0.00    +0.039 C 
ATOM     20  C   UNL     1      -1.979  -2.877 -11.976  0.00  0.00    +0.039 C 
ENDBRANCH   2   6
BRANCH   1  24
ATOM     21  C   UNL     1      -0.018   1.503   0.010  0.00  0.00    +0.047 C 
ATOM     22  C   UNL     1       0.002  -0.004   0.002  0.00  0.00    -0.008 A 
ATOM     23  C   UNL     1       0.006  -0.682  -1.197  0.00  0.00    +0.017 A 
ATOM     24  C   UNL     1       0.023  -2.076  -1.214  0.00  0.00    +0.003 A 
ATOM     25  C   UNL     1       0.034  -2.779  -0.009  0.00  0.00    +0.017 A 
ATOM     26  C   UNL     1       0.028  -2.094   1.183  0.00  0.00    -0.001 A 
ATOM     27  C   UNL     1       0.023  -0.703   1.208  0.00  0.00    +0.127 A 
ATOM     28  O   UNL     1       0.047  -0.234   2.486  0.00  0.00    -0.488 OA
ATOM     29  C   UNL     1      -0.372  -1.277   3.381  0.00  0.00    +0.175 C 
ATOM     30  C   UNL     1       0.025  -2.563   2.625  0.00  0.00    +0.083 C 
ATOM     31  C   UNL     1       0.365  -1.173   4.718  0.00  0.00    +0.052 C 
ENDBRANCH   1  24
BRANCH   4  32
ATOM     32  C   UNL     1       0.913  -5.452  -4.708  0.00  0.00    +0.065 A 
ATOM     33  C   UNL     1       0.618  -5.707  -6.041  0.00  0.00    +0.028 A 
ATOM     34  C   UNL     1       1.113  -6.843  -6.652  0.00  0.00    +0.002 A 
ATOM     35  C   UNL     1       1.901  -7.726  -5.937  0.00  0.00    +0.000 A 
ATOM     36  C   UNL     1       2.197  -7.475  -4.610  0.00  0.00    +0.002 A 
ATOM     37  C   UNL     1       1.710  -6.338  -3.995  0.00  0.00    +0.028 A 
ENDBRANCH   4  32
TORSDOF 3
