REMARK  Name = ZINC67124213
REMARK  10 active torsions:
REMARK  status: ('A' for Active; 'I' for Inactive)
REMARK    1  A    between atoms: C_1  and  C_2
REMARK    2  A    between atoms: C_3  and  C_26
REMARK    3  A    between atoms: C_4  and  C_25
REMARK    4  A    between atoms: C_5  and  S_10
REMARK    5  A    between atoms: C_6  and  C_9
REMARK    6  A    between atoms: C_7  and  C_8
REMARK    7  A    between atoms: S_10  and  N_13
REMARK    8  A    between atoms: N_13  and  C_14
REMARK    9  A    between atoms: C_17  and  C_20
REMARK   10  A    between atoms: C_20  and  N_21
REMARK                            x       y       z     vdW  Elec       q    Type
REMARK                         _______ _______ _______ _____ _____    ______ ____
ROOT
ATOM      1  N   UNL     1      -0.622  -5.985   0.493  0.00  0.00    -0.216 N 
ATOM      2  H   UNL     1      -0.633  -6.477   1.329  0.00  0.00    +0.174 HD
ENDROOT
BRANCH   1   3
ATOM      3  C   UNL     1      -1.739  -6.004  -0.345  0.00  0.00    +0.048 A 
ATOM      4  C   UNL     1      -2.227  -4.820  -0.882  0.00  0.00    +0.025 A 
ATOM      5  C   UNL     1      -3.332  -4.842  -1.711  0.00  0.00    +0.007 A 
ATOM      6  C   UNL     1      -3.953  -6.042  -2.004  0.00  0.00    -0.030 A 
ATOM      7  C   UNL     1      -3.471  -7.223  -1.470  0.00  0.00    +0.007 A 
ATOM      8  C   UNL     1      -2.363  -7.208  -0.646  0.00  0.00    +0.025 A 
BRANCH   6   9
ATOM      9  C   UNL     1      -5.159  -6.063  -2.907  0.00  0.00    +0.141 C 
BRANCH   9  10
ATOM     10  N   UNL     1      -4.726  -6.228  -4.297  0.00  0.00    -0.295 N 
ATOM     11  C   UNL     1      -5.640  -6.274  -5.287  0.00  0.00    +0.297 C 
ATOM     12  O   UNL     1      -6.823  -6.179  -5.027  0.00  0.00    -0.253 OA
ATOM     13  N   UNL     1      -5.241  -6.426  -6.565  0.00  0.00    -0.313 N 
ATOM     14  H   UNL     1      -3.782  -6.304  -4.505  0.00  0.00    +0.151 HD
ATOM     15  H   UNL     1      -4.296  -6.502  -6.773  0.00  0.00    +0.146 HD
ATOM     16  H   UNL     1      -5.899  -6.460  -7.278  0.00  0.00    +0.146 HD
ENDBRANCH   9  10
ENDBRANCH   6   9
ENDBRANCH   1   3
BRANCH   1  17
ATOM     17  S   UNL     1       0.723  -5.122   0.059  0.00  0.00    +0.073 S 
ATOM     18  O   UNL     1       0.973  -5.418  -1.308  0.00  0.00    -0.150 OA
ATOM     19  O   UNL     1       1.692  -5.342   1.075  0.00  0.00    -0.150 OA
BRANCH  17  24
ATOM     20  C   UNL     1      -0.751   0.723   0.316  0.00  0.00    +0.044 C 
ATOM     21  C   UNL     1      -0.383  -0.737   0.252  0.00  0.00    -0.044 A 
ATOM     22  C   UNL     1      -0.374  -1.395  -0.964  0.00  0.00    -0.043 A 
ATOM     23  C   UNL     1      -0.036  -2.734  -1.023  0.00  0.00    -0.020 A 
ATOM     24  C   UNL     1       0.294  -3.415   0.134  0.00  0.00    +0.115 A 
ATOM     25  C   UNL     1       0.286  -2.757   1.349  0.00  0.00    -0.020 A 
ATOM     26  C   UNL     1      -0.048  -1.417   1.408  0.00  0.00    -0.043 A 
ATOM     27  C   UNL     1      -0.051  -0.698   2.732  0.00  0.00    +0.044 C 
ATOM     28  C   UNL     1       0.645  -3.499   2.611  0.00  0.00    +0.046 C 
ATOM     29  C   UNL     1      -0.027  -3.451  -2.348  0.00  0.00    +0.046 C 
ATOM     30  C   UNL     1      -0.733  -0.652  -2.225  0.00  0.00    +0.044 C 
ENDBRANCH  17  24
ENDBRANCH   1  17
TORSDOF 5
