REMARK  Name = ZINC04499119
REMARK  3 active torsions:
REMARK  status: ('A' for Active; 'I' for Inactive)
REMARK    1  A    between atoms: C_4  and  C_7
REMARK    2  A    between atoms: N_8  and  N_9
REMARK    3  A    between atoms: N_9  and  C_10
REMARK                            x       y       z     vdW  Elec       q    Type
REMARK                         _______ _______ _______ _____ _____    ______ ____
ROOT
ATOM      1  C   UNL     1      -3.612   3.381   0.018  0.00  0.00    +0.164 C 
ATOM      2  N   UNL     1      -4.299   3.395   1.125  0.00  0.00    -0.163 NA
ATOM      3  N   UNL     1      -2.229   3.581   0.052  0.00  0.00    -0.280 N 
ATOM      4  C   UNL     1      -1.383   2.493   0.188  0.00  0.00    +0.063 A 
ATOM      5  C   UNL     1      -1.735   1.138   0.298  0.00  0.00    +0.027 A 
ATOM      6  C   UNL     1      -0.772   0.167   0.434  0.00  0.00    +0.002 A 
ATOM      7  C   UNL     1       0.575   0.489   0.454  0.00  0.00    +0.001 A 
ATOM      8  C   UNL     1       0.952   1.816   0.342  0.00  0.00    +0.017 A 
ATOM      9  C   UNL     1      -0.011   2.787   0.212  0.00  0.00    +0.039 A 
ATOM     10  S   UNL     1       0.028   4.555   0.044  0.00  0.00    -0.062 S 
ATOM     11  C   UNL     1      -1.734   4.830  -0.049  0.00  0.00    +0.132 A 
ATOM     12  S   UNL     1      -2.580   6.308  -0.222  0.00  0.00    -0.024 S 
ENDROOT
BRANCH   1  16
ATOM     13  C   UNL     1      -5.573   2.728  -3.692  0.00  0.00    +0.000 A 
ATOM     14  C   UNL     1      -6.184   3.494  -2.716  0.00  0.00    +0.001 A 
ATOM     15  C   UNL     1      -5.553   3.710  -1.508  0.00  0.00    +0.011 A 
ATOM     16  C   UNL     1      -4.295   3.153  -1.273  0.00  0.00    +0.019 A 
ATOM     17  C   UNL     1      -3.681   2.385  -2.264  0.00  0.00    +0.011 A 
ATOM     18  C   UNL     1      -4.326   2.172  -3.465  0.00  0.00    +0.001 A 
ENDBRANCH   1  16
BRANCH   2  19
ATOM     19  N   UNL     1      -5.656   3.046   1.111  0.00  0.00    -0.236 N 
ATOM     20  H   UNL     1      -6.064   2.716   0.295  0.00  0.00    +0.174 HD
BRANCH  19  21
ATOM     21  C   UNL     1      -6.420   3.171   2.271  0.00  0.00    +0.048 A 
ATOM     22  C   UNL     1      -5.835   3.638   3.443  0.00  0.00    +0.025 A 
ATOM     23  C   UNL     1      -6.596   3.767   4.588  0.00  0.00    +0.002 A 
ATOM     24  C   UNL     1      -7.936   3.421   4.572  0.00  0.00    +0.000 A 
ATOM     25  C   UNL     1      -8.519   2.951   3.410  0.00  0.00    +0.002 A 
ATOM     26  C   UNL     1      -7.766   2.825   2.259  0.00  0.00    +0.025 A 
ENDBRANCH  19  21
ENDBRANCH   2  19
TORSDOF 3
