REMARK  Name = ZINC08868884
REMARK  9 active torsions:
REMARK  status: ('A' for Active; 'I' for Inactive)
REMARK    1  A    between atoms: C_1  and  C_2
REMARK    2  A    between atoms: N_11  and  C_12
REMARK    3  A    between atoms: C_12  and  C_13
REMARK    4  A    between atoms: C_13  and  N_60
REMARK    5  A    between atoms: C_14  and  N_60
REMARK    6  A    between atoms: C_15  and  N_60
REMARK    7  A    between atoms: C_16  and  C_18
REMARK    8  A    between atoms: N_23  and  S_24
REMARK    9  A    between atoms: S_24  and  C_27
REMARK                            x       y       z     vdW  Elec       q    Type
REMARK                         _______ _______ _______ _____ _____    ______ ____
ROOT
ATOM      1  C   UNL     1      -1.534   7.080   0.609  0.00  0.00    +0.044 C 
ATOM      2  C   UNL     1      -1.587   5.580   0.473  0.00  0.00    -0.049 A 
ATOM      3  C   UNL     1      -2.801   4.936   0.282  0.00  0.00    +0.005 A 
ATOM      4  C   UNL     1      -2.876   3.574   0.155  0.00  0.00    +0.029 A 
ATOM      5  C   UNL     1      -1.710   2.777   0.217  0.00  0.00    +0.080 A 
ATOM      6  C   UNL     1      -0.492   3.467   0.414  0.00  0.00    +0.041 A 
ATOM      7  C   UNL     1      -0.426   4.832   0.539  0.00  0.00    +0.020 A 
ATOM      8  S   UNL     1       0.694   2.144   0.431  0.00  0.00    -0.052 S 
ATOM      9  C   UNL     1      -0.462   0.803   0.185  0.00  0.00    +0.168 A 
ATOM     10  N   UNL     1      -1.611   1.434   0.106  0.00  0.00    -0.224 NA
ATOM     11  N   UNL     1      -0.210  -0.556   0.095  0.00  0.00    -0.251 N 
ATOM     12  C   UNL     1       1.053  -1.015   0.196  0.00  0.00    +0.240 C 
ATOM     13  O   UNL     1       1.957  -0.251   0.459  0.00  0.00    -0.273 OA
ENDROOT
BRANCH  12  14
ATOM     14  C   UNL     1       1.342  -2.479  -0.018  0.00  0.00    +0.166 C 
ATOM     15  C   UNL     1       1.252  -3.233   1.325  0.00  0.00    +0.031 C 
ATOM     16  C   UNL     1       2.416  -4.258   1.224  0.00  0.00    +0.019 C 
ATOM     17  C   UNL     1       3.481  -3.447   0.444  0.00  0.00    +0.110 C 
ATOM     18  N   UNL     1       2.711  -2.649  -0.527  0.00  0.00    -0.165 NA
BRANCH  18  19
ATOM     19  S   UNL     1       3.291  -2.045  -1.956  0.00  0.00    +0.062 S 
ATOM     20  O   UNL     1       4.297  -2.946  -2.398  0.00  0.00    -0.153 OA
ATOM     21  O   UNL     1       2.158  -1.720  -2.750  0.00  0.00    -0.153 OA
BRANCH  19  22
ATOM     22  C   UNL     1       4.101  -0.525  -1.589  0.00  0.00    +0.106 A 
ATOM     23  C   UNL     1       3.422   0.671  -1.726  0.00  0.00    +0.031 A 
ATOM     24  C   UNL     1       4.055   1.864  -1.433  0.00  0.00    +0.040 A 
ATOM     25  C   UNL     1       5.374   1.862  -1.012  0.00  0.00    +0.124 A 
ATOM     26  C   UNL     1       6.055   0.664  -0.880  0.00  0.00    +0.040 A 
ATOM     27  C   UNL     1       5.418  -0.528  -1.168  0.00  0.00    +0.031 A 
ATOM     28  F   UNL     1       5.995   3.028  -0.730  0.00  0.00    -0.205 F 
ENDBRANCH  19  22
ENDBRANCH  18  19
ENDBRANCH  12  14
BRANCH  11  29
ATOM     29  C   UNL     1      -1.316  -1.494  -0.111  0.00  0.00    +0.097 C 
BRANCH  29  30
ATOM     30  C   UNL     1      -1.580  -1.651  -1.610  0.00  0.00    -0.060 C 
BRANCH  30  33
ATOM     31  C   UNL     1      -3.128  -2.590  -3.218  0.00  0.00    -0.097 C 
ATOM     32  C   UNL     1      -2.319  -3.946  -1.383  0.00  0.00    -0.097 C 
ATOM     33  N   UNL     1      -2.711  -2.583  -1.800  0.00  0.00    +0.377 N 
ATOM     34  H   UNL     1      -3.501  -2.272  -1.222  0.00  0.00    -0.083 HD
ENDBRANCH  30  33
ENDBRANCH  29  30
ENDBRANCH  11  29
TORSDOF 6
