REMARK  Name = ZINC01060203
REMARK  7 active torsions:
REMARK  status: ('A' for Active; 'I' for Inactive)
REMARK    1  A    between atoms: C_1  and  C_2
REMARK    2  A    between atoms: C_2  and  O_3
REMARK    3  A    between atoms: O_3  and  C_4
REMARK    4  A    between atoms: C_4  and  C_6
REMARK    5  A    between atoms: C_10  and  N_11
REMARK    6  A    between atoms: C_12  and  C_13
REMARK    7  A    between atoms: C_22  and  O_23
REMARK                            x       y       z     vdW  Elec       q    Type
REMARK                         _______ _______ _______ _____ _____    ______ ____
ROOT
ATOM      1  N   UNL     1      -0.585  -2.462  -3.932  0.00  0.00    -0.247 NA
ATOM      2  C   UNL     1      -1.075  -2.783  -5.104  0.00  0.00    +0.124 C 
ENDROOT
BRANCH   2   3
ATOM      3  C   UNL     1      -2.502  -2.610  -5.373  0.00  0.00    +0.042 A 
ATOM      4  C   UNL     1      -3.067  -2.970  -6.675  0.00  0.00    -0.006 A 
ATOM      5  C   UNL     1      -2.268  -3.488  -7.699  0.00  0.00    +0.009 A 
ATOM      6  C   UNL     1      -2.834  -3.811  -8.898  0.00  0.00    +0.001 A 
ATOM      7  C   UNL     1      -4.197  -3.632  -9.116  0.00  0.00    +0.001 A 
ATOM      8  C   UNL     1      -5.003  -3.129  -8.139  0.00  0.00    +0.008 A 
ATOM      9  C   UNL     1      -4.454  -2.786  -6.892  0.00  0.00    -0.017 A 
ATOM     10  C   UNL     1      -5.256  -2.266  -5.860  0.00  0.00    +0.012 A 
ATOM     11  C   UNL     1      -4.717  -1.937  -4.657  0.00  0.00    +0.046 A 
ATOM     12  C   UNL     1      -3.358  -2.103  -4.390  0.00  0.00    +0.126 A 
BRANCH  12  13
ATOM     13  O   UNL     1      -2.864  -1.766  -3.173  0.00  0.00    -0.506 OA
ATOM     14  H   UNL     1      -2.567  -0.848  -3.110  0.00  0.00    +0.292 HD
ENDBRANCH  12  13
ENDBRANCH   2   3
BRANCH   1  19
ATOM     15  C   UNL     1       1.449  -2.344  -2.516  0.00  0.00    +0.095 A 
ATOM     16  C   UNL     1       2.841  -2.607  -2.500  0.00  0.00    -0.021 A 
ATOM     17  C   UNL     1       3.381  -3.106  -3.632  0.00  0.00    -0.004 A 
ATOM     18  S   UNL     1       2.012  -3.240  -4.760  0.00  0.00    -0.073 S 
ATOM     19  C   UNL     1       0.731  -2.621  -3.684  0.00  0.00    +0.116 A 
ATOM     20  C   UNL     1       4.860  -3.340  -3.501  0.00  0.00    +0.043 C 
ATOM     21  C   UNL     1       5.276  -2.516  -2.262  0.00  0.00    +0.010 C 
ATOM     22  C   UNL     1       3.959  -2.465  -1.462  0.00  0.00    +0.037 C 
BRANCH  15  23
ATOM     23  C   UNL     1       0.776  -1.800  -1.335  0.00  0.00    +0.342 C 
ATOM     24  O   UNL     1       0.312  -2.552  -0.499  0.00  0.00    -0.245 OA
BRANCH  23  25
ATOM     25  O   UNL     1       0.671  -0.465  -1.174  0.00  0.00    -0.461 OA
BRANCH  25  27
ATOM     26  C   UNL     1      -0.019   1.526   0.010  0.00  0.00    +0.048 C 
ATOM     27  C   UNL     1       0.002  -0.004   0.002  0.00  0.00    +0.229 C 
ENDBRANCH  25  27
ENDBRANCH  23  25
ENDBRANCH  15  23
ENDBRANCH   1  19
TORSDOF 6
