REMARK  Name = ZINC01626261
REMARK  9 active torsions:
REMARK  status: ('A' for Active; 'I' for Inactive)
REMARK    1  A    between atoms: C_1  and  C_2
REMARK    2  A    between atoms: C_2  and  C_28
REMARK    3  A    between atoms: C_3  and  C_4
REMARK    4  A    between atoms: C_4  and  C_5
REMARK    5  A    between atoms: C_6  and  O_27
REMARK    6  A    between atoms: C_8  and  O_26
REMARK    7  A    between atoms: C_12  and  C_19
REMARK    8  A    between atoms: C_14  and  O_18
REMARK    9  A    between atoms: C_22  and  O_25
REMARK                            x       y       z     vdW  Elec       q    Type
REMARK                         _______ _______ _______ _____ _____    ______ ____
ROOT
ATOM      1  C   UNL     1       3.839   4.457  -1.095  0.00  0.00    +0.040 A 
ATOM      2  C   UNL     1       4.488   3.874  -2.177  0.00  0.00    +0.127 A 
ATOM      3  C   UNL     1       4.020   2.689  -2.730  0.00  0.00    +0.092 A 
ATOM      4  C   UNL     1       2.894   2.078  -2.208  0.00  0.00    +0.134 A 
ATOM      5  C   UNL     1       2.231   2.664  -1.119  0.00  0.00    +0.104 A 
ATOM      6  C   UNL     1       2.713   3.861  -0.556  0.00  0.00    +0.143 A 
ATOM      7  O   UNL     1       2.088   4.430   0.502  0.00  0.00    -0.480 OA
ATOM      8  C   UNL     1       0.716   4.113   0.739  0.00  0.00    +0.240 C 
ATOM      9  C   UNL     1       0.546   2.588   0.780  0.00  0.00    +0.230 C 
ATOM     10  C   UNL     1       1.026   2.046  -0.554  0.00  0.00    +0.202 C 
ATOM     11  O   UNL     1       0.443   1.147  -1.125  0.00  0.00    -0.289 OA
ENDROOT
BRANCH   8  12
ATOM     12  C   UNL     1       0.284   4.704   2.056  0.00  0.00    -0.004 A 
ATOM     13  C   UNL     1       1.175   4.761   3.112  0.00  0.00    +0.011 A 
ATOM     14  C   UNL     1       0.783   5.307   4.319  0.00  0.00    +0.046 A 
ATOM     15  C   UNL     1      -0.509   5.788   4.474  0.00  0.00    +0.117 A 
ATOM     16  C   UNL     1      -1.403   5.724   3.415  0.00  0.00    +0.046 A 
ATOM     17  C   UNL     1      -1.004   5.183   2.208  0.00  0.00    +0.011 A 
BRANCH  15  18
ATOM     18  O   UNL     1      -0.899   6.319   5.663  0.00  0.00    -0.507 OA
ATOM     19  H   UNL     1      -1.276   5.675   6.277  0.00  0.00    +0.292 HD
ENDBRANCH  15  18
ENDBRANCH   8  12
BRANCH   9  20
ATOM     20  O   UNL     1      -0.830   2.257   0.973  0.00  0.00    -0.380 OA
ATOM     21  H   UNL     1      -1.005   1.306   1.009  0.00  0.00    +0.211 HD
ENDBRANCH   9  20
BRANCH   4  22
ATOM     22  O   UNL     1       2.434   0.920  -2.744  0.00  0.00    -0.506 OA
ATOM     23  H   UNL     1       1.793   1.044  -3.457  0.00  0.00    +0.292 HD
ENDBRANCH   4  22
BRANCH   2  24
ATOM     24  O   UNL     1       5.590   4.469  -2.698  0.00  0.00    -0.506 OA
ATOM     25  H   UNL     1       5.400   5.102  -3.404  0.00  0.00    +0.292 HD
ENDBRANCH   2  24
BRANCH   1  26
ATOM     26  C   UNL     1       4.363   5.742  -0.508  0.00  0.00    +0.069 C 
BRANCH  26  29
ATOM     27  C   UNL     1       6.911   6.949  -0.531  0.00  0.00    +0.038 C 
ATOM     28  C   UNL     1       6.561   5.944   0.536  0.00  0.00    -0.079 C 
ATOM     29  C   UNL     1       5.357   5.428   0.580  0.00  0.00    -0.023 C 
ATOM     30  C   UNL     1       7.595   5.531   1.551  0.00  0.00    +0.038 C 
ENDBRANCH  26  29
ENDBRANCH   1  26
TORSDOF 7
