REMARK  Name = ZINC01161396
REMARK  4 active torsions:
REMARK  status: ('A' for Active; 'I' for Inactive)
REMARK    1  A    between atoms: C_3  and  C_7
REMARK    2  A    between atoms: C_7  and  N_8
REMARK    3  A    between atoms: C_9  and  C_11
REMARK    4  A    between atoms: C_12  and  C_21
REMARK                            x       y       z     vdW  Elec       q    Type
REMARK                         _______ _______ _______ _____ _____    ______ ____
ROOT
ATOM      1  C   UNL     1      -0.914   1.709   3.647  0.00  0.00    +0.072 A 
ATOM      2  C   UNL     1      -0.556   2.942   4.229  0.00  0.00    +0.096 A 
ATOM      3  C   UNL     1      -1.216   3.380   5.375  0.00  0.00    +0.076 A 
ATOM      4  C   UNL     1      -2.218   2.605   5.936  0.00  0.00    +0.080 A 
ATOM      5  C   UNL     1      -2.570   1.394   5.364  0.00  0.00    +0.080 A 
ATOM      6  C   UNL     1      -1.927   0.946   4.221  0.00  0.00    +0.074 A 
ATOM      7 CL   UNL     1      -2.381  -0.571   3.508  0.00  0.00    -0.081 Cl
ATOM      8 CL   UNL     1      -3.828   0.435   6.079  0.00  0.00    -0.080 Cl
ATOM      9 CL   UNL     1      -3.037   3.155   7.364  0.00  0.00    -0.080 Cl
ATOM     10 CL   UNL     1      -0.782   4.896   6.100  0.00  0.00    -0.081 Cl
ENDROOT
BRANCH   1  12
ATOM     11  N   UNL     1      -0.698   1.558   1.213  0.00  0.00    -0.309 N 
ATOM     12  C   UNL     1      -0.222   1.232   2.431  0.00  0.00    +0.246 C 
ATOM     13  O   UNL     1       0.777   0.546   2.530  0.00  0.00    -0.270 OA
ATOM     14  H   UNL     1      -1.495   2.106   1.135  0.00  0.00    +0.149 HD
BRANCH  11  15
ATOM     15  C   UNL     1      -0.013   1.086   0.008  0.00  0.00    +0.136 C 
BRANCH  15  18
ATOM     16  C   UNL     1      -1.122   0.291  -3.259  0.00  0.00    +0.031 C 
ATOM     17  C   UNL     1      -0.039   1.101  -2.506  0.00  0.00    +0.035 C 
ATOM     18  C   UNL     1      -0.753   1.593  -1.232  0.00  0.00    +0.135 C 
ATOM     19  O   UNL     1      -2.087   1.059  -1.256  0.00  0.00    -0.375 OA
ATOM     20  C   UNL     1      -2.431   0.847  -2.643  0.00  0.00    +0.160 C 
ENDBRANCH  15  18
ENDBRANCH  11  15
ENDBRANCH   1  12
BRANCH   2  21
ATOM     21  C   UNL     1       0.513   3.764   3.627  0.00  0.00    +0.389 C 
ATOM     22  O   UNL     1       0.239   4.592   2.782  0.00  0.00    -0.241 OA
ATOM     23  O   UNL     1       1.792   3.597   4.016  0.00  0.00    -0.241 OA
ENDBRANCH   2  21
TORSDOF 4
