REMARK  Name = ZINC20773915
REMARK  10 active torsions:
REMARK  status: ('A' for Active; 'I' for Inactive)
REMARK    1  A    between atoms: C_1  and  C_2
REMARK    2  A    between atoms: C_2  and  C_4
REMARK    3  A    between atoms: C_2  and  N_30
REMARK    4  A    between atoms: C_10  and  C_26
REMARK    5  A    between atoms: C_11  and  O_18
REMARK    6  A    between atoms: O_18  and  C_19
REMARK    7  A    between atoms: C_19  and  C_20
REMARK    8  A    between atoms: C_20  and  C_21
REMARK    9  A    between atoms: C_26  and  O_28
REMARK   10  A    between atoms: O_28  and  C_29
REMARK                            x       y       z     vdW  Elec       q    Type
REMARK                         _______ _______ _______ _____ _____    ______ ____
ROOT
ATOM      1  C   UNL     1       5.434   7.453   0.748  0.00  0.00    +0.233 C 
ATOM      2  O   UNL     1       4.844   8.496   0.559  0.00  0.00    -0.274 OA
ATOM      3  N   UNL     1       5.024   6.326   0.133  0.00  0.00    -0.298 N 
ATOM      4  C   UNL     1       3.862   6.329  -0.773  0.00  0.00    +0.114 C 
ATOM      5  C   UNL     1       2.858   5.311  -0.239  0.00  0.00    +0.073 C 
ATOM      6  C   UNL     1       3.155   3.908  -0.709  0.00  0.00    +0.041 A 
ATOM      7  C   UNL     1       2.044   3.080  -0.851  0.00  0.00    +0.120 A 
ATOM      8  C   UNL     1       2.221   1.689  -1.262  0.00  0.00    +0.141 A 
ATOM      9  C   UNL     1       3.510   1.236  -1.460  0.00  0.00    +0.116 A 
ATOM     10  C   UNL     1       4.568   2.131  -1.298  0.00  0.00    +0.255 A 
ATOM     11  O   UNL     1       5.708   1.725  -1.450  0.00  0.00    -0.268 OA
ATOM     12  N   UNL     1       4.376   3.433  -0.974  0.00  0.00    -0.310 N 
ATOM     13  C   UNL     1       5.582   4.264  -0.962  0.00  0.00    +0.144 C 
ATOM     14  C   UNL     1       5.715   5.051   0.342  0.00  0.00    +0.129 C 
ENDROOT
BRANCH   1  16
ATOM     15  C   UNL     1       6.245   6.704   2.968  0.00  0.00    +0.034 C 
ATOM     16  C   UNL     1       6.626   7.418   1.670  0.00  0.00    +0.140 C 
BRANCH  16  17
ATOM     17  N   UNL     1       7.051   8.791   1.973  0.00  0.00    -0.287 NA
ATOM     18  C   UNL     1       8.408   8.809   2.538  0.00  0.00    +0.113 C 
ATOM     19  C   UNL     1       8.833  10.259   2.783  0.00  0.00    +0.175 C 
ATOM     20  O   UNL     1       7.880  10.892   3.641  0.00  0.00    -0.377 OA
ATOM     21  C   UNL     1       6.548  10.893   3.121  0.00  0.00    +0.175 C 
ATOM     22  C   UNL     1       6.100   9.449   2.880  0.00  0.00    +0.113 C 
ENDBRANCH  16  17
ENDBRANCH   1  16
BRANCH   7  23
ATOM     23  C   UNL     1       0.695   3.606  -0.589  0.00  0.00    +0.344 C 
ATOM     24  O   UNL     1      -0.031   3.907  -1.517  0.00  0.00    -0.245 OA
BRANCH  23  25
ATOM     25  O   UNL     1       0.264   3.753   0.679  0.00  0.00    -0.464 OA
ATOM     26  C   UNL     1      -1.078   4.277   0.863  0.00  0.00    +0.280 C 
ENDBRANCH  23  25
ENDBRANCH   7  23
BRANCH   8  27
ATOM     27  O   UNL     1       1.158   0.870  -1.437  0.00  0.00    -0.491 OA
BRANCH  27  28
ATOM     28  C   UNL     1       1.432  -0.473  -1.839  0.00  0.00    +0.234 C 
BRANCH  28  29
ATOM     29  C   UNL     1       0.117  -1.241  -1.985  0.00  0.00    +0.083 C 
BRANCH  29  30
ATOM     30  C   UNL     1       0.406  -2.658  -2.409  0.00  0.00    -0.007 A 
ATOM     31  C   UNL     1       0.634  -3.750  -1.639  0.00  0.00    +0.011 A 
ATOM     32  C   UNL     1       0.877  -4.964  -2.253  0.00  0.00    +0.008 A 
ATOM     33  C   UNL     1       0.892  -5.025  -3.607  0.00  0.00    +0.045 A 
ATOM     34  S   UNL     1       0.547  -3.332  -4.056  0.00  0.00    -0.101 S 
ENDBRANCH  29  30
ENDBRANCH  28  29
ENDBRANCH  27  28
ENDBRANCH   8  27
TORSDOF 8
