REMARK  Name = ZINC14274330
REMARK  9 active torsions:
REMARK  status: ('A' for Active; 'I' for Inactive)
REMARK    1  A    between atoms: C_1  and  C_2
REMARK    2  A    between atoms: C_5  and  C_9
REMARK    3  A    between atoms: C_7  and  C_8
REMARK    4  A    between atoms: C_9  and  C_11
REMARK    5  A    between atoms: C_9  and  N_12
REMARK    6  A    between atoms: C_13  and  C_15
REMARK    7  A    between atoms: C_15  and  N_16
REMARK    8  A    between atoms: C_19  and  C_24
REMARK    9  A    between atoms: C_24  and  C_25
REMARK                            x       y       z     vdW  Elec       q    Type
REMARK                         _______ _______ _______ _____ _____    ______ ____
ROOT
ATOM      1  C   UNL     1      -2.275   4.992  -2.321  0.00  0.00    +0.213 C 
ENDROOT
BRANCH   1   2
ATOM      2  N   UNL     1      -3.617   5.352  -2.787  0.00  0.00    -0.216 N 
ATOM      3  C   UNL     1      -4.435   6.212  -2.149  0.00  0.00    +0.244 C 
ATOM      4  O   UNL     1      -4.209   6.810  -1.119  0.00  0.00    -0.273 OA
ATOM      5  C   UNL     1      -5.697   6.274  -2.987  0.00  0.00    +0.165 C 
ATOM      6  N   UNL     1      -5.417   5.357  -4.104  0.00  0.00    -0.287 N 
ATOM      7  C   UNL     1      -4.178   4.872  -3.903  0.00  0.00    +0.310 C 
ATOM      8  O   UNL     1      -3.632   4.083  -4.649  0.00  0.00    -0.252 OA
ATOM      9  H   UNL     1      -6.008   5.146  -4.844  0.00  0.00    +0.151 HD
BRANCH   5  10
ATOM     10  C   UNL     1      -6.903   5.788  -2.180  0.00  0.00    +0.067 C 
BRANCH  10  11
ATOM     11  C   UNL     1      -8.159   5.976  -2.992  0.00  0.00    -0.045 A 
ATOM     12  C   UNL     1      -8.871   7.157  -2.899  0.00  0.00    +0.004 A 
ATOM     13  C   UNL     1     -10.021   7.331  -3.648  0.00  0.00    +0.000 A 
ATOM     14  C   UNL     1     -10.463   6.320  -4.481  0.00  0.00    +0.000 A 
ATOM     15  C   UNL     1      -9.753   5.138  -4.570  0.00  0.00    +0.000 A 
ATOM     16  C   UNL     1      -8.601   4.966  -3.825  0.00  0.00    +0.004 A 
ENDBRANCH  10  11
ENDBRANCH   5  10
ENDBRANCH   1   2
BRANCH   1  18
ATOM     17  N   UNL     1      -1.246   3.280  -0.862  0.00  0.00    -0.307 N 
ATOM     18  C   UNL     1      -2.364   3.792  -1.414  0.00  0.00    +0.231 C 
ATOM     19  O   UNL     1      -3.441   3.287  -1.180  0.00  0.00    -0.274 OA
ATOM     20  H   UNL     1      -0.384   3.684  -1.049  0.00  0.00    +0.149 HD
BRANCH  17  21
ATOM     21  C   UNL     1      -1.332   2.114   0.020  0.00  0.00    +0.100 C 
ATOM     22  C   UNL     1      -1.648   2.573   1.444  0.00  0.00    +0.033 C 
BRANCH  21  27
ATOM     23  C   UNL     1       3.711  -0.707  -0.039  0.00  0.00    +0.044 C 
ATOM     24  C   UNL     1       2.396   0.028  -0.022  0.00  0.00    -0.048 A 
ATOM     25  C   UNL     1       2.377   1.411  -0.014  0.00  0.00    +0.004 A 
ATOM     26  C   UNL     1       1.171   2.085   0.002  0.00  0.00    +0.006 A 
ATOM     27  C   UNL     1      -0.017   1.378   0.010  0.00  0.00    -0.027 A 
ATOM     28  C   UNL     1       0.002  -0.004   0.002  0.00  0.00    +0.009 A 
ATOM     29  C   UNL     1       1.209  -0.679  -0.014  0.00  0.00    -0.047 A 
ATOM     30  C   UNL     1       1.229  -2.186  -0.022  0.00  0.00    +0.044 C 
ENDBRANCH  21  27
ENDBRANCH  17  21
ENDBRANCH   1  18
TORSDOF 6
