REMARK  Name = ZINC08681458
REMARK  11 active torsions:
REMARK  status: ('A' for Active; 'I' for Inactive)
REMARK    1  A    between atoms: C_1  and  C_2
REMARK    2  A    between atoms: C_8  and  C_28
REMARK    3  A    between atoms: C_12  and  C_14
REMARK    4  A    between atoms: C_12  and  C_17
REMARK    5  A    between atoms: C_14  and  C_15
REMARK    6  A    between atoms: C_15  and  O_16
REMARK    7  A    between atoms: C_17  and  O_18
REMARK    8  A    between atoms: C_21  and  O_27
REMARK    9  A    between atoms: C_23  and  C_24
REMARK   10  A    between atoms: C_23  and  C_25
REMARK   11  A    between atoms: C_25  and  O_26
REMARK                            x       y       z     vdW  Elec       q    Type
REMARK                         _______ _______ _______ _____ _____    ______ ____
ROOT
ATOM      1  C   UNL     1       0.681   1.141  -1.237  0.00  0.00    +0.010 C 
ATOM      2  C   UNL     1       0.655  -0.352  -0.914  0.00  0.00    +0.018 C 
ATOM      3  C   UNL     1      -0.762  -0.896  -1.008  0.00  0.00    +0.006 C 
ATOM      4  C   UNL     1      -1.574  -0.559   0.246  0.00  0.00    +0.005 C 
ATOM      5  C   UNL     1      -0.850  -1.173   1.446  0.00  0.00    +0.008 C 
ATOM      6  C   UNL     1       0.488  -0.480   1.639  0.00  0.00    +0.001 C 
ATOM      7  C   UNL     1       1.355  -0.668   0.395  0.00  0.00    +0.079 C 
ATOM      8  C   UNL     1       1.890  -2.119   0.331  0.00  0.00    +0.039 C 
ATOM      9  C   UNL     1       3.177  -1.922  -0.516  0.00  0.00    +0.040 C 
ATOM     10  C   UNL     1       3.661  -0.531  -0.057  0.00  0.00    +0.095 C 
ATOM     11  O   UNL     1       2.538   0.146   0.522  0.00  0.00    -0.364 OA
ATOM     12  C   UNL     1       1.198  -1.087   2.857  0.00  0.00    +0.012 C 
ATOM     13  C   UNL     1       0.323  -0.897   4.097  0.00  0.00    +0.032 C 
ATOM     14  C   UNL     1      -0.981  -1.667   3.929  0.00  0.00    +0.123 C 
ATOM     15  C   UNL     1      -1.739  -1.254   2.668  0.00  0.00    +0.020 C 
ATOM     16  C   UNL     1      -2.798  -2.355   2.415  0.00  0.00    +0.016 C 
ATOM     17  C   UNL     1       0.333   1.022   1.897  0.00  0.00    +0.014 C 
ENDROOT
BRANCH  14  18
ATOM     18  O   UNL     1      -0.705  -3.071   3.875  0.00  0.00    -0.391 OA
ATOM     19  H   UNL     1      -0.271  -3.417   4.667  0.00  0.00    +0.210 HD
ENDBRANCH  14  18
BRANCH  10  20
ATOM     20  C   UNL     1       4.767  -0.694   0.992  0.00  0.00    +0.065 C 
BRANCH  20  21
ATOM     21  C   UNL     1       5.988  -1.353   0.346  0.00  0.00    +0.158 C 
BRANCH  21  22
ATOM     22  O   UNL     1       6.973  -1.615   1.348  0.00  0.00    -0.395 OA
ATOM     23  H   UNL     1       7.777  -2.033   1.010  0.00  0.00    +0.209 HD
ENDBRANCH  21  22
ENDBRANCH  20  21
ENDBRANCH  10  20
BRANCH  10  24
ATOM     24  C   UNL     1       4.204   0.253  -1.253  0.00  0.00    +0.190 C 
BRANCH  24  25
ATOM     25  O   UNL     1       4.668   1.531  -0.813  0.00  0.00    -0.392 OA
ATOM     26  H   UNL     1       5.026   2.084  -1.521  0.00  0.00    +0.210 HD
ENDBRANCH  24  25
ENDBRANCH  10  24
BRANCH  15  27
ATOM     27  C   UNL     1      -2.502   0.047   2.926  0.00  0.00    +0.165 C 
BRANCH  27  28
ATOM     28  O   UNL     1      -3.251  -0.072   4.137  0.00  0.00    -0.394 OA
ATOM     29  H   UNL     1      -3.761   0.718   4.363  0.00  0.00    +0.209 HD
ENDBRANCH  27  28
ENDBRANCH  15  27
TORSDOF 8
