REMARK  Name = ZINC39966598
REMARK  8 active torsions:
REMARK  status: ('A' for Active; 'I' for Inactive)
REMARK    1  A    between atoms: C_2  and  C_3
REMARK    2  A    between atoms: C_3  and  N_4
REMARK    3  A    between atoms: C_5  and  C_25
REMARK    4  A    between atoms: C_8  and  S_9
REMARK    5  A    between atoms: S_9  and  C_10
REMARK    6  A    between atoms: C_10  and  C_11
REMARK    7  A    between atoms: N_13  and  C_14
REMARK    8  A    between atoms: C_15  and  C_23
REMARK                            x       y       z     vdW  Elec       q    Type
REMARK                         _______ _______ _______ _____ _____    ______ ____
ROOT
ATOM      1  N   UNL     1      -1.183  -1.645  -1.187  0.00  0.00    -0.298 N 
ATOM      2  C   UNL     1      -1.877  -1.481  -2.363  0.00  0.00    +0.166 A 
ATOM      3  N   UNL     1      -1.801  -2.618  -3.016  0.00  0.00    -0.128 NA
ATOM      4  N   UNL     1      -1.117  -3.469  -2.339  0.00  0.00    -0.122 NA
ATOM      5  C   UNL     1      -0.709  -2.928  -1.215  0.00  0.00    +0.193 A 
ENDROOT
BRANCH   2   6
ATOM      6  C   UNL     1      -2.577  -0.257  -2.808  0.00  0.00    +0.030 A 
ATOM      7  C   UNL     1      -3.413   0.402  -1.956  0.00  0.00    +0.057 A 
ATOM      8  S   UNL     1      -3.970   1.763  -2.968  0.00  0.00    -0.101 S 
ATOM      9  C   UNL     1      -3.054   1.368  -4.436  0.00  0.00    -0.006 A 
ATOM     10  C   UNL     1      -2.378   0.238  -4.112  0.00  0.00    -0.026 A 
ATOM     11  C   UNL     1      -1.466  -0.472  -5.109  0.00  0.00    +0.036 C 
ATOM     12  C   UNL     1      -0.933   0.526  -6.129  0.00  0.00    +0.005 C 
ATOM     13  C   UNL     1      -1.873   0.626  -7.329  0.00  0.00    +0.001 C 
ATOM     14  C   UNL     1      -3.235   1.150  -6.886  0.00  0.00    +0.005 C 
ATOM     15  C   UNL     1      -3.028   2.123  -5.725  0.00  0.00    +0.043 C 
ENDBRANCH   2   6
BRANCH   1  16
ATOM     16  C   UNL     1      -0.987  -0.651  -0.129  0.00  0.00    +0.152 C 
BRANCH  16  18
ATOM     17  C   UNL     1       0.214   1.446  -0.474  0.00  0.00    +0.005 C 
ATOM     18  C   UNL     1       0.266   0.139  -0.408  0.00  0.00    -0.013 C 
ENDBRANCH  16  18
ENDBRANCH   1  16
BRANCH   5  19
ATOM     19  S   UNL     1       0.264  -3.709   0.029  0.00  0.00    -0.077 S 
BRANCH  19  20
ATOM     20  C   UNL     1       0.547  -5.379  -0.621  0.00  0.00    +0.173 C 
BRANCH  20  21
ATOM     21  C   UNL     1       1.379  -6.165   0.360  0.00  0.00    +0.228 C 
ATOM     22  O   UNL     1       1.745  -5.650   1.395  0.00  0.00    -0.275 OA
ATOM     23  N   UNL     1       1.717  -7.441   0.086  0.00  0.00    -0.278 N 
ATOM     24  H   UNL     1       1.424  -7.854  -0.742  0.00  0.00    +0.155 HD
BRANCH  23  25
ATOM     25  C   UNL     1       2.483  -8.165   0.989  0.00  0.00    +0.090 A 
ATOM     26  C   UNL     1       2.925  -9.473   0.874  0.00  0.00    +0.084 A 
ATOM     27  C   UNL     1       3.720 -10.004   1.967  0.00  0.00    -0.018 A 
ATOM     28  C   UNL     1       3.927  -9.129   2.976  0.00  0.00    -0.004 A 
ATOM     29  S   UNL     1       3.092  -7.654   2.468  0.00  0.00    -0.077 S 
ATOM     30  C   UNL     1       4.699  -9.374   4.235  0.00  0.00    +0.043 C 
ATOM     31  C   UNL     1       4.907 -10.889   4.386  0.00  0.00    +0.005 C 
ATOM     32  C   UNL     1       5.411 -11.455   3.056  0.00  0.00    +0.005 C 
ATOM     33  C   UNL     1       4.291 -11.414   2.014  0.00  0.00    +0.037 C 
BRANCH  26  34
ATOM     34  C   UNL     1       2.611 -10.268  -0.275  0.00  0.00    +0.102 C 
ATOM     35  N   UNL     1       2.362 -10.899  -1.186  0.00  0.00    -0.191 NA
ENDBRANCH  26  34
ENDBRANCH  23  25
ENDBRANCH  20  21
ENDBRANCH  19  20
ENDBRANCH   5  19
TORSDOF 8
