REMARK  Name = ZINC12905042
REMARK  10 active torsions:
REMARK  status: ('A' for Active; 'I' for Inactive)
REMARK    1  A    between atoms: C_1  and  C_2
REMARK    2  A    between atoms: C_3  and  C_16
REMARK    3  A    between atoms: C_4  and  C_15
REMARK    4  A    between atoms: N_5  and  C_7
REMARK    5  A    between atoms: C_16  and  N_17
REMARK    6  A    between atoms: N_17  and  C_18
REMARK    7  A    between atoms: C_19  and  C_21
REMARK    8  A    between atoms: C_24  and  O_27
REMARK    9  A    between atoms: O_27  and  C_28
REMARK   10  A    between atoms: C_28  and  C_29
REMARK                            x       y       z     vdW  Elec       q    Type
REMARK                         _______ _______ _______ _____ _____    ______ ____
ROOT
ATOM      1  N   UNL     1      -4.913   3.195   6.482  0.00  0.00    -0.296 N 
ATOM      2  C   UNL     1      -3.548   3.720   6.390  0.00  0.00    +0.132 C 
ATOM      3  C   UNL     1      -5.399   2.407   5.503  0.00  0.00    +0.247 C 
ATOM      4  O   UNL     1      -6.558   2.040   5.537  0.00  0.00    -0.270 OA
ENDROOT
BRANCH   3   5
ATOM      5  C   UNL     1      -4.525   1.989   4.389  0.00  0.00    +0.037 A 
ATOM      6  C   UNL     1      -3.643   2.905   3.809  0.00  0.00    +0.016 A 
ATOM      7  C   UNL     1      -2.829   2.511   2.771  0.00  0.00    +0.046 A 
ATOM      8  C   UNL     1      -2.884   1.205   2.299  0.00  0.00    +0.121 A 
ATOM      9  C   UNL     1      -3.764   0.292   2.870  0.00  0.00    +0.046 A 
ATOM     10  C   UNL     1      -4.577   0.677   3.912  0.00  0.00    +0.016 A 
BRANCH   8  11
ATOM     11  O   UNL     1      -2.081   0.821   1.275  0.00  0.00    -0.489 OA
BRANCH  11  12
ATOM     12  C   UNL     1      -2.188  -0.536   0.840  0.00  0.00    +0.260 C 
BRANCH  12  13
ATOM     13  C   UNL     1      -1.213  -0.781  -0.313  0.00  0.00    +0.156 C 
ATOM     14  C   UNL     1      -1.373  -2.218  -0.857  0.00  0.00    +0.037 C 
ATOM     15  C   UNL     1       0.069  -2.650  -1.207  0.00  0.00    +0.031 C 
ATOM     16  C   UNL     1       0.929  -1.423  -0.832  0.00  0.00    +0.160 C 
ATOM     17  O   UNL     1       0.151  -0.714   0.157  0.00  0.00    -0.373 OA
ENDBRANCH  12  13
ENDBRANCH  11  12
ENDBRANCH   8  11
ENDBRANCH   3   5
BRANCH   1  18
ATOM     18  C   UNL     1      -5.749   3.527   7.638  0.00  0.00    +0.146 C 
BRANCH  18  21
ATOM     19  C   UNL     1      -3.734   4.062  10.025  0.00  0.00    +0.068 C 
ATOM     20  C   UNL     1      -4.554   2.814   9.822  0.00  0.00    +0.065 A 
ATOM     21  C   UNL     1      -5.443   2.579   8.769  0.00  0.00    +0.013 A 
ATOM     22  C   UNL     1      -5.975   1.347   8.940  0.00  0.00    +0.041 A 
ATOM     23  N   UNL     1      -5.446   0.823  10.066  0.00  0.00    -0.263 N 
ATOM     24  N   UNL     1      -4.559   1.765  10.604  0.00  0.00    -0.176 NA
ATOM     25  C   UNL     1      -6.978   0.678   8.036  0.00  0.00    +0.065 C 
BRANCH  23  26
ATOM     26  C   UNL     1      -5.746  -0.497  10.626  0.00  0.00    +0.130 C 
ATOM     27  C   UNL     1      -6.298  -0.342  12.053  0.00  0.00    +0.051 C 
ATOM     28  C   UNL     1      -6.315  -1.717  12.764  0.00  0.00    +0.168 C 
ATOM     29  S   UNL     1      -4.938  -2.615  11.939  0.00  0.00    -0.029 S 
ATOM     30  O   UNL     1      -5.466  -3.744  11.257  0.00  0.00    -0.174 OA
ATOM     31  O   UNL     1      -3.878  -2.792  12.869  0.00  0.00    -0.174 OA
ATOM     32  C   UNL     1      -4.443  -1.344  10.700  0.00  0.00    +0.192 C 
ENDBRANCH  23  26
ENDBRANCH  18  21
ENDBRANCH   1  18
TORSDOF 7
