REMARK  Name = ZINC15103169
REMARK  16 active torsions:
REMARK  status: ('A' for Active; 'I' for Inactive)
REMARK    1  A    between atoms: C_1  and  C_2
REMARK    2  A    between atoms: C_2  and  C_3
REMARK    3  A    between atoms: C_3  and  C_4
REMARK    4  A    between atoms: C_4  and  N_5
REMARK    5  A    between atoms: C_6  and  N_35
REMARK    6  A    between atoms: C_7  and  N_14
REMARK    7  A    between atoms: N_14  and  C_15
REMARK    8  A    between atoms: C_20  and  C_22
REMARK    9  A    between atoms: C_22  and  N_74
REMARK   10  A    between atoms: C_23  and  N_74
REMARK   11  A    between atoms: C_24  and  C_25
REMARK   12  A    between atoms: C_24  and  N_74
REMARK   13  A    between atoms: C_25  and  O_26
REMARK   14  A    between atoms: O_26  and  C_27
REMARK   15  A    between atoms: C_29  and  C_34
REMARK   16  A    between atoms: C_31  and  C_33
REMARK                            x       y       z     vdW  Elec       q    Type
REMARK                         _______ _______ _______ _____ _____    ______ ____
ROOT
ATOM      1  N   UNL     1       8.987   3.660  -2.558  0.00  0.00    -0.263 N 
ATOM      2  C   UNL     1       7.695   3.304  -2.393  0.00  0.00    +0.204 C 
ATOM      3  O   UNL     1       7.054   3.758  -1.468  0.00  0.00    -0.277 OA
ENDROOT
BRANCH   1   6
ATOM      4  N   UNL     1      10.069   3.128  -6.028  0.00  0.00    -0.280 N 
ATOM      5  C   UNL     1       9.347   3.592  -4.954  0.00  0.00    +0.127 A 
ATOM      6  C   UNL     1       9.707   3.200  -3.680  0.00  0.00    +0.140 A 
ATOM      7  C   UNL     1      10.810   2.340  -3.521  0.00  0.00    +0.277 A 
ATOM      8  O   UNL     1      11.152   1.982  -2.406  0.00  0.00    -0.266 OA
ATOM      9  N   UNL     1      11.480   1.910  -4.607  0.00  0.00    -0.273 N 
ATOM     10  H   UNL     1      12.259   1.292  -4.495  0.00  0.00    +0.173 HD
ATOM     11  C   UNL     1      11.115   2.302  -5.840  0.00  0.00    +0.331 A 
ATOM     12  O   UNL     1      11.740   1.902  -6.804  0.00  0.00    -0.246 OA
BRANCH   5  13
ATOM     13  N   UNL     1       8.280   4.436  -5.146  0.00  0.00    -0.343 N 
ATOM     14  H   UNL     1       7.825   4.824  -4.382  0.00  0.00    +0.144 HD
ATOM     15  H   UNL     1       7.981   4.643  -6.045  0.00  0.00    +0.144 HD
ENDBRANCH   5  13
BRANCH   4  16
ATOM     16  C   UNL     1       9.698   3.535  -7.386  0.00  0.00    +0.128 C 
BRANCH  16  17
ATOM     17  C   UNL     1      10.449   4.815  -7.758  0.00  0.00    +0.021 C 
BRANCH  17  19
ATOM     18  C   UNL     1      10.812   6.519  -9.548  0.00  0.00    +0.004 C 
ATOM     19  C   UNL     1      10.061   5.240  -9.176  0.00  0.00    -0.002 C 
ENDBRANCH  17  19
ENDBRANCH  16  17
ENDBRANCH   4  16
ENDBRANCH   1   6
BRANCH   1  20
ATOM     20  C   UNL     1       9.640   4.522  -1.571  0.00  0.00    +0.082 C 
ATOM     21  C   UNL     1       9.644   3.836  -0.189  0.00  0.00    +0.023 C 
ATOM     22  C   UNL     1       9.414   4.997   0.812  0.00  0.00    +0.002 C 
ATOM     23  C   UNL     1       8.399   5.897   0.064  0.00  0.00    +0.002 C 
ATOM     24  C   UNL     1       8.849   5.832  -1.410  0.00  0.00    +0.023 C 
ENDBRANCH   1  20
BRANCH   2  25
ATOM     25  C   UNL     1       7.049   2.344  -3.359  0.00  0.00    +0.019 C 
BRANCH  25  27
ATOM     26  C   UNL     1       5.748   1.260  -1.629  0.00  0.00    -0.095 C 
ATOM     27  N   UNL     1       5.684   2.037  -2.884  0.00  0.00    +0.386 N 
ATOM     28  H   UNL     1       5.187   2.918  -2.706  0.00  0.00    -0.081 HD
BRANCH  27  29
ATOM     29  C   UNL     1       4.950   1.273  -3.915  0.00  0.00    -0.037 C 
BRANCH  29  30
ATOM     30  C   UNL     1       3.483   1.163  -3.497  0.00  0.00    +0.210 C 
BRANCH  30  31
ATOM     31  O   UNL     1       2.897   2.466  -3.469  0.00  0.00    -0.494 OA
BRANCH  31  32
ATOM     32  C   UNL     1       1.587   2.546  -3.114  0.00  0.00    +0.121 A 
ATOM     33  C   UNL     1       0.881   1.394  -2.800  0.00  0.00    +0.049 A 
ATOM     34  C   UNL     1      -0.450   1.479  -2.440  0.00  0.00    -0.047 A 
ATOM     35  C   UNL     1      -1.078   2.709  -2.392  0.00  0.00    +0.007 A 
ATOM     36  C   UNL     1      -0.376   3.859  -2.705  0.00  0.00    -0.047 A 
ATOM     37  C   UNL     1       0.955   3.780  -3.066  0.00  0.00    +0.049 A 
ATOM     38  C   UNL     1      -1.064   5.199  -2.653  0.00  0.00    +0.044 C 
ATOM     39  C   UNL     1      -1.217   0.229  -2.092  0.00  0.00    +0.044 C 
ENDBRANCH  31  32
ENDBRANCH  30  31
ENDBRANCH  29  30
ENDBRANCH  27  29
ENDBRANCH  25  27
ENDBRANCH   2  25
TORSDOF 12
