REMARK  Name = ZINC56792236
REMARK  12 active torsions:
REMARK  status: ('A' for Active; 'I' for Inactive)
REMARK    1  A    between atoms: C_1  and  C_2
REMARK    2  A    between atoms: C_2  and  C_3
REMARK    3  A    between atoms: C_2  and  C_4
REMARK    4  A    between atoms: C_2  and  O_5
REMARK    5  A    between atoms: O_5  and  C_6
REMARK    6  A    between atoms: N_8  and  C_9
REMARK    7  A    between atoms: N_18  and  C_19
REMARK    8  A    between atoms: C_19  and  C_20
REMARK    9  A    between atoms: C_20  and  C_22
REMARK   10  A    between atoms: C_20  and  N_27
REMARK   11  A    between atoms: N_27  and  C_28
REMARK   12  A    between atoms: N_27  and  C_29
REMARK                            x       y       z     vdW  Elec       q    Type
REMARK                         _______ _______ _______ _____ _____    ______ ____
ROOT
ATOM      1  C   UNL     1       4.088  -0.362  -2.688  0.00  0.00    +0.094 C 
ATOM      2  C   UNL     1       4.471  -0.480  -4.165  0.00  0.00    +0.025 C 
ATOM      3  C   UNL     1       5.908   0.007  -4.362  0.00  0.00    +0.021 C 
ATOM      4  C   UNL     1       6.858  -0.874  -3.545  0.00  0.00    +0.109 C 
ATOM      5  N   UNL     1       6.410  -0.882  -2.146  0.00  0.00    -0.284 N 
ATOM      6  C   UNL     1       5.017  -1.247  -1.851  0.00  0.00    +0.131 C 
ATOM      7  C   UNL     1       7.260  -0.560  -1.150  0.00  0.00    +0.302 C 
ATOM      8  O   UNL     1       6.854  -0.478  -0.007  0.00  0.00    -0.253 OA
ATOM      9  N   UNL     1       8.559  -0.329  -1.423  0.00  0.00    -0.300 N 
ATOM     10  H   UNL     1       8.868  -0.323  -2.342  0.00  0.00    +0.150 HD
ENDROOT
BRANCH   1  13
ATOM     11  C   UNL     1       1.982  -0.340  -1.462  0.00  0.00    +0.401 C 
ATOM     12  O   UNL     1       2.484   0.435  -0.672  0.00  0.00    -0.226 OA
ATOM     13  N   UNL     1       2.701  -0.798  -2.506  0.00  0.00    -0.277 N 
ATOM     14  H   UNL     1       2.301  -1.417  -3.136  0.00  0.00    +0.152 HD
BRANCH  11  15
ATOM     15  O   UNL     1       0.708  -0.741  -1.294  0.00  0.00    -0.445 OA
BRANCH  15  17
ATOM     16  C   UNL     1      -0.053   1.310  -0.268  0.00  0.00    +0.055 C 
ATOM     17  C   UNL     1       0.006  -0.216  -0.166  0.00  0.00    +0.107 C 
ATOM     18  C   UNL     1       0.734  -0.613   1.119  0.00  0.00    +0.055 C 
ATOM     19  C   UNL     1      -1.416  -0.781  -0.142  0.00  0.00    +0.055 C 
ENDBRANCH  15  17
ENDBRANCH  11  15
ENDBRANCH   1  13
BRANCH   9  20
ATOM     20  C   UNL     1       9.504  -0.086  -0.330  0.00  0.00    +0.098 C 
BRANCH  20  21
ATOM     21  C   UNL     1      10.875   0.269  -0.911  0.00  0.00    +0.016 C 
BRANCH  21  22
ATOM     22  C   UNL     1      10.781   1.574  -1.657  0.00  0.00    +0.093 A 
ATOM     23  C   UNL     1      11.166   2.776  -1.191  0.00  0.00    +0.043 A 
ATOM     24  C   UNL     1      10.901   3.716  -2.214  0.00  0.00    +0.041 A 
ATOM     25  C   UNL     1      10.370   3.032  -3.243  0.00  0.00    +0.195 A 
ATOM     26  O   UNL     1      10.306   1.734  -2.903  0.00  0.00    -0.469 OA
ENDBRANCH  21  22
BRANCH  21  27
ATOM     27  N   UNL     1      11.306  -0.792  -1.831  0.00  0.00    +0.384 N 
ATOM     28  C   UNL     1      12.667  -0.506  -2.305  0.00  0.00    -0.096 C 
ATOM     29  C   UNL     1      11.293  -2.083  -1.131  0.00  0.00    -0.096 C 
ATOM     30  H   UNL     1      10.677  -0.830  -2.619  0.00  0.00    -0.082 HD
ENDBRANCH  21  27
ENDBRANCH  20  21
ENDBRANCH   9  20
TORSDOF 7
