REMARK  Name = ZINC63731299
REMARK  9 active torsions:
REMARK  status: ('A' for Active; 'I' for Inactive)
REMARK    1  A    between atoms: C_1  and  O_2
REMARK    2  A    between atoms: O_2  and  C_3
REMARK    3  A    between atoms: C_6  and  C_9
REMARK    4  A    between atoms: C_9  and  N_10
REMARK    5  A    between atoms: C_11  and  S_16
REMARK    6  A    between atoms: S_16  and  C_17
REMARK    7  A    between atoms: C_17  and  C_18
REMARK    8  A    between atoms: C_18  and  C_20
REMARK    9  A    between atoms: C_23  and  C_25
REMARK                            x       y       z     vdW  Elec       q    Type
REMARK                         _______ _______ _______ _____ _____    ______ ____
ROOT
ATOM      1  N   UNL     1      -5.424  -2.856  -1.347  0.00  0.00    -0.226 NA
ATOM      2  C   UNL     1      -6.768  -3.478  -1.378  0.00  0.00    +0.184 C 
ATOM      3  N   UNL     1      -6.705  -4.407  -2.538  0.00  0.00    -0.323 NA
ATOM      4  N   UNL     1      -5.329  -4.923  -2.466  0.00  0.00    +0.409 N 
ATOM      5  N   UNL     1      -4.525  -3.775  -2.042  0.00  0.00    -0.280 NA
ATOM      6  H   UNL     1      -7.377  -5.154  -2.439  0.00  0.00    +0.106 HD
ATOM      7  H   UNL     1      -5.267  -5.667  -1.787  0.00  0.00    -0.032 HD
ATOM      8  H   UNL     1      -3.769  -4.066  -1.440  0.00  0.00    +0.121 HD
ATOM      9  H   UNL     1      -5.028  -5.248  -3.373  0.00  0.00    -0.032 HD
ENDROOT
BRANCH   1  10
ATOM     10  C   UNL     1      -4.981  -2.629   0.035  0.00  0.00    +0.138 C 
BRANCH  10  14
ATOM     11  C   UNL     1      -1.200  -0.637   0.010  0.00  0.00    +0.120 A 
ATOM     12  C   UNL     1      -2.375   0.101   0.019  0.00  0.00    +0.046 A 
ATOM     13  C   UNL     1      -3.596  -0.545   0.027  0.00  0.00    +0.008 A 
ATOM     14  C   UNL     1      -3.648  -1.927   0.026  0.00  0.00    -0.032 A 
ATOM     15  C   UNL     1      -2.479  -2.665   0.017  0.00  0.00    +0.008 A 
ATOM     16  C   UNL     1      -1.255  -2.024   0.003  0.00  0.00    +0.046 A 
BRANCH  11  18
ATOM     17  C   UNL     1      -0.017   1.425   0.010  0.00  0.00    +0.277 C 
ATOM     18  O   UNL     1       0.002  -0.004   0.002  0.00  0.00    -0.495 OA
ENDBRANCH  11  18
ENDBRANCH  10  14
ENDBRANCH   1  10
BRANCH   2  19
ATOM     19  S   UNL     1      -8.047  -2.219  -1.637  0.00  0.00    -0.119 S 
BRANCH  19  20
ATOM     20  C   UNL     1      -7.616  -1.476  -3.234  0.00  0.00    +0.151 C 
BRANCH  20  21
ATOM     21  C   UNL     1      -8.613  -0.398  -3.573  0.00  0.00    +0.171 C 
ATOM     22  O   UNL     1      -9.526  -0.155  -2.811  0.00  0.00    -0.291 OA
BRANCH  21  23
ATOM     23  C   UNL     1      -8.486   0.330  -4.779  0.00  0.00    +0.020 C 
ATOM     24  C   UNL     1      -9.286   1.329  -5.232  0.00  0.00    +0.118 C 
ATOM     25  N   UNL     1      -8.880   1.801  -6.412  0.00  0.00    -0.254 NA
ATOM     26  C   UNL     1      -7.816   1.212  -6.876  0.00  0.00    +0.107 C 
ATOM     27  C   UNL     1      -7.420   0.170  -5.848  0.00  0.00    +0.101 C 
BRANCH  26  28
ATOM     28  C   UNL     1      -7.126   1.507  -8.150  0.00  0.00    +0.261 C 
ATOM     29  O   UNL     1      -6.136   0.877  -8.464  0.00  0.00    -0.269 OA
ATOM     30  N   UNL     1      -7.596   2.474  -8.963  0.00  0.00    -0.297 N 
ATOM     31  C   UNL     1      -8.775   3.313  -8.704  0.00  0.00    +0.108 C 
ATOM     32  C   UNL     1      -8.942   4.254  -9.916  0.00  0.00    +0.020 C 
ATOM     33  C   UNL     1      -8.183   3.507 -11.044  0.00  0.00    +0.020 C 
ATOM     34  C   UNL     1      -7.009   2.869 -10.256  0.00  0.00    +0.108 C 
ENDBRANCH  26  28
ENDBRANCH  21  23
ENDBRANCH  20  21
ENDBRANCH  19  20
ENDBRANCH   2  19
TORSDOF 8
