REMARK  Name = ZINC09308605
REMARK  11 active torsions:
REMARK  status: ('A' for Active; 'I' for Inactive)
REMARK    1  A    between atoms: C_1  and  C_2
REMARK    2  A    between atoms: C_2  and  O_3
REMARK    3  A    between atoms: O_3  and  C_4
REMARK    4  A    between atoms: C_7  and  C_12
REMARK    5  A    between atoms: C_9  and  O_10
REMARK    6  A    between atoms: O_10  and  C_11
REMARK    7  A    between atoms: C_19  and  N_33
REMARK    8  A    between atoms: C_20  and  C_31
REMARK    9  A    between atoms: C_21  and  C_23
REMARK   10  A    between atoms: C_26  and  S_29
REMARK   11  A    between atoms: S_29  and  C_30
REMARK                            x       y       z     vdW  Elec       q    Type
REMARK                         _______ _______ _______ _____ _____    ______ ____
ROOT
ATOM      1  C   UNL     1      -1.959  -6.465   0.130  0.00  0.00    +0.100 A 
ATOM      2  C   UNL     1      -1.157  -7.207  -0.742  0.00  0.00    +0.054 A 
ATOM      3  C   UNL     1      -1.511  -8.521  -0.627  0.00  0.00    +0.223 A 
ATOM      4  N   UNL     1      -2.500  -8.600   0.287  0.00  0.00    -0.246 N 
ATOM      5  H   UNL     1      -2.947  -9.412   0.574  0.00  0.00    +0.192 HD
ATOM      6  N   UNL     1      -2.764  -7.303   0.755  0.00  0.00    -0.171 NA
ATOM      7  O   UNL     1      -0.918  -9.505  -1.348  0.00  0.00    -0.423 OA
ATOM      8  C   UNL     1      -0.150  -9.137  -2.393  0.00  0.00    +0.200 C 
ATOM      9  C   UNL     1       0.275  -7.871  -2.606  0.00  0.00    +0.098 C 
ATOM     10  C   UNL     1      -0.074  -6.735  -1.677  0.00  0.00    +0.102 C 
ENDROOT
BRANCH   1  14
ATOM     11  C   UNL     1      -1.816  -2.246   0.680  0.00  0.00    +0.162 A 
ATOM     12  C   UNL     1      -1.733  -2.782  -0.596  0.00  0.00    +0.050 A 
ATOM     13  C   UNL     1      -1.779  -4.150  -0.777  0.00  0.00    +0.014 A 
ATOM     14  C   UNL     1      -1.909  -4.994   0.324  0.00  0.00    +0.006 A 
ATOM     15  C   UNL     1      -1.993  -4.456   1.606  0.00  0.00    +0.059 A 
ATOM     16  C   UNL     1      -1.940  -3.085   1.784  0.00  0.00    +0.162 A 
BRANCH  16  17
ATOM     17  O   UNL     1      -2.016  -2.558   3.035  0.00  0.00    -0.491 OA
ATOM     18  C   UNL     1      -2.143  -3.478   4.120  0.00  0.00    +0.277 C 
ENDBRANCH  16  17
BRANCH  11  19
ATOM     19  O   UNL     1      -1.770  -0.898   0.854  0.00  0.00    -0.489 OA
BRANCH  19  21
ATOM     20  C   UNL     1      -1.607   1.383   0.070  0.00  0.00    +0.048 C 
ATOM     21  C   UNL     1      -1.642  -0.096  -0.322  0.00  0.00    +0.226 C 
ENDBRANCH  19  21
ENDBRANCH  11  19
ENDBRANCH   1  14
BRANCH  10  22
ATOM     22  C   UNL     1       1.143  -6.334  -0.884  0.00  0.00    -0.034 A 
ATOM     23  C   UNL     1       1.731  -7.239  -0.019  0.00  0.00    +0.005 A 
ATOM     24  C   UNL     1       2.846  -6.875   0.709  0.00  0.00    +0.015 A 
ATOM     25  C   UNL     1       3.378  -5.598   0.572  0.00  0.00    +0.008 A 
ATOM     26  C   UNL     1       2.784  -4.692  -0.298  0.00  0.00    +0.015 A 
ATOM     27  C   UNL     1       1.672  -5.065  -1.028  0.00  0.00    +0.005 A 
BRANCH  25  28
ATOM     28  S   UNL     1       4.800  -5.130   1.500  0.00  0.00    -0.129 S 
ATOM     29  C   UNL     1       5.109  -3.415   0.994  0.00  0.00    +0.090 C 
ENDBRANCH  25  28
ENDBRANCH  10  22
BRANCH   8  30
ATOM     30  N   UNL     1       0.224 -10.104  -3.293  0.00  0.00    -0.328 N 
ATOM     31  H   UNL     1      -0.064 -11.021  -3.167  0.00  0.00    +0.145 HD
ATOM     32  H   UNL     1       0.777  -9.870  -4.054  0.00  0.00    +0.145 HD
ENDBRANCH   8  30
BRANCH   9  33
ATOM     33  C   UNL     1       1.085  -7.599  -3.755  0.00  0.00    +0.101 C 
ATOM     34  N   UNL     1       1.728  -7.384  -4.666  0.00  0.00    -0.191 NA
ENDBRANCH   9  33
TORSDOF 8
