REMARK  Name = ZINC20883698
REMARK  16 active torsions:
REMARK  status: ('A' for Active; 'I' for Inactive)
REMARK    1  A    between atoms: C_1  and  C_2
REMARK    2  A    between atoms: C_2  and  O_3
REMARK    3  A    between atoms: O_3  and  C_4
REMARK    4  A    between atoms: C_4  and  C_6
REMARK    5  A    between atoms: C_7  and  C_30
REMARK    6  A    between atoms: C_10  and  N_11
REMARK    7  A    between atoms: C_12  and  C_14
REMARK    8  A    between atoms: C_14  and  S_15
REMARK    9  A    between atoms: S_15  and  C_16
REMARK   10  A    between atoms: C_19  and  C_22
REMARK   11  A    between atoms: N_20  and  N_21
REMARK   12  A    between atoms: C_25  and  O_28
REMARK   13  A    between atoms: O_28  and  C_29
REMARK   14  A    between atoms: C_30  and  C_31
REMARK   15  A    between atoms: C_31  and  C_32
REMARK   16  A    between atoms: C_31  and  C_33
REMARK                            x       y       z     vdW  Elec       q    Type
REMARK                         _______ _______ _______ _____ _____    ______ ____
ROOT
ATOM      1  N   UNL     1      -1.424   0.368   2.674  0.00  0.00    -0.279 N 
ATOM      2  C   UNL     1      -2.157  -0.298   3.588  0.00  0.00    +0.228 C 
ATOM      3  O   UNL     1      -3.172  -0.870   3.252  0.00  0.00    -0.275 OA
ATOM      4  H   UNL     1      -0.503   0.887   2.979  0.00  0.00    +0.155 HD
ENDROOT
BRANCH   1   9
ATOM      5  C   UNL     1      -1.216   1.029   0.272  0.00  0.00    +0.091 A 
ATOM      6  C   UNL     1      -1.868   0.902  -1.011  0.00  0.00    -0.024 A 
ATOM      7  C   UNL     1      -3.003   0.183  -1.055  0.00  0.00    +0.051 A 
ATOM      8  S   UNL     1      -3.228  -0.332   0.635  0.00  0.00    -0.081 S 
ATOM      9  C   UNL     1      -1.831   0.401   1.349  0.00  0.00    +0.086 A 
BRANCH   5  10
ATOM     10  C   UNL     1       0.027   1.786   0.430  0.00  0.00    +0.342 C 
ATOM     11  O   UNL     1       1.100   1.227   0.304  0.00  0.00    -0.245 OA
BRANCH  10  12
ATOM     12  O   UNL     1      -0.017   3.103   0.717  0.00  0.00    -0.461 OA
BRANCH  12  14
ATOM     13  C   UNL     1       1.004   5.265   1.181  0.00  0.00    +0.048 C 
ATOM     14  C   UNL     1       1.254   3.790   0.860  0.00  0.00    +0.229 C 
ENDBRANCH  12  14
ENDBRANCH  10  12
ENDBRANCH   5  10
BRANCH   6  15
ATOM     15  C   UNL     1      -1.297   1.545  -2.249  0.00  0.00    +0.039 C 
BRANCH  15  16
ATOM     16  C   UNL     1      -0.249   0.617  -2.868  0.00  0.00    -0.013 C 
ATOM     17  C   UNL     1      -0.927  -0.665  -3.354  0.00  0.00    +0.007 C 
ATOM     18  C   UNL     1       0.419   1.321  -4.051  0.00  0.00    +0.007 C 
ENDBRANCH  15  16
ENDBRANCH   6  15
ENDBRANCH   1   9
BRANCH   2  19
ATOM     19  C   UNL     1      -1.714  -0.333   5.028  0.00  0.00    +0.173 C 
BRANCH  19  20
ATOM     20  S   UNL     1      -2.897  -1.299   6.000  0.00  0.00    -0.075 S 
BRANCH  20  21
ATOM     21  C   UNL     1      -2.156  -1.178   7.593  0.00  0.00    +0.209 A 
ATOM     22  N   UNL     1      -1.044  -0.543   7.890  0.00  0.00    -0.121 NA
ATOM     23  N   UNL     1      -0.793  -0.654   9.145  0.00  0.00    -0.127 NA
ATOM     24  C   UNL     1      -1.725  -1.374   9.726  0.00  0.00    +0.182 A 
ATOM     25  N   UNL     1      -2.626  -1.731   8.750  0.00  0.00    -0.224 N 
BRANCH  24  26
ATOM     26  C   UNL     1      -1.792  -1.732  11.159  0.00  0.00    +0.021 A 
ATOM     27  C   UNL     1      -1.028  -1.031  12.093  0.00  0.00    +0.015 A 
ATOM     28  C   UNL     1      -1.097  -1.365  13.428  0.00  0.00    +0.046 A 
ATOM     29  C   UNL     1      -1.918  -2.405  13.844  0.00  0.00    +0.120 A 
ATOM     30  C   UNL     1      -2.676  -3.109  12.917  0.00  0.00    +0.046 A 
ATOM     31  C   UNL     1      -2.616  -2.777  11.581  0.00  0.00    +0.015 A 
BRANCH  29  32
ATOM     32  O   UNL     1      -1.979  -2.735  15.160  0.00  0.00    -0.495 OA
ATOM     33  C   UNL     1      -1.173  -1.970  16.059  0.00  0.00    +0.277 C 
ENDBRANCH  29  32
ENDBRANCH  24  26
BRANCH  25  34
ATOM     34  N   UNL     1      -3.756  -2.483   8.906  0.00  0.00    -0.295 N 
ATOM     35  H   UNL     1      -4.025  -2.873   9.899  0.00  0.00    +0.163 HD
ATOM     36  H   UNL     1      -4.397  -2.699   8.038  0.00  0.00    +0.163 HD
ENDBRANCH  25  34
ENDBRANCH  20  21
ENDBRANCH  19  20
ENDBRANCH   2  19
TORSDOF 12
