REMARK  Name = ZINC63541392
REMARK  6 active torsions:
REMARK  status: ('A' for Active; 'I' for Inactive)
REMARK    1  A    between atoms: C_4  and  C_7
REMARK    2  A    between atoms: N_19  and  C_20
REMARK    3  A    between atoms: C_23  and  C_26
REMARK    4  A    between atoms: N_28  and  C_29
REMARK    5  A    between atoms: C_29  and  C_30
REMARK    6  A    between atoms: C_30  and  C_31
REMARK                            x       y       z     vdW  Elec       q    Type
REMARK                         _______ _______ _______ _____ _____    ______ ____
ROOT
ATOM      1  C   UNL     1       2.930  -1.986  -2.107  0.00  0.00    +0.030 A 
ATOM      2  C   UNL     1       3.010  -3.146  -2.873  0.00  0.00    +0.024 A 
ATOM      3  C   UNL     1       2.326  -3.234  -4.064  0.00  0.00    +0.015 A 
ATOM      4  C   UNL     1       1.552  -2.157  -4.505  0.00  0.00    +0.037 A 
ATOM      5  C   UNL     1       1.474  -0.994  -3.734  0.00  0.00    +0.015 A 
ATOM      6  C   UNL     1       2.155  -0.914  -2.541  0.00  0.00    +0.024 A 
ENDROOT
BRANCH   1  16
ATOM      7  C   UNL     1       5.083  -2.022  -0.732  0.00  0.00    +0.104 C 
ATOM      8  C   UNL     1       5.392  -1.285   0.596  0.00  0.00    +0.032 C 
ATOM      9  C   UNL     1       4.141  -1.655   1.448  0.00  0.00    +0.011 C 
ATOM     10  C   UNL     1       4.385  -2.947   2.151  0.00  0.00    +0.005 C 
ATOM     11  C   UNL     1       3.493  -3.220   3.342  0.00  0.00    +0.000 C 
ATOM     12  C   UNL     1       2.146  -3.725   2.902  0.00  0.00    +0.000 C 
ATOM     13  C   UNL     1       1.404  -2.673   2.098  0.00  0.00    +0.002 C 
ATOM     14  C   UNL     1       1.844  -2.544   0.680  0.00  0.00    +0.023 C 
ATOM     15  C   UNL     1       3.028  -1.670   0.421  0.00  0.00    +0.077 C 
ATOM     16  N   UNL     1       3.622  -1.900  -0.904  0.00  0.00    -0.319 N 
BRANCH   7  20
ATOM     17  C   UNL     1       7.122  -0.148  -3.984  0.00  0.00    +0.000 A 
ATOM     18  C   UNL     1       7.607  -1.328  -3.453  0.00  0.00    +0.000 A 
ATOM     19  C   UNL     1       6.947  -1.935  -2.401  0.00  0.00    +0.005 A 
ATOM     20  C   UNL     1       5.803  -1.361  -1.879  0.00  0.00    -0.027 A 
ATOM     21  C   UNL     1       5.319  -0.179  -2.410  0.00  0.00    +0.005 A 
ATOM     22  C   UNL     1       5.978   0.426  -3.463  0.00  0.00    +0.000 A 
ENDBRANCH   7  20
ENDBRANCH   1  16
BRANCH   4  23
ATOM     23  C   UNL     1       0.818  -2.248  -5.782  0.00  0.00    +0.244 C 
ATOM     24  O   UNL     1       0.887  -3.261  -6.452  0.00  0.00    -0.270 OA
ATOM     25  N   UNL     1       0.072  -1.209  -6.206  0.00  0.00    -0.311 N 
ATOM     26  H   UNL     1       0.017  -0.402  -5.671  0.00  0.00    +0.149 HD
BRANCH  25  27
ATOM     27  C   UNL     1      -0.656  -1.300  -7.474  0.00  0.00    +0.109 C 
BRANCH  27  28
ATOM     28  C   UNL     1      -1.418   0.004  -7.718  0.00  0.00    +0.052 C 
BRANCH  28  29
ATOM     29  C   UNL     1      -2.167  -0.089  -9.023  0.00  0.00    -0.040 C 
ATOM     30  C   UNL     1      -3.460  -0.448  -9.194  0.00  0.00    -0.001 A 
ATOM     31  C   UNL     1      -4.515  -0.846  -8.254  0.00  0.00    +0.010 A 
ATOM     32  C   UNL     1      -5.740  -1.156  -8.736  0.00  0.00    +0.001 A 
ATOM     33  C   UNL     1      -6.027  -1.108 -10.107  0.00  0.00    +0.002 A 
ATOM     34  C   UNL     1      -5.110  -0.752 -11.032  0.00  0.00    +0.026 A 
ATOM     35  C   UNL     1      -3.788  -0.405 -10.637  0.00  0.00    +0.043 A 
ATOM     36  N   UNL     1      -2.740  -0.034 -11.331  0.00  0.00    -0.380 N 
ATOM     37  C   UNL     1      -1.628   0.207 -10.404  0.00  0.00    +0.144 C 
ATOM     38  H   UNL     1      -2.706   0.069 -12.295  0.00  0.00    +0.160 HD
ENDBRANCH  28  29
ENDBRANCH  27  28
ENDBRANCH  25  27
ENDBRANCH   4  23
TORSDOF 6
