REMARK  Name = ZINC63658796
REMARK  9 active torsions:
REMARK  status: ('A' for Active; 'I' for Inactive)
REMARK    1  A    between atoms: C_1  and  C_2
REMARK    2  A    between atoms: C_4  and  C_13
REMARK    3  A    between atoms: C_13  and  C_14
REMARK    4  A    between atoms: C_14  and  N_15
REMARK    5  A    between atoms: N_15  and  C_16
REMARK    6  A    between atoms: N_15  and  C_23
REMARK    7  A    between atoms: C_16  and  C_17
REMARK    8  A    between atoms: C_23  and  N_25
REMARK    9  A    between atoms: N_25  and  C_26
REMARK                            x       y       z     vdW  Elec       q    Type
REMARK                         _______ _______ _______ _____ _____    ______ ____
ROOT
ATOM      1  N   UNL     1      -4.819  -0.826  -1.544  0.00  0.00    -0.307 N 
ENDROOT
BRANCH   1   2
ATOM      2  C   UNL     1      -5.653   0.226  -1.418  0.00  0.00    +0.133 C 
ATOM      3  S   UNL     1      -5.480   1.301  -0.097  0.00  0.00    -0.019 S 
BRANCH   2   4
ATOM      4  N   UNL     1      -6.622   0.430  -2.332  0.00  0.00    -0.324 N 
ATOM      5  H   UNL     1      -6.720  -0.179  -3.080  0.00  0.00    +0.148 HD
BRANCH   4   6
ATOM      6  C   UNL     1      -7.528   1.574  -2.195  0.00  0.00    +0.072 C 
ATOM      7  C   UNL     1      -8.685   1.199  -1.266  0.00  0.00    +0.022 C 
ATOM      8  C   UNL     1      -9.631   2.393  -1.123  0.00  0.00    +0.002 C 
ATOM      9  C   UNL     1     -10.184   2.773  -2.498  0.00  0.00    +0.000 C 
ATOM     10  C   UNL     1      -9.027   3.148  -3.427  0.00  0.00    +0.002 C 
ATOM     11  C   UNL     1      -8.080   1.954  -3.570  0.00  0.00    +0.022 C 
ENDBRANCH   4   6
ENDBRANCH   2   4
ENDBRANCH   1   2
BRANCH   1  12
ATOM     12  C   UNL     1      -3.765  -1.048  -0.551  0.00  0.00    +0.111 C 
BRANCH  12  13
ATOM     13  C   UNL     1      -2.494  -0.316  -0.984  0.00  0.00    +0.052 C 
BRANCH  13  16
ATOM     14  C   UNL     1      -0.019   1.526   0.010  0.00  0.00    +0.035 C 
ATOM     15  C   UNL     1       0.002  -0.004   0.002  0.00  0.00    +0.103 C 
ATOM     16  C   UNL     1      -1.410  -0.545   0.038  0.00  0.00    -0.037 C 
ATOM     17  C   UNL     1      -1.503  -1.275   1.172  0.00  0.00    +0.001 A 
ATOM     18  C   UNL     1      -2.599  -2.045   1.772  0.00  0.00    +0.030 A 
ATOM     19  C   UNL     1      -2.386  -2.687   2.944  0.00  0.00    +0.042 A 
ATOM     20  C   UNL     1      -1.147  -2.633   3.599  0.00  0.00    +0.022 A 
ATOM     21  C   UNL     1      -0.093  -1.946   3.110  0.00  0.00    +0.027 A 
ATOM     22  C   UNL     1      -0.205  -1.235   1.884  0.00  0.00    +0.043 A 
ATOM     23  N   UNL     1       0.658  -0.508   1.214  0.00  0.00    -0.378 N 
ATOM     24 CL   UNL     1      -3.680  -3.598   3.657  0.00  0.00    -0.084 Cl
ATOM     25  H   UNL     1       1.576  -0.332   1.475  0.00  0.00    +0.160 HD
ENDBRANCH  13  16
ENDBRANCH  12  13
ENDBRANCH   1  12
BRANCH   1  26
ATOM     26  C   UNL     1      -4.967  -1.746  -2.674  0.00  0.00    +0.162 C 
BRANCH  26  27
ATOM     27  C   UNL     1      -5.909  -2.860  -2.295  0.00  0.00    +0.058 A 
ATOM     28  C   UNL     1      -7.247  -2.766  -2.627  0.00  0.00    +0.025 A 
ATOM     29  C   UNL     1      -8.105  -3.796  -2.273  0.00  0.00    +0.003 A 
ATOM     30  C   UNL     1      -7.582  -4.887  -1.596  0.00  0.00    +0.020 A 
ATOM     31  C   UNL     1      -6.233  -4.912  -1.298  0.00  0.00    +0.111 A 
ATOM     32  N   UNL     1      -5.446  -3.916  -1.655  0.00  0.00    -0.258 NA
ENDBRANCH  26  27
ENDBRANCH   1  26
TORSDOF 8
