REMARK  Name = ZINC39350800
REMARK  12 active torsions:
REMARK  status: ('A' for Active; 'I' for Inactive)
REMARK    1  A    between atoms: C_1  and  C_2
REMARK    2  A    between atoms: C_2  and  C_4
REMARK    3  A    between atoms: C_2  and  N_12
REMARK    4  A    between atoms: C_4  and  C_5
REMARK    5  A    between atoms: C_5  and  C_6
REMARK    6  A    between atoms: C_13  and  C_15
REMARK    7  A    between atoms: C_15  and  C_16
REMARK    8  A    between atoms: C_16  and  C_17
REMARK    9  A    between atoms: N_19  and  N_20
REMARK   10  A    between atoms: C_21  and  C_23
REMARK   11  A    between atoms: C_28  and  O_33
REMARK   12  A    between atoms: O_33  and  C_34
REMARK                            x       y       z     vdW  Elec       q    Type
REMARK                         _______ _______ _______ _____ _____    ______ ____
ROOT
ATOM      1  N   UNL     1       0.384  -2.194   8.345  0.00  0.00    -0.232 N 
ATOM      2  C   UNL     1      -0.224  -2.359   9.537  0.00  0.00    +0.255 C 
ATOM      3  O   UNL     1      -1.395  -2.072   9.665  0.00  0.00    -0.272 OA
ATOM      4  H   UNL     1       1.321  -2.424   8.243  0.00  0.00    +0.173 HD
ENDROOT
BRANCH   2   5
ATOM      5  C   UNL     1       0.552  -2.899  10.710  0.00  0.00    +0.191 C 
ATOM      6  C   UNL     1       0.642  -4.407  10.626  0.00  0.00    +0.016 C 
ATOM      7  C   UNL     1       0.034  -4.881  11.737  0.00  0.00    -0.000 A 
ATOM      8  C   UNL     1      -0.207  -6.239  12.236  0.00  0.00    +0.056 A 
ATOM      9  C   UNL     1      -0.860  -6.412  13.411  0.00  0.00    +0.129 A 
ATOM     10  C   UNL     1      -1.320  -5.329  14.180  0.00  0.00    +0.048 A 
ATOM     11  C   UNL     1      -1.146  -4.044  13.804  0.00  0.00    +0.029 A 
ATOM     12  C   UNL     1      -0.452  -3.741  12.548  0.00  0.00    +0.043 A 
ATOM     13  N   UNL     1      -0.155  -2.606  11.962  0.00  0.00    -0.370 N 
ATOM     14  H   UNL     1      -0.368  -1.722  12.299  0.00  0.00    +0.161 HD
BRANCH   9  15
ATOM     15  O   UNL     1      -1.076  -7.676  13.862  0.00  0.00    -0.456 OA
BRANCH  15  16
ATOM     16  C   UNL     1      -2.357  -8.127  13.905  0.00  0.00    +0.128 A 
ATOM     17  C   UNL     1      -3.383  -7.358  13.374  0.00  0.00    +0.046 A 
ATOM     18  C   UNL     1      -4.684  -7.819  13.418  0.00  0.00    +0.004 A 
ATOM     19  C   UNL     1      -4.965  -9.046  13.992  0.00  0.00    +0.000 A 
ATOM     20  C   UNL     1      -3.945  -9.813  14.522  0.00  0.00    +0.004 A 
ATOM     21  C   UNL     1      -2.641  -9.360  14.475  0.00  0.00    +0.046 A 
ENDBRANCH  15  16
ENDBRANCH   9  15
ENDBRANCH   2   5
BRANCH   1  24
ATOM     22  C   UNL     1       0.271  -1.528   6.063  0.00  0.00    +0.230 C 
ATOM     23  O   UNL     1       1.442  -1.815   5.935  0.00  0.00    -0.274 OA
ATOM     24  N   UNL     1      -0.337  -1.692   7.254  0.00  0.00    -0.234 N 
ATOM     25  H   UNL     1      -1.274  -1.462   7.356  0.00  0.00    +0.173 HD
BRANCH  22  26
ATOM     26  C   UNL     1      -0.505  -0.987   4.889  0.00  0.00    +0.106 C 
BRANCH  26  27
ATOM     27  C   UNL     1       0.413  -0.900   3.668  0.00  0.00    +0.105 C 
BRANCH  27  29
ATOM     28  N   UNL     1       0.245  -0.195   1.303  0.00  0.00    -0.313 N 
ATOM     29  C   UNL     1      -0.363  -0.359   2.494  0.00  0.00    +0.214 C 
ATOM     30  O   UNL     1      -1.534  -0.072   2.622  0.00  0.00    -0.276 OA
ATOM     31  H   UNL     1       1.182  -0.424   1.201  0.00  0.00    +0.149 HD
BRANCH  28  33
ATOM     32  C   UNL     1      -0.505   1.860   0.209  0.00  0.00    +0.028 C 
ATOM     33  C   UNL     1      -0.509   0.331   0.162  0.00  0.00    +0.070 C 
BRANCH  33  34
ATOM     34  C   UNL     1       0.142  -0.140  -1.140  0.00  0.00    +0.026 C 
BRANCH  34  35
ATOM     35  C   UNL     1       0.027  -1.662  -1.246  0.00  0.00    +0.037 C 
BRANCH  35  36
ATOM     36  C   UNL     1       0.668  -2.127  -2.528  0.00  0.00    -0.047 A 
ATOM     37  C   UNL     1      -0.085  -2.216  -3.684  0.00  0.00    +0.003 A 
ATOM     38  C   UNL     1       0.503  -2.642  -4.861  0.00  0.00    +0.000 A 
ATOM     39  C   UNL     1       1.844  -2.978  -4.881  0.00  0.00    +0.000 A 
ATOM     40  C   UNL     1       2.597  -2.888  -3.725  0.00  0.00    +0.000 A 
ATOM     41  C   UNL     1       2.010  -2.458  -2.550  0.00  0.00    +0.003 A 
ENDBRANCH  35  36
ENDBRANCH  34  35
ENDBRANCH  33  34
ENDBRANCH  28  33
ENDBRANCH  27  29
ENDBRANCH  26  27
ENDBRANCH  22  26
ENDBRANCH   1  24
TORSDOF 11
