REMARK  Name = ZINC28291773
REMARK  5 active torsions:
REMARK  status: ('A' for Active; 'I' for Inactive)
REMARK    1  A    between atoms: C_4  and  C_7
REMARK    2  A    between atoms: C_7  and  C_9
REMARK    3  A    between atoms: C_7  and  N_25
REMARK    4  A    between atoms: C_9  and  N_10
REMARK    5  A    between atoms: C_11  and  C_13
REMARK                            x       y       z     vdW  Elec       q    Type
REMARK                         _______ _______ _______ _____ _____    ______ ____
ROOT
ATOM      1  N   UNL     1      -0.504   4.178  -1.118  0.00  0.00    -0.310 N 
ATOM      2  C   UNL     1       0.821   3.990  -1.278  0.00  0.00    +0.279 C 
ATOM      3  O   UNL     1       1.470   3.457  -0.399  0.00  0.00    -0.267 OA
ATOM      4  H   UNL     1      -1.090   4.664  -1.911  0.00  0.00    +0.149 HD
ENDROOT
BRANCH   2   5
ATOM      5  C   UNL     1       1.488   4.437  -2.524  0.00  0.00    +0.193 A 
ATOM      6  C   UNL     1       2.822   4.244  -2.653  0.00  0.00    +0.103 A 
ATOM      7  C   UNL     1       3.485   4.683  -3.891  0.00  0.00    +0.193 A 
ATOM      8  O   UNL     1       4.681   4.531  -4.063  0.00  0.00    -0.287 OA
ATOM      9  C   UNL     1       2.632   5.321  -4.912  0.00  0.00    +0.064 A 
ATOM     10  C   UNL     1       3.163   5.777  -6.118  0.00  0.00    +0.016 A 
ATOM     11  C   UNL     1       2.342   6.364  -7.040  0.00  0.00    +0.016 A 
ATOM     12  C   UNL     1       0.985   6.507  -6.782  0.00  0.00    +0.021 A 
ATOM     13  C   UNL     1       0.442   6.062  -5.595  0.00  0.00    +0.062 A 
ATOM     14  C   UNL     1       1.260   5.462  -4.642  0.00  0.00    +0.141 A 
ATOM     15  O   UNL     1       0.748   5.021  -3.477  0.00  0.00    -0.450 OA
ATOM     16 BR   UNL     1      -0.132   7.321  -8.073  0.00  0.00    -0.050 Br
ENDBRANCH   2   5
BRANCH   1  17
ATOM     17  C   UNL     1      -1.163   3.736   0.114  0.00  0.00    +0.094 C 
BRANCH  17  18
ATOM     18  C   UNL     1      -2.624   4.191   0.102  0.00  0.00    -0.020 C 
BRANCH  18  19
ATOM     19  N   UNL     1      -3.304   3.686   1.302  0.00  0.00    +0.385 N 
ATOM     20  C   UNL     1      -3.216   2.222   1.379  0.00  0.00    -0.078 C 
ATOM     21  C   UNL     1      -3.805   1.744   2.708  0.00  0.00    -0.019 C 
ATOM     22  C   UNL     1      -5.266   2.192   2.804  0.00  0.00    -0.004 C 
ATOM     23  C   UNL     1      -5.333   3.716   2.673  0.00  0.00    -0.019 C 
ATOM     24  C   UNL     1      -4.700   4.137   1.345  0.00  0.00    -0.078 C 
ATOM     25  H   UNL     1      -2.791   4.099   2.183  0.00  0.00    -0.081 HD
ENDBRANCH  18  19
BRANCH  18  29
ATOM     26  C   UNL     1      -2.785   8.460   0.066  0.00  0.00    +0.000 A 
ATOM     27  C   UNL     1      -2.960   7.752  -1.109  0.00  0.00    +0.000 A 
ATOM     28  C   UNL     1      -2.908   6.370  -1.097  0.00  0.00    +0.002 A 
ATOM     29  C   UNL     1      -2.680   5.697   0.089  0.00  0.00    -0.059 A 
ATOM     30  C   UNL     1      -2.511   6.405   1.264  0.00  0.00    +0.002 A 
ATOM     31  C   UNL     1      -2.558   7.787   1.252  0.00  0.00    +0.000 A 
ENDBRANCH  18  29
ENDBRANCH  17  18
ENDBRANCH   1  17
TORSDOF 5
