REMARK  Name = ZINC23375187
REMARK  10 active torsions:
REMARK  status: ('A' for Active; 'I' for Inactive)
REMARK    1  A    between atoms: C_1  and  O_2
REMARK    2  A    between atoms: O_2  and  C_3
REMARK    3  A    between atoms: C_6  and  C_19
REMARK    4  A    between atoms: C_8  and  C_9
REMARK    5  A    between atoms: C_9  and  O_10
REMARK    6  A    between atoms: O_10  and  C_11
REMARK    7  A    between atoms: C_28  and  C_36
REMARK    8  A    between atoms: C_29  and  N_35
REMARK    9  A    between atoms: C_30  and  C_31
REMARK   10  A    between atoms: C_30  and  C_33
REMARK                            x       y       z     vdW  Elec       q    Type
REMARK                         _______ _______ _______ _____ _____    ______ ____
ROOT
ATOM      1  C   UNL     1      -6.042  -0.044   1.866  0.00  0.00    +0.066 C 
ATOM      2  C   UNL     1      -6.733  -0.112   0.503  0.00  0.00    +0.030 C 
ATOM      3  C   UNL     1      -6.533   1.155  -0.294  0.00  0.00    +0.009 C 
ATOM      4  C   UNL     1      -7.740   2.086  -0.198  0.00  0.00    +0.005 C 
ATOM      5  C   UNL     1      -8.972   1.335  -0.721  0.00  0.00    +0.027 C 
ATOM      6  C   UNL     1      -9.186   0.132   0.160  0.00  0.00    -0.022 C 
ATOM      7  C   UNL     1      -8.174  -0.467   0.723  0.00  0.00    -0.029 C 
ATOM      8  C   UNL     1      -8.456  -1.570   1.679  0.00  0.00    +0.074 C 
ATOM      9  C   UNL     1      -7.473  -1.995   2.512  0.00  0.00    +0.054 C 
ATOM     10  C   UNL     1      -6.086  -1.427   2.517  0.00  0.00    +0.188 C 
ENDROOT
BRANCH   1  14
ATOM     11  C   UNL     1      -1.975   1.163   1.348  0.00  0.00    +0.126 A 
ATOM     12  C   UNL     1      -2.528   0.205   0.510  0.00  0.00    +0.046 A 
ATOM     13  C   UNL     1      -3.842  -0.183   0.679  0.00  0.00    +0.007 A 
ATOM     14  C   UNL     1      -4.607   0.382   1.683  0.00  0.00    -0.040 A 
ATOM     15  C   UNL     1      -4.059   1.336   2.520  0.00  0.00    +0.014 A 
ATOM     16  C   UNL     1      -2.743   1.724   2.358  0.00  0.00    +0.032 A 
BRANCH  11  18
ATOM     17  C   UNL     1       0.051   0.922   0.128  0.00  0.00    +0.277 C 
ATOM     18  O   UNL     1      -0.682   1.547   1.184  0.00  0.00    -0.495 OA
ENDBRANCH  11  18
BRANCH  16  19
ATOM     19  C   UNL     1      -2.144   2.760   3.274  0.00  0.00    +0.268 C 
BRANCH  19  20
ATOM     20  O   UNL     1      -3.126   3.182   4.223  0.00  0.00    -0.484 OA
BRANCH  20  21
ATOM     21  C   UNL     1      -2.745   4.121   5.130  0.00  0.00    +0.156 A 
ATOM     22  C   UNL     1      -1.454   4.625   5.106  0.00  0.00    +0.051 A 
ATOM     23  C   UNL     1      -1.068   5.579   6.028  0.00  0.00    +0.042 A 
ATOM     24  C   UNL     1      -1.969   6.033   6.975  0.00  0.00    +0.126 A 
ATOM     25  C   UNL     1      -3.259   5.531   7.002  0.00  0.00    +0.080 A 
ATOM     26  C   UNL     1      -3.651   4.580   6.077  0.00  0.00    +0.168 A 
ATOM     27  F   UNL     1      -4.911   4.094   6.099  0.00  0.00    -0.202 F 
ATOM     28  F   UNL     1      -1.589   6.966   7.875  0.00  0.00    -0.205 F 
ENDBRANCH  20  21
ENDBRANCH  19  20
ENDBRANCH  16  19
ENDBRANCH   1  14
BRANCH   9  29
ATOM     29  N   UNL     1      -7.764  -2.994   3.398  0.00  0.00    -0.358 N 
ATOM     30  H   UNL     1      -6.990  -3.362   4.087  0.00  0.00    +0.142 HD
ATOM     31  H   UNL     1      -8.774  -3.432   3.422  0.00  0.00    +0.142 HD
ENDBRANCH   9  29
BRANCH  10  32
ATOM     32  C   UNL     1      -5.195  -2.335   1.776  0.00  0.00    +0.091 C 
ATOM     33  N   UNL     1      -4.507  -3.036   1.205  0.00  0.00    -0.194 NA
ENDBRANCH  10  32
BRANCH  10  34
ATOM     34  C   UNL     1      -5.612  -1.319   3.906  0.00  0.00    +0.091 C 
ATOM     35  N   UNL     1      -5.247  -1.236   4.979  0.00  0.00    -0.194 NA
ENDBRANCH  10  34
BRANCH   8  36
ATOM     36  C   UNL     1      -9.752  -2.177   1.721  0.00  0.00    +0.101 C 
ATOM     37  N   UNL     1     -10.781  -2.659   1.754  0.00  0.00    -0.191 NA
ENDBRANCH   8  36
TORSDOF 9
