REMARK  Name = ZINC00887572
REMARK  12 active torsions:
REMARK  status: ('A' for Active; 'I' for Inactive)
REMARK    1  A    between atoms: C_1  and  C_2
REMARK    2  A    between atoms: C_5  and  N_9
REMARK    3  A    between atoms: C_6  and  C_8
REMARK    4  A    between atoms: N_9  and  C_10
REMARK    5  A    between atoms: C_10  and  C_12
REMARK    6  A    between atoms: C_10  and  C_19
REMARK    7  A    between atoms: C_15  and  O_18
REMARK    8  A    between atoms: N_21  and  C_22
REMARK    9  A    between atoms: C_22  and  C_23
REMARK   10  A    between atoms: C_29  and  C_31
REMARK   11  A    between atoms: C_31  and  N_32
REMARK   12  A    between atoms: C_34  and  C_37
REMARK                            x       y       z     vdW  Elec       q    Type
REMARK                         _______ _______ _______ _____ _____    ______ ____
ROOT
ATOM      1  N   UNL     1       0.524  -4.917   0.995  0.00  0.00    -0.254 N 
ATOM      2  C   UNL     1      -0.246  -6.012   1.149  0.00  0.00    +0.244 C 
ATOM      3  O   UNL     1      -0.167  -6.926   0.356  0.00  0.00    -0.273 OA
ENDROOT
BRANCH   1   8
ATOM      4  C   UNL     1       0.152  -0.641   4.705  0.00  0.00    +0.044 C 
ATOM      5  C   UNL     1       0.251  -1.777   3.720  0.00  0.00    -0.050 A 
ATOM      6  C   UNL     1      -0.642  -1.857   2.667  0.00  0.00    +0.005 A 
ATOM      7  C   UNL     1      -0.554  -2.896   1.762  0.00  0.00    +0.024 A 
ATOM      8  C   UNL     1       0.433  -3.862   1.910  0.00  0.00    +0.040 A 
ATOM      9  C   UNL     1       1.328  -3.779   2.968  0.00  0.00    -0.029 A 
ATOM     10  C   UNL     1       1.238  -2.734   3.867  0.00  0.00    +0.008 A 
ATOM     11  C   UNL     1       2.401  -4.825   3.132  0.00  0.00    +0.045 C 
ENDBRANCH   1   8
BRANCH   1  12
ATOM     12  C   UNL     1       1.458  -4.830  -0.131  0.00  0.00    +0.197 C 
BRANCH  12  13
ATOM     13  C   UNL     1       0.688  -4.872  -1.426  0.00  0.00    -0.018 A 
ATOM     14  C   UNL     1      -0.367  -4.002  -1.631  0.00  0.00    +0.009 A 
ATOM     15  C   UNL     1      -1.075  -4.039  -2.816  0.00  0.00    +0.046 A 
ATOM     16  C   UNL     1      -0.726  -4.950  -3.803  0.00  0.00    +0.117 A 
ATOM     17  C   UNL     1       0.333  -5.822  -3.596  0.00  0.00    +0.046 A 
ATOM     18  C   UNL     1       1.041  -5.777  -2.410  0.00  0.00    +0.009 A 
BRANCH  16  19
ATOM     19  O   UNL     1      -1.421  -4.988  -4.970  0.00  0.00    -0.507 OA
ATOM     20  H   UNL     1      -1.067  -4.408  -5.658  0.00  0.00    +0.292 HD
ENDBRANCH  16  19
ENDBRANCH  12  13
BRANCH  12  21
ATOM     21  C   UNL     1       2.229  -3.538  -0.047  0.00  0.00    +0.239 C 
ATOM     22  O   UNL     1       1.662  -2.513   0.267  0.00  0.00    -0.273 OA
ATOM     23  N   UNL     1       3.548  -3.522  -0.321  0.00  0.00    -0.309 N 
ATOM     24  H   UNL     1       4.002  -4.342  -0.572  0.00  0.00    +0.149 HD
BRANCH  23  25
ATOM     25  C   UNL     1       4.298  -2.266  -0.239  0.00  0.00    +0.139 C 
BRANCH  25  26
ATOM     26  C   UNL     1       5.741  -2.519  -0.590  0.00  0.00    -0.030 A 
ATOM     27  C   UNL     1       6.644  -2.860   0.400  0.00  0.00    +0.005 A 
ATOM     28  C   UNL     1       7.968  -3.091   0.077  0.00  0.00    +0.000 A 
ATOM     29  C   UNL     1       8.390  -2.983  -1.235  0.00  0.00    +0.000 A 
ATOM     30  C   UNL     1       7.487  -2.643  -2.225  0.00  0.00    +0.000 A 
ATOM     31  C   UNL     1       6.162  -2.415  -1.903  0.00  0.00    +0.005 A 
ENDBRANCH  25  26
ENDBRANCH  23  25
ENDBRANCH  12  21
ENDBRANCH   1  12
BRANCH   2  32
ATOM     32  C   UNL     1      -1.206  -6.100   2.308  0.00  0.00    +0.264 C 
BRANCH  32  33
ATOM     33  N   UNL     1      -1.921  -7.378   2.253  0.00  0.00    -0.154 N 
ATOM     34  N   UNL     1      -3.031  -7.584   1.633  0.00  0.00    -0.129 NA
ATOM     35  C   UNL     1      -3.363  -8.850   1.810  0.00  0.00    +0.211 A 
ATOM     36  N   UNL     1      -2.398  -9.396   2.566  0.00  0.00    -0.107 NA
ATOM     37  N   UNL     1      -1.534  -8.471   2.812  0.00  0.00    -0.045 NA
BRANCH  35  38
ATOM     38  C   UNL     1      -4.564  -9.531   1.279  0.00  0.00    +0.060 A 
ATOM     39  C   UNL     1      -4.956 -10.833   1.436  0.00  0.00    +0.019 A 
ATOM     40  C   UNL     1      -6.128 -11.248   0.842  0.00  0.00    +0.008 A 
ATOM     41  C   UNL     1      -6.856 -10.357   0.121  0.00  0.00    +0.046 A 
ATOM     42  S   UNL     1      -5.881  -8.868   0.274  0.00  0.00    -0.093 S 
ENDBRANCH  35  38
ENDBRANCH  32  33
ENDBRANCH   2  32
TORSDOF 10
