REMARK  Name = ZINC08253671
REMARK  6 active torsions:
REMARK  status: ('A' for Active; 'I' for Inactive)
REMARK    1  A    between atoms: C_1  and  N_2
REMARK    2  A    between atoms: C_4  and  C_11
REMARK    3  A    between atoms: C_11  and  N_12
REMARK    4  A    between atoms: C_20  and  O_27
REMARK    5  A    between atoms: N_28  and  C_31
REMARK    6  A    between atoms: C_31  and  C_32
REMARK                            x       y       z     vdW  Elec       q    Type
REMARK                         _______ _______ _______ _____ _____    ______ ____
ROOT
ATOM      1  N   UNL     1      -0.040   1.301   0.006  0.00  0.00    -0.300 N 
ATOM      2  C   UNL     1       1.354   1.763  -0.056  0.00  0.00    +0.140 C 
ATOM      3  C   UNL     1       2.176   0.459  -0.043  0.00  0.00    +0.113 C 
ATOM      4  C   UNL     1       3.021   0.415   1.238  0.00  0.00    +0.123 C 
ATOM      5  C   UNL     1       3.999   1.599   1.207  0.00  0.00    +0.051 C 
ATOM      6  C   UNL     1       3.205   2.906   1.185  0.00  0.00    +0.158 C 
ATOM      7  C   UNL     1       1.703   2.599   1.180  0.00  0.00    +0.227 C 
ATOM      8  O   UNL     1       1.386   1.806   2.366  0.00  0.00    -0.457 OA
ATOM      9  C   UNL     1       2.076   0.618   2.414  0.00  0.00    +0.313 C 
ATOM     10  O   UNL     1       1.964  -0.187   3.308  0.00  0.00    -0.250 OA
ATOM     11  N   UNL     1       1.157  -0.599   0.015  0.00  0.00    -0.307 N 
ATOM     12  C   UNL     1      -0.059  -0.037   0.041  0.00  0.00    +0.136 C 
ATOM     13  S   UNL     1      -1.507  -0.949   0.114  0.00  0.00    -0.018 S 
ENDROOT
BRANCH   6  14
ATOM     14  O   UNL     1       3.541   3.647   0.010  0.00  0.00    -0.388 OA
ATOM     15  H   UNL     1       4.477   3.881  -0.053  0.00  0.00    +0.210 HD
ENDBRANCH   6  14
BRANCH   1  16
ATOM     16  C   UNL     1      -1.221   2.168   0.020  0.00  0.00    +0.144 C 
BRANCH  16  20
ATOM     17  C   UNL     1      -1.536   4.793  -4.255  0.00  0.00    +0.149 C 
ATOM     18  N   UNL     1      -1.720   3.709  -3.287  0.00  0.00    -0.349 N 
ATOM     19  C   UNL     1      -1.227   3.703  -2.010  0.00  0.00    +0.091 A 
ATOM     20  C   UNL     1      -1.571   2.563  -1.392  0.00  0.00    -0.005 A 
ATOM     21  C   UNL     1      -2.357   1.778  -2.347  0.00  0.00    +0.005 A 
ATOM     22  C   UNL     1      -2.419   2.547  -3.524  0.00  0.00    +0.049 A 
ATOM     23  C   UNL     1      -3.112   2.053  -4.624  0.00  0.00    +0.026 A 
ATOM     24  C   UNL     1      -3.726   0.822  -4.551  0.00  0.00    +0.002 A 
ATOM     25  C   UNL     1      -3.661   0.067  -3.388  0.00  0.00    +0.001 A 
ATOM     26  C   UNL     1      -2.986   0.533  -2.294  0.00  0.00    +0.010 A 
ENDBRANCH  16  20
ENDBRANCH   1  16
BRANCH  11  27
ATOM     27  C   UNL     1       1.427  -2.038   0.040  0.00  0.00    +0.110 C 
BRANCH  27  28
ATOM     28  C   UNL     1       1.474  -2.573  -1.393  0.00  0.00    +0.006 C 
ATOM     29  C   UNL     1       0.093  -2.432  -2.035  0.00  0.00    +0.005 C 
ATOM     30  C   UNL     1       0.140  -2.967  -3.468  0.00  0.00    +0.000 C 
ATOM     31  C   UNL     1       0.546  -4.442  -3.449  0.00  0.00    +0.000 C 
ATOM     32  C   UNL     1       1.927  -4.583  -2.806  0.00  0.00    +0.000 C 
ATOM     33  C   UNL     1       1.880  -4.048  -1.373  0.00  0.00    +0.005 C 
ENDBRANCH  27  28
ENDBRANCH  11  27
TORSDOF 5
