REMARK  Name = ZINC20520867
REMARK  3 active torsions:
REMARK  status: ('A' for Active; 'I' for Inactive)
REMARK    1  A    between atoms: C_3  and  N_9
REMARK    2  A    between atoms: C_4  and  N_8
REMARK    3  A    between atoms: C_10  and  C_12
REMARK                            x       y       z     vdW  Elec       q    Type
REMARK                         _______ _______ _______ _____ _____    ______ ____
ROOT
ATOM      1  N   UNL     1      -0.886   6.252   0.037  0.00  0.00    -0.280 N 
ATOM      2  C   UNL     1      -1.463   5.033   0.036  0.00  0.00    +0.255 C 
ATOM      3  O   UNL     1      -2.676   4.934   0.055  0.00  0.00    -0.269 OA
ATOM      4  H   UNL     1       0.207   6.343   0.112  0.00  0.00    +0.155 HD
ENDROOT
BRANCH   2   5
ATOM      5  C   UNL     1      -0.629   3.828   0.011  0.00  0.00    +0.075 A 
ATOM      6  C   UNL     1      -1.014   2.504   0.000  0.00  0.00    +0.024 A 
ATOM      7  C   UNL     1      -0.018   1.527  -0.021  0.00  0.00    -0.036 A 
ATOM      8  C   UNL     1       1.268   1.967  -0.036  0.00  0.00    -0.006 A 
ATOM      9  S   UNL     1       1.149   3.691  -0.020  0.00  0.00    -0.088 S 
ATOM     10  C   UNL     1       2.251   0.828  -0.058  0.00  0.00    +0.043 C 
ATOM     11  C   UNL     1       1.430  -0.403   0.384  0.00  0.00    +0.010 C 
ATOM     12  C   UNL     1       0.003  -0.004  -0.038  0.00  0.00    +0.036 C 
ENDBRANCH   2   5
BRANCH   1  15
ATOM     13  C   UNL     1      -3.715   8.474  -0.737  0.00  0.00    +0.017 A 
ATOM     14  C   UNL     1      -2.932   7.337  -0.647  0.00  0.00    +0.026 A 
ATOM     15  C   UNL     1      -1.680   7.402  -0.056  0.00  0.00    +0.055 A 
ATOM     16  C   UNL     1      -1.215   8.616   0.452  0.00  0.00    +0.047 A 
ATOM     17  C   UNL     1      -2.003   9.752   0.353  0.00  0.00    +0.039 A 
ATOM     18  C   UNL     1      -3.252   9.678  -0.238  0.00  0.00    +0.020 A 
ATOM     19 BR   UNL     1      -4.329  11.227  -0.365  0.00  0.00    -0.050 Br
BRANCH  16  20
ATOM     20  N   UNL     1       0.045   8.687   1.055  0.00  0.00    -0.357 N 
ATOM     21  H   UNL     1       0.411   9.644   1.455  0.00  0.00    +0.142 HD
ATOM     22  H   UNL     1       0.671   7.785   1.129  0.00  0.00    +0.142 HD
ENDBRANCH  16  20
ENDBRANCH   1  15
TORSDOF 3
