REMARK  Name = ZINC08849328
REMARK  6 active torsions:
REMARK  status: ('A' for Active; 'I' for Inactive)
REMARK    1  A    between atoms: C_4  and  C_7
REMARK    2  A    between atoms: C_7  and  C_8
REMARK    3  A    between atoms: C_8  and  C_10
REMARK    4  A    between atoms: C_8  and  N_25
REMARK    5  A    between atoms: C_17  and  N_58
REMARK    6  A    between atoms: C_26  and  C_28
REMARK                            x       y       z     vdW  Elec       q    Type
REMARK                         _______ _______ _______ _____ _____    ______ ____
ROOT
ATOM      1  C   UNL     1       3.168   3.500  -0.823  0.00  0.00    +0.164 C 
ENDROOT
BRANCH   1   2
ATOM      2  C   UNL     1       1.819   2.827  -0.813  0.00  0.00    +0.236 C 
ATOM      3  O   UNL     1       0.971   3.158  -1.614  0.00  0.00    -0.274 OA
ATOM      4  N   UNL     1       1.556   1.858   0.087  0.00  0.00    -0.303 N 
ATOM      5  C   UNL     1       0.214   1.266   0.188  0.00  0.00    +0.089 C 
ATOM      6  C   UNL     1       0.349  -0.259   0.131  0.00  0.00    -0.059 C 
ATOM      7  C   UNL     1       2.646  -0.164   0.904  0.00  0.00    -0.059 C 
ATOM      8  C   UNL     1       2.604   1.366   0.993  0.00  0.00    +0.089 C 
ATOM      9  N   UNL     1       1.293  -0.692   1.184  0.00  0.00    +0.385 N 
ATOM     10  H   UNL     1       0.973  -0.326   2.088  0.00  0.00    -0.081 HD
BRANCH   9  11
ATOM     11  C   UNL     1       1.331  -2.168   1.251  0.00  0.00    -0.046 C 
ATOM     12  C   UNL     1       2.424  -2.603   2.241  0.00  0.00    +0.009 C 
ATOM     13  C   UNL     1       2.254  -4.101   2.590  0.00  0.00    +0.164 C 
ATOM     14  S   UNL     1       0.447  -4.364   2.372  0.00  0.00    -0.033 S 
ATOM     15  O   UNL     1       0.239  -5.302   1.325  0.00  0.00    -0.174 OA
ATOM     16  O   UNL     1      -0.143  -4.593   3.644  0.00  0.00    -0.174 OA
ATOM     17  C   UNL     1      -0.036  -2.688   1.779  0.00  0.00    +0.151 C 
ENDBRANCH   9  11
ENDBRANCH   1   2
BRANCH   1  18
ATOM     18  N   UNL     1       3.351   4.208  -2.092  0.00  0.00    -0.297 N 
ATOM     19  C   UNL     1       4.593   4.449  -2.557  0.00  0.00    +0.280 C 
ATOM     20  O   UNL     1       5.562   4.078  -1.922  0.00  0.00    -0.267 OA
ATOM     21  H   UNL     1       2.578   4.504  -2.599  0.00  0.00    +0.150 HD
BRANCH  19  22
ATOM     22  C   UNL     1       4.776   5.157  -3.828  0.00  0.00    +0.189 A 
ATOM     23  C   UNL     1       5.972   5.469  -4.408  0.00  0.00    +0.054 A 
ATOM     24  C   UNL     1       5.677   6.138  -5.606  0.00  0.00    +0.042 A 
ATOM     25  C   UNL     1       4.331   6.213  -5.699  0.00  0.00    +0.196 A 
ATOM     26  O   UNL     1       3.792   5.620  -4.626  0.00  0.00    -0.458 OA
ENDBRANCH  19  22
ENDBRANCH   1  18
BRANCH   1  27
ATOM     27  C   UNL     1       3.249   4.498   0.334  0.00  0.00    +0.067 C 
BRANCH  27  31
ATOM     28  C   UNL     1       7.200   6.107   0.553  0.00  0.00    +0.000 A 
ATOM     29  C   UNL     1       6.241   6.731  -0.224  0.00  0.00    +0.000 A 
ATOM     30  C   UNL     1       4.963   6.210  -0.294  0.00  0.00    +0.004 A 
ATOM     31  C   UNL     1       4.643   5.066   0.411  0.00  0.00    -0.045 A 
ATOM     32  C   UNL     1       5.600   4.444   1.192  0.00  0.00    +0.004 A 
ATOM     33  C   UNL     1       6.879   4.963   1.259  0.00  0.00    +0.000 A 
ENDBRANCH  27  31
ENDBRANCH   1  27
TORSDOF 6
