REMARK  Name = ZINC61882329
REMARK  6 active torsions:
REMARK  status: ('A' for Active; 'I' for Inactive)
REMARK    1  A    between atoms: C_1  and  C_2
REMARK    2  A    between atoms: C_2  and  C_3
REMARK    3  A    between atoms: C_4  and  C_21
REMARK    4  A    between atoms: N_8  and  S_9
REMARK    5  A    between atoms: S_9  and  C_12
REMARK    6  A    between atoms: C_16  and  N_19
REMARK                            x       y       z     vdW  Elec       q    Type
REMARK                         _______ _______ _______ _____ _____    ______ ____
ROOT
ATOM      1  S   UNL     1       4.524  -1.825   4.022  0.00  0.00    +0.102 S 
ATOM      2  O   UNL     1       4.226  -0.817   4.979  0.00  0.00    -0.146 OA
ATOM      3  O   UNL     1       4.033  -3.153   4.136  0.00  0.00    -0.146 OA
ENDROOT
BRANCH   1   9
ATOM      4  C   UNL     1       0.731  -0.503   1.223  0.00  0.00    +0.027 A 
ATOM      5  C   UNL     1       0.045  -0.840   2.315  0.00  0.00    +0.009 A 
ATOM      6  S   UNL     1       1.342  -1.349   3.432  0.00  0.00    -0.053 S 
ATOM      7  C   UNL     1       2.728  -1.070   2.339  0.00  0.00    +0.192 A 
ATOM      8  N   UNL     1       2.090  -0.615   1.205  0.00  0.00    -0.336 N 
ATOM      9  N   UNL     1       4.007  -1.254   2.556  0.00  0.00    -0.103 NA
ATOM     10  C   UNL     1      -1.444  -0.800   2.548  0.00  0.00    +0.053 C 
ATOM     11  H   UNL     1       2.597  -0.376   0.413  0.00  0.00    +0.168 HD
BRANCH   4  13
ATOM     12  C   UNL     1      -0.019   1.526   0.010  0.00  0.00    +0.010 C 
ATOM     13  C   UNL     1       0.002  -0.004   0.002  0.00  0.00    +0.050 C 
ENDBRANCH   4  13
ENDBRANCH   1   9
BRANCH   1  14
ATOM     14  C   UNL     1       6.280  -1.942   3.945  0.00  0.00    +0.130 A 
ATOM     15  C   UNL     1       7.062  -1.146   4.762  0.00  0.00    +0.050 A 
ATOM     16  C   UNL     1       8.442  -1.235   4.705  0.00  0.00    +0.045 A 
ATOM     17  C   UNL     1       9.043  -2.121   3.830  0.00  0.00    +0.044 A 
ATOM     18  C   UNL     1       8.261  -2.921   3.009  0.00  0.00    +0.042 A 
ATOM     19  C   UNL     1       6.875  -2.833   3.072  0.00  0.00    +0.065 A 
ATOM     20 BR   UNL     1       5.805  -3.927   1.961  0.00  0.00    -0.046 Br
ATOM     21 CL   UNL     1       9.419  -0.233   5.732  0.00  0.00    -0.083 Cl
BRANCH  18  22
ATOM     22  N   UNL     1       8.865  -3.818   2.123  0.00  0.00    -0.357 N 
ATOM     23  H   UNL     1       9.832  -3.881   2.082  0.00  0.00    +0.142 HD
ATOM     24  H   UNL     1       8.318  -4.377   1.550  0.00  0.00    +0.142 HD
ENDBRANCH  18  22
ENDBRANCH   1  14
TORSDOF 4
