REMARK  Name = ZINC39604055
REMARK  10 active torsions:
REMARK  status: ('A' for Active; 'I' for Inactive)
REMARK    1  A    between atoms: C_1  and  C_2
REMARK    2  A    between atoms: C_2  and  O_3
REMARK    3  A    between atoms: O_3  and  C_4
REMARK    4  A    between atoms: C_4  and  C_6
REMARK    5  A    between atoms: C_6  and  C_7
REMARK    6  A    between atoms: C_7  and  N_8
REMARK    7  A    between atoms: C_9  and  C_11
REMARK    8  A    between atoms: C_22  and  C_24
REMARK    9  A    between atoms: C_25  and  C_37
REMARK   10  A    between atoms: C_28  and  C_29
REMARK                            x       y       z     vdW  Elec       q    Type
REMARK                         _______ _______ _______ _____ _____    ______ ____
ROOT
ATOM      1  C   UNL     1       2.768  -5.383  -5.451  0.00  0.00    +0.100 C 
ATOM      2  C   UNL     1       4.287  -5.106  -5.409  0.00  0.00    +0.121 C 
ATOM      3  N   UNL     1       4.878  -6.340  -4.841  0.00  0.00    -0.296 N 
ATOM      4  C   UNL     1       4.096  -7.440  -5.456  0.00  0.00    +0.115 C 
ATOM      5  C   UNL     1       2.647  -6.916  -5.485  0.00  0.00    -0.004 C 
ATOM      6  C   UNL     1       1.949  -7.362  -6.766  0.00  0.00    -0.010 C 
ATOM      7  C   UNL     1       1.788  -8.885  -6.750  0.00  0.00    -0.082 C 
ATOM      8  N   UNL     1       1.002  -9.284  -5.577  0.00  0.00    +0.379 N 
ATOM      9  C   UNL     1       1.724  -8.934  -4.348  0.00  0.00    -0.082 C 
ATOM     10  C   UNL     1       1.882  -7.413  -4.262  0.00  0.00    -0.010 C 
ATOM     11  C   UNL     1       5.896  -6.441  -3.963  0.00  0.00    +0.252 C 
ATOM     12  O   UNL     1       6.269  -7.536  -3.589  0.00  0.00    -0.270 OA
ATOM     13  H   UNL     1       0.113  -8.806  -5.591  0.00  0.00    -0.086 HD
ATOM     14  H   UNL     1       0.845 -10.280  -5.601  0.00  0.00    -0.086 HD
ENDROOT
BRANCH  11  15
ATOM     15  C   UNL     1       6.555  -5.225  -3.458  0.00  0.00    +0.106 A 
ATOM     16  C   UNL     1       6.211  -4.515  -2.346  0.00  0.00    +0.147 A 
ATOM     17  O   UNL     1       7.051  -3.483  -2.231  0.00  0.00    -0.359 OA
ATOM     18  N   UNL     1       7.978  -3.508  -3.298  0.00  0.00    -0.077 NA
ATOM     19  C   UNL     1       7.716  -4.545  -4.053  0.00  0.00    +0.130 A 
ATOM     20  C   UNL     1       5.078  -4.840  -1.407  0.00  0.00    +0.090 C 
BRANCH  19  21
ATOM     21  C   UNL     1       8.447  -4.953  -5.277  0.00  0.00    +0.058 A 
ATOM     22  C   UNL     1       8.905  -6.264  -5.416  0.00  0.00    +0.134 A 
ATOM     23  C   UNL     1       9.585  -6.638  -6.560  0.00  0.00    +0.039 A 
ATOM     24  C   UNL     1       9.812  -5.715  -7.565  0.00  0.00    +0.004 A 
ATOM     25  C   UNL     1       9.360  -4.415  -7.433  0.00  0.00    +0.021 A 
ATOM     26  C   UNL     1       8.674  -4.030  -6.298  0.00  0.00    +0.053 A 
ATOM     27 CL   UNL     1       8.102  -2.398  -6.138  0.00  0.00    -0.083 Cl
ATOM     28  F   UNL     1       8.685  -7.166  -4.434  0.00  0.00    -0.205 F 
ENDBRANCH  19  21
ENDBRANCH  11  15
BRANCH   1  30
ATOM     29  N   UNL     1       0.787  -4.527  -4.241  0.00  0.00    -0.314 N 
ATOM     30  C   UNL     1       2.100  -4.832  -4.217  0.00  0.00    +0.218 C 
ATOM     31  O   UNL     1       2.744  -4.662  -3.204  0.00  0.00    -0.275 OA
ATOM     32  H   UNL     1       0.272  -4.663  -5.051  0.00  0.00    +0.149 HD
BRANCH  29  33
ATOM     33  C   UNL     1       0.138  -3.991  -3.042  0.00  0.00    +0.115 C 
BRANCH  33  34
ATOM     34  C   UNL     1      -1.341  -3.733  -3.335  0.00  0.00    +0.139 C 
BRANCH  34  35
ATOM     35  C   UNL     1      -2.009  -3.182  -2.102  0.00  0.00    +0.309 C 
ATOM     36  O   UNL     1      -1.368  -3.012  -1.092  0.00  0.00    -0.251 OA
BRANCH  35  37
ATOM     37  O   UNL     1      -3.317  -2.878  -2.125  0.00  0.00    -0.465 OA
BRANCH  37  39
ATOM     38  C   UNL     1      -5.371  -2.076  -1.138  0.00  0.00    +0.048 C 
ATOM     39  C   UNL     1      -3.884  -2.360  -0.920  0.00  0.00    +0.229 C 
ENDBRANCH  37  39
ENDBRANCH  35  37
ENDBRANCH  34  35
ENDBRANCH  33  34
ENDBRANCH  29  33
ENDBRANCH   1  30
TORSDOF 8
