REMARK  Name = ZINC17208458
REMARK  5 active torsions:
REMARK  status: ('A' for Active; 'I' for Inactive)
REMARK    1  A    between atoms: C_1  and  C_2
REMARK    2  A    between atoms: C_5  and  C_29
REMARK    3  A    between atoms: C_9  and  C_10
REMARK    4  A    between atoms: C_9  and  N_53
REMARK    5  A    between atoms: N_14  and  C_15
REMARK                            x       y       z     vdW  Elec       q    Type
REMARK                         _______ _______ _______ _____ _____    ______ ____
ROOT
ATOM      1  C   UNL     1       2.357   0.066  -0.004  0.00  0.00    +0.097 A 
ATOM      2  N   UNL     1       1.216  -0.660   0.000  0.00  0.00    -0.314 N 
ATOM      3  H   UNL     1       1.251  -1.629  -0.000  0.00  0.00    +0.170 HD
ATOM      4  C   UNL     1       0.002  -0.004   0.005  0.00  0.00    +0.233 A 
ATOM      5  N   UNL     1      -1.130  -0.690   0.009  0.00  0.00    -0.213 NA
ATOM      6  N   UNL     1      -0.016   1.337   0.005  0.00  0.00    -0.179 NA
ATOM      7  C   UNL     1       1.122   2.012   0.001  0.00  0.00    +0.217 A 
ATOM      8  N   UNL     1       2.301   1.374  -0.003  0.00  0.00    -0.204 NA
ATOM      9  N   UNL     1       1.095   3.386   0.001  0.00  0.00    -0.327 N 
ATOM     10  H   UNL     1       0.245   3.854   0.004  0.00  0.00    +0.145 HD
ATOM     11  H   UNL     1       1.925   3.888  -0.002  0.00  0.00    +0.145 HD
ENDROOT
BRANCH   5  12
ATOM     12  C   UNL     1      -1.105  -2.051  -0.102  0.00  0.00    +0.068 A 
ATOM     13  C   UNL     1      -1.057  -2.648  -1.376  0.00  0.00    +0.028 A 
ATOM     14  C   UNL     1      -1.025  -3.998  -1.511  0.00  0.00    +0.010 A 
ATOM     15  C   UNL     1      -1.051  -4.821  -0.370  0.00  0.00    -0.018 A 
ATOM     16  C   UNL     1      -1.024  -6.220  -0.485  0.00  0.00    +0.008 A 
ATOM     17  C   UNL     1      -1.050  -6.991   0.636  0.00  0.00    +0.001 A 
ATOM     18  C   UNL     1      -1.103  -6.414   1.904  0.00  0.00    +0.001 A 
ATOM     19  C   UNL     1      -1.130  -5.062   2.056  0.00  0.00    +0.008 A 
ATOM     20  C   UNL     1      -1.105  -4.232   0.920  0.00  0.00    -0.016 A 
ATOM     21  C   UNL     1      -1.132  -2.835   1.042  0.00  0.00    +0.036 A 
ENDBRANCH   5  12
BRANCH   1  22
ATOM     22  C   UNL     1       3.693  -0.630  -0.009  0.00  0.00    -0.003 C 
BRANCH  22  30
ATOM     23  C   UNL     1       4.969   1.458  -4.276  0.00  0.00    +0.005 C 
ATOM     24  C   UNL     1       5.305   1.334  -2.788  0.00  0.00    -0.031 C 
ATOM     25  C   UNL     1       6.741   0.829  -2.629  0.00  0.00    +0.003 C 
ATOM     26  C   UNL     1       7.049   0.650  -1.140  0.00  0.00    -0.031 C 
ATOM     27  C   UNL     1       6.038  -0.322  -0.528  0.00  0.00    -0.075 C 
ATOM     28  C   UNL     1       4.344   0.342  -2.128  0.00  0.00    -0.075 C 
ATOM     29  C   UNL     1       6.950   2.003  -0.432  0.00  0.00    +0.005 C 
ATOM     30  N   UNL     1       4.678   0.234  -0.692  0.00  0.00    +0.385 N 
ATOM     31  H   UNL     1       4.647   1.170  -0.272  0.00  0.00    -0.081 HD
ENDBRANCH  22  30
ENDBRANCH   1  22
TORSDOF 3
