REMARK  Name = ZINC38610217
REMARK  8 active torsions:
REMARK  status: ('A' for Active; 'I' for Inactive)
REMARK    1  A    between atoms: C_1  and  O_2
REMARK    2  A    between atoms: O_2  and  C_3
REMARK    3  A    between atoms: C_5  and  C_10
REMARK    4  A    between atoms: C_8  and  O_9
REMARK    5  A    between atoms: C_13  and  C_29
REMARK    6  A    between atoms: N_20  and  C_21
REMARK    7  A    between atoms: C_21  and  C_22
REMARK    8  A    between atoms: C_34  and  O_35
REMARK                            x       y       z     vdW  Elec       q    Type
REMARK                         _______ _______ _______ _____ _____    ______ ____
ROOT
ATOM      1  C   UNL     1       2.225  -0.115   4.126  0.00  0.00    +0.142 C 
ATOM      2  C   UNL     1       1.406   0.276   5.326  0.00  0.00    +0.035 A 
ATOM      3  C   UNL     1       0.264   0.918   5.816  0.00  0.00    +0.102 A 
ATOM      4  N   UNL     1       0.279   0.801   7.129  0.00  0.00    -0.173 NA
ATOM      5  N   UNL     1       1.316   0.148   7.516  0.00  0.00    -0.272 N 
ATOM      6  H   UNL     1       1.532  -0.058   8.440  0.00  0.00    +0.189 HD
ATOM      7  C   UNL     1       2.069  -0.213   6.436  0.00  0.00    +0.126 A 
ATOM      8  C   UNL     1       3.284  -0.902   5.987  0.00  0.00    +0.266 C 
ATOM      9  O   UNL     1       4.086  -1.444   6.723  0.00  0.00    -0.268 OA
ATOM     10  N   UNL     1       3.385  -0.851   4.646  0.00  0.00    -0.281 N 
ENDROOT
BRANCH   1  13
ATOM     11  C   UNL     1       0.334  -3.092   2.773  0.00  0.00    +0.162 A 
ATOM     12  C   UNL     1       1.077  -2.278   3.612  0.00  0.00    +0.055 A 
ATOM     13  C   UNL     1       1.417  -0.999   3.212  0.00  0.00    -0.019 A 
ATOM     14  C   UNL     1       1.016  -0.530   1.975  0.00  0.00    +0.009 A 
ATOM     15  C   UNL     1       0.274  -1.337   1.133  0.00  0.00    +0.049 A 
ATOM     16  C   UNL     1      -0.065  -2.622   1.526  0.00  0.00    +0.158 A 
BRANCH  11  18
ATOM     17  C   UNL     1       0.442  -4.767   4.459  0.00  0.00    +0.277 C 
ATOM     18  O   UNL     1      -0.001  -4.351   3.165  0.00  0.00    -0.491 OA
ENDBRANCH  11  18
BRANCH  16  19
ATOM     19  O   UNL     1      -0.790  -3.419   0.696  0.00  0.00    -0.503 OA
ATOM     20  H   UNL     1      -1.747  -3.341   0.812  0.00  0.00    +0.292 HD
ENDBRANCH  16  19
ENDBRANCH   1  13
BRANCH   3  21
ATOM     21  C   UNL     1      -0.772   1.606   5.006  0.00  0.00    +0.044 A 
ATOM     22  C   UNL     1      -0.599   1.762   3.633  0.00  0.00    +0.014 A 
ATOM     23  C   UNL     1      -1.565   2.402   2.885  0.00  0.00    +0.001 A 
ATOM     24  C   UNL     1      -2.708   2.890   3.494  0.00  0.00    +0.004 A 
ATOM     25  C   UNL     1      -2.890   2.742   4.856  0.00  0.00    +0.046 A 
ATOM     26  C   UNL     1      -1.930   2.095   5.618  0.00  0.00    +0.126 A 
BRANCH  26  27
ATOM     27  O   UNL     1      -2.111   1.943   6.956  0.00  0.00    -0.506 OA
ATOM     28  H   UNL     1      -1.761   2.672   7.485  0.00  0.00    +0.292 HD
ENDBRANCH  26  27
ENDBRANCH   3  21
BRANCH  10  29
ATOM     29  C   UNL     1       4.464  -1.430   3.842  0.00  0.00    +0.144 C 
BRANCH  29  30
ATOM     30  C   UNL     1       5.561  -0.412   3.667  0.00  0.00    -0.030 A 
ATOM     31  C   UNL     1       5.532   0.457   2.592  0.00  0.00    +0.006 A 
ATOM     32  C   UNL     1       6.538   1.391   2.431  0.00  0.00    +0.020 A 
ATOM     33  C   UNL     1       7.575   1.456   3.345  0.00  0.00    +0.041 A 
ATOM     34  C   UNL     1       7.603   0.586   4.420  0.00  0.00    +0.020 A 
ATOM     35  C   UNL     1       6.593  -0.343   4.584  0.00  0.00    +0.006 A 
ATOM     36 CL   UNL     1       8.839   2.629   3.143  0.00  0.00    -0.084 Cl
ENDBRANCH  29  30
ENDBRANCH  10  29
TORSDOF 7
