REMARK  Name = ZINC38478860
REMARK  12 active torsions:
REMARK  status: ('A' for Active; 'I' for Inactive)
REMARK    1  A    between atoms: C_1  and  C_2
REMARK    2  A    between atoms: C_4  and  C_27
REMARK    3  A    between atoms: C_5  and  C_26
REMARK    4  A    between atoms: C_6  and  C_8
REMARK    5  A    between atoms: C_8  and  C_10
REMARK    6  A    between atoms: C_10  and  C_12
REMARK    7  A    between atoms: C_10  and  S_13
REMARK    8  A    between atoms: S_13  and  C_14
REMARK    9  A    between atoms: N_18  and  C_19
REMARK   10  A    between atoms: C_22  and  O_25
REMARK   11  A    between atoms: C_27  and  O_29
REMARK   12  A    between atoms: O_29  and  C_30
REMARK                            x       y       z     vdW  Elec       q    Type
REMARK                         _______ _______ _______ _____ _____    ______ ____
ROOT
ATOM      1  C   UNL     1       1.445  -1.793   3.787  0.00  0.00    +0.124 C 
ATOM      2  C   UNL     1       1.516  -0.512   4.620  0.00  0.00    +0.028 C 
ENDROOT
BRANCH   1   3
ATOM      3  C   UNL     1       0.081  -1.909   3.158  0.00  0.00    +0.194 C 
ATOM      4  O   UNL     1      -0.782  -2.557   3.702  0.00  0.00    -0.289 OA
BRANCH   3   9
ATOM      5  C   UNL     1      -0.019   1.526   0.010  0.00  0.00    +0.038 C 
ATOM      6  C   UNL     1       0.002  -0.004   0.002  0.00  0.00    +0.140 C 
ATOM      7  C   UNL     1      -1.410  -0.546   0.041  0.00  0.00    +0.065 C 
ATOM      8  C   UNL     1      -1.496  -1.272   1.173  0.00  0.00    -0.010 C 
ATOM      9  C   UNL     1      -0.203  -1.226   1.873  0.00  0.00    +0.106 C 
ATOM     10  N   UNL     1       0.656  -0.509   1.215  0.00  0.00    -0.272 NA
ATOM     11  C   UNL     1      -2.720  -2.011   1.647  0.00  0.00    +0.046 C 
BRANCH   7  12
ATOM     12  C   UNL     1      -2.470  -0.326  -0.952  0.00  0.00    +0.337 C 
ATOM     13  O   UNL     1      -3.566  -0.826  -0.792  0.00  0.00    -0.245 OA
BRANCH  12  14
ATOM     14  O   UNL     1      -2.227   0.432  -2.041  0.00  0.00    -0.465 OA
ATOM     15  C   UNL     1      -3.304   0.604  -2.965  0.00  0.00    +0.280 C 
ENDBRANCH  12  14
ENDBRANCH   7  12
ENDBRANCH   3   9
ENDBRANCH   1   3
BRANCH   1  16
ATOM     16  S   UNL     1       1.741  -3.227   4.858  0.00  0.00    -0.073 S 
BRANCH  16  17
ATOM     17  C   UNL     1       3.408  -3.024   5.392  0.00  0.00    +0.215 A 
ATOM     18  N   UNL     1       4.217  -2.037   5.071  0.00  0.00    -0.101 NA
ATOM     19  N   UNL     1       5.362  -2.193   5.633  0.00  0.00    -0.022 NA
ATOM     20  N   UNL     1       5.371  -3.269   6.342  0.00  0.00    -0.038 NA
ATOM     21  N   UNL     1       4.097  -3.851   6.218  0.00  0.00    -0.187 N 
BRANCH  21  22
ATOM     22  C   UNL     1       3.637  -5.033   6.818  0.00  0.00    +0.070 A 
ATOM     23  C   UNL     1       2.313  -5.138   7.221  0.00  0.00    +0.031 A 
ATOM     24  C   UNL     1       1.861  -6.301   7.811  0.00  0.00    +0.047 A 
ATOM     25  C   UNL     1       2.730  -7.367   8.000  0.00  0.00    +0.117 A 
ATOM     26  C   UNL     1       4.053  -7.262   7.597  0.00  0.00    +0.047 A 
ATOM     27  C   UNL     1       4.505  -6.101   7.002  0.00  0.00    +0.031 A 
BRANCH  25  28
ATOM     28  O   UNL     1       2.284  -8.512   8.580  0.00  0.00    -0.507 OA
ATOM     29  H   UNL     1       1.938  -9.162   7.953  0.00  0.00    +0.292 HD
ENDBRANCH  25  28
ENDBRANCH  21  22
ENDBRANCH  16  17
ENDBRANCH   1  16
TORSDOF 8
