REMARK  Name = ZINC45511411
REMARK  11 active torsions:
REMARK  status: ('A' for Active; 'I' for Inactive)
REMARK    1  A    between atoms: C_1  and  C_2
REMARK    2  A    between atoms: C_2  and  N_3
REMARK    3  A    between atoms: C_5  and  C_14
REMARK    4  A    between atoms: C_14  and  N_15
REMARK    5  A    between atoms: N_15  and  C_16
REMARK    6  A    between atoms: N_15  and  C_17
REMARK    7  A    between atoms: C_17  and  C_18
REMARK    8  A    between atoms: N_20  and  C_21
REMARK    9  A    between atoms: C_22  and  C_33
REMARK   10  A    between atoms: N_24  and  C_27
REMARK   11  A    between atoms: C_25  and  C_26
REMARK                            x       y       z     vdW  Elec       q    Type
REMARK                         _______ _______ _______ _____ _____    ______ ____
ROOT
ATOM      1  C   UNL     1      -0.094  -0.462  -7.420  0.00  0.00    +0.019 C 
ENDROOT
BRANCH   1   2
ATOM      2  C   UNL     1       0.701  -0.025  -8.623  0.00  0.00    +0.201 C 
ATOM      3  O   UNL     1       1.912   0.020  -8.566  0.00  0.00    -0.278 OA
ATOM      4  N   UNL     1       0.067   0.317  -9.762  0.00  0.00    -0.284 N 
ATOM      5  H   UNL     1      -0.895   0.212  -9.832  0.00  0.00    +0.155 HD
BRANCH   4   6
ATOM      6  C   UNL     1       0.800   0.826 -10.851  0.00  0.00    +0.078 A 
ATOM      7  C   UNL     1       1.980   1.581 -10.771  0.00  0.00    +0.082 A 
ATOM      8  N   UNL     1       2.367   1.871 -11.987  0.00  0.00    -0.170 NA
ATOM      9  N   UNL     1       1.450   1.314 -12.887  0.00  0.00    -0.235 N 
ATOM     10  C   UNL     1       0.494   0.669 -12.164  0.00  0.00    +0.063 A 
ATOM     11  C   UNL     1      -0.690  -0.080 -12.720  0.00  0.00    +0.068 C 
ATOM     12  C   UNL     1       2.683   1.988  -9.501  0.00  0.00    +0.069 C 
BRANCH   9  13
ATOM     13  C   UNL     1       1.509   1.400 -14.285  0.00  0.00    +0.066 A 
ATOM     14  C   UNL     1       2.722   1.244 -14.941  0.00  0.00    +0.028 A 
ATOM     15  C   UNL     1       2.777   1.330 -16.318  0.00  0.00    +0.002 A 
ATOM     16  C   UNL     1       1.625   1.571 -17.044  0.00  0.00    +0.000 A 
ATOM     17  C   UNL     1       0.415   1.728 -16.393  0.00  0.00    +0.002 A 
ATOM     18  C   UNL     1       0.352   1.637 -15.016  0.00  0.00    +0.028 A 
ENDBRANCH   9  13
ENDBRANCH   4   6
ENDBRANCH   1   2
BRANCH   1  19
ATOM     19  N   UNL     1       0.822  -0.778  -6.316  0.00  0.00    +0.386 N 
ATOM     20  C   UNL     1       1.646  -1.938  -6.680  0.00  0.00    -0.095 C 
ATOM     21  H   UNL     1       1.419   0.016  -6.137  0.00  0.00    -0.081 HD
BRANCH  19  22
ATOM     22  C   UNL     1       0.045  -1.088  -5.109  0.00  0.00    -0.032 C 
BRANCH  22  25
ATOM     23  N   UNL     1      -2.242   1.065  -3.000  0.00  0.00    -0.324 N 
ATOM     24  C   UNL     1      -1.587  -0.178  -3.441  0.00  0.00    +0.147 C 
ATOM     25  C   UNL     1      -0.695   0.167  -4.641  0.00  0.00    +0.174 C 
ATOM     26  O   UNL     1       0.250   1.163  -4.242  0.00  0.00    -0.487 OA
ATOM     27  C   UNL     1      -0.222   2.258  -3.590  0.00  0.00    +0.142 A 
ATOM     28  C   UNL     1      -1.465   2.234  -2.966  0.00  0.00    +0.072 A 
ATOM     29  C   UNL     1      -1.933   3.360  -2.307  0.00  0.00    +0.027 A 
ATOM     30  C   UNL     1      -1.165   4.510  -2.277  0.00  0.00    +0.002 A 
ATOM     31  C   UNL     1       0.066   4.537  -2.904  0.00  0.00    +0.004 A 
ATOM     32  C   UNL     1       0.541   3.415  -3.551  0.00  0.00    +0.047 A 
BRANCH  23  34
ATOM     33  C   UNL     1      -4.514   1.373  -3.851  0.00  0.00    +0.024 C 
ATOM     34  C   UNL     1      -3.656   1.083  -2.618  0.00  0.00    +0.102 C 
ENDBRANCH  23  34
ENDBRANCH  22  25
ENDBRANCH  19  22
ENDBRANCH   1  19
TORSDOF 7
