REMARK  Name = ZINC39527999
REMARK  7 active torsions:
REMARK  status: ('A' for Active; 'I' for Inactive)
REMARK    1  A    between atoms: C_1  and  C_2
REMARK    2  A    between atoms: C_2  and  C_3
REMARK    3  A    between atoms: C_2  and  S_4
REMARK    4  A    between atoms: S_4  and  N_7
REMARK    5  A    between atoms: C_8  and  S_21
REMARK    6  A    between atoms: S_21  and  O_24
REMARK    7  A    between atoms: O_24  and  C_25
REMARK                            x       y       z     vdW  Elec       q    Type
REMARK                         _______ _______ _______ _____ _____    ______ ____
ROOT
ATOM      1  N   UNL     1       2.766  -0.379   1.259  0.00  0.00    -0.147 NA
ATOM      2  C   UNL     1       3.313   0.240   0.044  0.00  0.00    +0.261 C 
ATOM      3  C   UNL     1       4.840   0.288   0.161  0.00  0.00    +0.047 C 
ATOM      4  C   UNL     1       5.228   1.001   1.458  0.00  0.00    +0.005 C 
ATOM      5  C   UNL     1       4.676   0.222   2.655  0.00  0.00    +0.024 C 
ATOM      6  C   UNL     1       3.144   0.175   2.565  0.00  0.00    +0.048 C 
ATOM      7  C   UNL     1       2.574   1.587   2.704  0.00  0.00    +0.024 C 
ATOM      8  C   UNL     1       1.048   1.533   2.602  0.00  0.00    +0.005 C 
ATOM      9  C   UNL     1       0.494   0.644   3.717  0.00  0.00    +0.037 C 
ATOM     10  C   UNL     1       1.064  -0.768   3.575  0.00  0.00    +0.168 C 
ATOM     11  C   UNL     1       2.590  -0.716   3.677  0.00  0.00    +0.061 C 
ATOM     12  F   UNL     1       0.556  -1.581   4.595  0.00  0.00    -0.245 F 
ENDROOT
BRANCH   1  13
ATOM     13  S   UNL     1       1.736  -1.672   1.157  0.00  0.00    +0.036 S 
ATOM     14  O   UNL     1       1.587  -2.123   2.496  0.00  0.00    -0.158 OA
ATOM     15  O   UNL     1       2.311  -2.516   0.169  0.00  0.00    -0.158 OA
BRANCH  13  17
ATOM     16  C   UNL     1       0.462   0.055  -0.539  0.00  0.00    +0.033 C 
ATOM     17  C   UNL     1       0.173  -0.977   0.553  0.00  0.00    +0.142 C 
ATOM     18  C   UNL     1      -0.695  -2.098  -0.022  0.00  0.00    +0.033 C 
ENDBRANCH  13  17
ENDBRANCH   1  13
BRANCH   2  19
ATOM     19  S   UNL     1       2.841  -0.743  -1.405  0.00  0.00    +0.139 S 
ATOM     20  O   UNL     1       1.884  -1.727  -1.038  0.00  0.00    -0.135 OA
ATOM     21  O   UNL     1       2.613   0.108  -2.521  0.00  0.00    -0.135 OA
BRANCH  19  22
ATOM     22  O   UNL     1       4.091  -1.532  -1.767  0.00  0.00    -0.345 OA
BRANCH  22  23
ATOM     23  C   UNL     1       4.111  -1.978  -3.051  0.00  0.00    +0.156 A 
ATOM     24  C   UNL     1       3.480  -3.168  -3.383  0.00  0.00    +0.048 A 
ATOM     25  C   UNL     1       3.501  -3.619  -4.689  0.00  0.00    +0.004 A 
ATOM     26  C   UNL     1       4.151  -2.885  -5.664  0.00  0.00    +0.000 A 
ATOM     27  C   UNL     1       4.780  -1.698  -5.336  0.00  0.00    +0.004 A 
ATOM     28  C   UNL     1       4.757  -1.240  -4.033  0.00  0.00    +0.048 A 
ENDBRANCH  22  23
ENDBRANCH  19  22
ENDBRANCH   2  19
TORSDOF 5
