REMARK  Name = ZINC00826182
REMARK  7 active torsions:
REMARK  status: ('A' for Active; 'I' for Inactive)
REMARK    1  A    between atoms: C_1  and  N_2
REMARK    2  A    between atoms: N_2  and  C_3
REMARK    3  A    between atoms: N_2  and  C_4
REMARK    4  A    between atoms: C_7  and  N_10
REMARK    5  A    between atoms: N_10  and  S_11
REMARK    6  A    between atoms: S_11  and  C_14
REMARK    7  A    between atoms: C_17  and  N_20
REMARK                            x       y       z     vdW  Elec       q    Type
REMARK                         _______ _______ _______ _____ _____    ______ ____
ROOT
ATOM      1  C   UNL     1       1.118   3.555   0.159  0.00  0.00    +0.109 A 
ATOM      2  C   UNL     1       0.895   2.190   0.182  0.00  0.00    +0.030 A 
ATOM      3  C   UNL     1      -0.392   1.701   0.284  0.00  0.00    +0.026 A 
ATOM      4  C   UNL     1      -1.464   2.580   0.359  0.00  0.00    +0.045 A 
ATOM      5  C   UNL     1      -1.237   3.950   0.340  0.00  0.00    +0.026 A 
ATOM      6  C   UNL     1       0.053   4.433   0.238  0.00  0.00    +0.030 A 
ENDROOT
BRANCH   4   7
ATOM      7  N   UNL     1      -2.772   2.086   0.457  0.00  0.00    -0.202 N 
ATOM      8  C   UNL     1      -3.092   0.780   0.481  0.00  0.00    +0.258 C 
ATOM      9  O   UNL     1      -2.306  -0.144   0.421  0.00  0.00    -0.269 OA
ATOM     10  C   UNL     1      -4.561   0.657   0.594  0.00  0.00    +0.050 A 
ATOM     11  C   UNL     1      -5.441  -0.411   0.663  0.00  0.00    +0.014 A 
ATOM     12  C   UNL     1      -6.803  -0.174   0.760  0.00  0.00    +0.001 A 
ATOM     13  C   UNL     1      -7.289   1.119   0.790  0.00  0.00    +0.001 A 
ATOM     14  C   UNL     1      -6.421   2.198   0.722  0.00  0.00    +0.014 A 
ATOM     15  C   UNL     1      -5.057   1.977   0.624  0.00  0.00    +0.050 A 
ATOM     16  C   UNL     1      -3.872   2.856   0.534  0.00  0.00    +0.258 C 
ATOM     17  O   UNL     1      -3.890   4.071   0.529  0.00  0.00    -0.269 OA
ENDBRANCH   4   7
BRANCH   1  18
ATOM     18  S   UNL     1       2.762   4.176   0.028  0.00  0.00    +0.072 S 
ATOM     19  O   UNL     1       2.720   5.529   0.460  0.00  0.00    -0.150 OA
ATOM     20  O   UNL     1       3.610   3.209   0.632  0.00  0.00    -0.150 OA
BRANCH  18  21
ATOM     21  N   UNL     1       3.148   4.204  -1.582  0.00  0.00    -0.216 N 
ATOM     22  H   UNL     1       3.869   3.649  -1.917  0.00  0.00    +0.174 HD
BRANCH  21  26
ATOM     23  C   UNL     1       1.018   6.660  -4.193  0.00  0.00    +0.029 A 
ATOM     24  C   UNL     1       1.938   7.215  -3.313  0.00  0.00    +0.025 A 
ATOM     25  C   UNL     1       2.644   6.401  -2.448  0.00  0.00    +0.026 A 
ATOM     26  C   UNL     1       2.433   5.029  -2.459  0.00  0.00    +0.048 A 
ATOM     27  C   UNL     1       1.517   4.474  -3.343  0.00  0.00    +0.026 A 
ATOM     28  C   UNL     1       0.808   5.288  -4.204  0.00  0.00    +0.025 A 
BRANCH  23  30
ATOM     29  C   UNL     1       0.525   8.933  -5.058  0.00  0.00    +0.129 C 
ATOM     30  N   UNL     1       0.303   7.485  -5.069  0.00  0.00    -0.336 N 
ATOM     31  C   UNL     1      -0.668   6.900  -5.997  0.00  0.00    +0.129 C 
ENDBRANCH  23  30
ENDBRANCH  21  26
ENDBRANCH  18  21
ENDBRANCH   1  18
TORSDOF 5
