REMARK  Name = ZINC56011071
REMARK  6 active torsions:
REMARK  status: ('A' for Active; 'I' for Inactive)
REMARK    1  A    between atoms: C_1  and  C_2
REMARK    2  A    between atoms: C_3  and  N_12
REMARK    3  A    between atoms: C_5  and  C_9
REMARK    4  A    between atoms: C_13  and  C_15
REMARK    5  A    between atoms: N_23  and  C_24
REMARK    6  A    between atoms: N_23  and  C_25
REMARK                            x       y       z     vdW  Elec       q    Type
REMARK                         _______ _______ _______ _____ _____    ______ ____
ROOT
ATOM      1  N   UNL     1      -0.010   0.018  -2.412  0.00  0.00    -0.281 N 
ATOM      2  C   UNL     1       0.095  -0.642  -3.583  0.00  0.00    +0.255 C 
ATOM      3  O   UNL     1       0.112  -1.860  -3.596  0.00  0.00    -0.269 OA
ATOM      4  H   UNL     1      -0.105   0.983  -2.407  0.00  0.00    +0.155 HD
ENDROOT
BRANCH   2   5
ATOM      5  C   UNL     1       0.185   0.082  -4.799  0.00  0.00    +0.077 A 
ATOM      6  C   UNL     1       0.292  -0.403  -6.089  0.00  0.00    +0.038 A 
ATOM      7  C   UNL     1       0.367   0.488  -7.136  0.00  0.00    +0.049 A 
ATOM      8  C   UNL     1       0.331   1.863  -6.835  0.00  0.00    +0.118 A 
ATOM      9  S   UNL     1       0.182   1.847  -5.051  0.00  0.00    -0.063 S 
ATOM     10  N   UNL     1       0.404   2.718  -7.847  0.00  0.00    -0.218 NA
ATOM     11  C   UNL     1       0.508   2.317  -9.099  0.00  0.00    +0.162 A 
ATOM     12  S   UNL     1       0.509   0.541  -8.921  0.00  0.00    -0.052 S 
ATOM     13  N   UNL     1       0.593   3.075 -10.249  0.00  0.00    -0.316 N 
ATOM     14  C   UNL     1       0.573   4.538 -10.166  0.00  0.00    +0.131 C 
ATOM     15  C   UNL     1       0.703   2.417 -11.553  0.00  0.00    +0.131 C 
ENDBRANCH   2   5
BRANCH   1  18
ATOM     16  C   UNL     1      -1.264   1.189  -0.147  0.00  0.00    +0.048 C 
ATOM     17  C   UNL     1      -0.585  -0.154  -0.073  0.00  0.00    +0.006 A 
ATOM     18  C   UNL     1       0.017  -0.689  -1.206  0.00  0.00    +0.040 A 
ATOM     19  C   UNL     1       0.643  -1.924  -1.141  0.00  0.00    +0.036 A 
ATOM     20  C   UNL     1       0.668  -2.627   0.064  0.00  0.00    +0.041 A 
ATOM     21  C   UNL     1       0.062  -2.082   1.197  0.00  0.00    +0.051 A 
ATOM     22  C   UNL     1      -0.556  -0.848   1.124  0.00  0.00    +0.129 A 
ATOM     23  F   UNL     1      -1.138  -0.319   2.223  0.00  0.00    -0.205 F 
BRANCH  20  24
ATOM     24  C   UNL     1       1.333  -3.945   0.140  0.00  0.00    +0.242 C 
ATOM     25  O   UNL     1       1.861  -4.418  -0.848  0.00  0.00    -0.270 OA
ATOM     26  N   UNL     1       1.356  -4.622   1.305  0.00  0.00    -0.325 N 
ATOM     27  H   UNL     1       0.936  -4.245   2.094  0.00  0.00    +0.145 HD
ATOM     28  H   UNL     1       1.793  -5.487   1.355  0.00  0.00    +0.145 HD
ENDBRANCH  20  24
ENDBRANCH   1  18
TORSDOF 3
