REMARK  Name = ZINC39531454
REMARK  9 active torsions:
REMARK  status: ('A' for Active; 'I' for Inactive)
REMARK    1  A    between atoms: C_4  and  C_7
REMARK    2  A    between atoms: C_7  and  C_8
REMARK    3  A    between atoms: C_11  and  C_14
REMARK    4  A    between atoms: C_14  and  C_16
REMARK    5  A    between atoms: C_14  and  N_19
REMARK    6  A    between atoms: C_16  and  N_17
REMARK    7  A    between atoms: C_23  and  S_26
REMARK    8  A    between atoms: S_26  and  O_29
REMARK    9  A    between atoms: O_29  and  C_30
REMARK                            x       y       z     vdW  Elec       q    Type
REMARK                         _______ _______ _______ _____ _____    ______ ____
ROOT
ATOM      1  C   UNL     1       5.457  -1.692   5.383  0.00  0.00    +0.102 C 
ENDROOT
BRANCH   1   2
ATOM      2  N   UNL     1       4.428  -2.329   6.215  0.00  0.00    -0.296 NA
ATOM      3  C   UNL     1       3.145  -1.623   6.098  0.00  0.00    +0.066 C 
ATOM      4  C   UNL     1       2.087  -2.350   6.931  0.00  0.00    -0.064 C 
ATOM      5  N   UNL     1       2.515  -2.393   8.336  0.00  0.00    +0.398 N 
ATOM      6  C   UNL     1       3.786  -3.122   8.440  0.00  0.00    +0.130 C 
ATOM      7  C   UNL     1       4.857  -2.401   7.619  0.00  0.00    +0.095 C 
ATOM      8  H   UNL     1       2.639  -1.452   8.678  0.00  0.00    -0.083 HD
ATOM      9  H   UNL     1       1.812  -2.861   8.887  0.00  0.00    -0.083 HD
BRANCH   6  10
ATOM     10  S   UNL     1       4.301  -3.193  10.178  0.00  0.00    +0.109 S 
ATOM     11  O   UNL     1       5.430  -4.044  10.320  0.00  0.00    -0.138 OA
ATOM     12  O   UNL     1       4.302  -1.888  10.742  0.00  0.00    -0.138 OA
BRANCH  10  13
ATOM     13  O   UNL     1       3.172  -3.923  10.892  0.00  0.00    -0.347 OA
BRANCH  13  14
ATOM     14  C   UNL     1       3.152  -5.263  10.667  0.00  0.00    +0.156 A 
ATOM     15  C   UNL     1       2.435  -5.778   9.597  0.00  0.00    +0.048 A 
ATOM     16  C   UNL     1       2.416  -7.140   9.371  0.00  0.00    +0.004 A 
ATOM     17  C   UNL     1       3.111  -7.991  10.211  0.00  0.00    +0.000 A 
ATOM     18  C   UNL     1       3.827  -7.481  11.278  0.00  0.00    +0.004 A 
ATOM     19  C   UNL     1       3.853  -6.118  11.505  0.00  0.00    +0.048 A 
ENDBRANCH  13  14
ENDBRANCH  10  13
ENDBRANCH   6  10
ENDBRANCH   1   2
BRANCH   1  23
ATOM     20  C   UNL     1       4.222  -1.753   1.294  0.00  0.00    -0.043 A 
ATOM     21  C   UNL     1       4.851  -0.636   1.809  0.00  0.00    +0.004 A 
ATOM     22  C   UNL     1       5.251  -0.616   3.132  0.00  0.00    +0.005 A 
ATOM     23  C   UNL     1       5.021  -1.714   3.941  0.00  0.00    -0.029 A 
ATOM     24  C   UNL     1       4.390  -2.831   3.426  0.00  0.00    +0.005 A 
ATOM     25  C   UNL     1       3.987  -2.849   2.104  0.00  0.00    +0.004 A 
BRANCH  20  26
ATOM     26  C   UNL     1       3.786  -1.775  -0.148  0.00  0.00    +0.070 C 
BRANCH  26  30
ATOM     27  C   UNL     1      -0.193  -0.251  -0.459  0.00  0.00    +0.000 A 
ATOM     28  C   UNL     1       0.886   0.608  -0.556  0.00  0.00    +0.000 A 
ATOM     29  C   UNL     1       2.173   0.115  -0.455  0.00  0.00    +0.004 A 
ATOM     30  C   UNL     1       2.382  -1.237  -0.257  0.00  0.00    -0.043 A 
ATOM     31  C   UNL     1       1.304  -2.096  -0.160  0.00  0.00    +0.004 A 
ATOM     32  C   UNL     1       0.016  -1.603  -0.262  0.00  0.00    +0.000 A 
ENDBRANCH  26  30
ENDBRANCH  20  26
ENDBRANCH   1  23
BRANCH   1  33
ATOM     33  C   UNL     1       6.775  -2.456   5.528  0.00  0.00    +0.122 C 
BRANCH  33  34
ATOM     34  N   UNL     1       7.825  -1.772   4.761  0.00  0.00    -0.231 NA
ATOM     35 CL   UNL     1       9.279  -2.672   4.775  0.00  0.00    -0.024 Cl
ATOM     36  H   UNL     1       7.975  -0.837   5.109  0.00  0.00    +0.141 HD
ENDBRANCH  33  34
ENDBRANCH   1  33
TORSDOF 9
