REMARK  Name = ZINC39976911
REMARK  8 active torsions:
REMARK  status: ('A' for Active; 'I' for Inactive)
REMARK    1  A    between atoms: C_1  and  C_2
REMARK    2  A    between atoms: N_4  and  C_5
REMARK    3  A    between atoms: C_8  and  S_11
REMARK    4  A    between atoms: S_11  and  N_14
REMARK    5  A    between atoms: C_16  and  N_26
REMARK    6  A    between atoms: N_26  and  C_27
REMARK    7  A    between atoms: C_32  and  O_33
REMARK    8  A    between atoms: O_33  and  C_34
REMARK                            x       y       z     vdW  Elec       q    Type
REMARK                         _______ _______ _______ _____ _____    ______ ____
ROOT
ATOM      1  N   UNL     1      -1.752  -7.162  -1.193  0.00  0.00    -0.110 NA
ATOM      2  C   UNL     1      -2.215  -8.371  -1.070  0.00  0.00    +0.192 C 
ATOM      3  C   UNL     1      -3.705  -8.621  -1.025  0.00  0.00    +0.237 C 
ATOM      4  N   UNL     1      -4.164 -10.012  -0.884  0.00  0.00    -0.359 N 
ATOM      5  C   UNL     1      -3.269 -10.958  -0.806  0.00  0.00    +0.063 A 
ATOM      6  C   UNL     1      -3.676 -12.364  -0.664  0.00  0.00    +0.027 A 
ATOM      7  C   UNL     1      -2.720 -13.315  -0.586  0.00  0.00    +0.002 A 
ATOM      8  C   UNL     1      -1.353 -12.995  -0.636  0.00  0.00    +0.002 A 
ATOM      9  C   UNL     1      -0.904 -11.728  -0.765  0.00  0.00    +0.030 A 
ATOM     10  C   UNL     1      -1.819 -10.649  -0.856  0.00  0.00    +0.089 A 
ATOM     11  N   UNL     1      -1.376  -9.416  -0.986  0.00  0.00    -0.226 NA
ATOM     12  H   UNL     1      -5.111 -10.221  -0.851  0.00  0.00    +0.162 HD
ENDROOT
BRANCH   1  13
ATOM     13  S   UNL     1      -0.118  -6.902  -1.248  0.00  0.00    +0.100 S 
ATOM     14  O   UNL     1       0.348  -7.498  -2.451  0.00  0.00    -0.146 OA
ATOM     15  O   UNL     1       0.394  -7.262   0.028  0.00  0.00    -0.146 OA
BRANCH  13  19
ATOM     16  C   UNL     1       0.515  -2.439  -1.684  0.00  0.00    +0.033 A 
ATOM     17  C   UNL     1       0.440  -3.011  -0.421  0.00  0.00    +0.025 A 
ATOM     18  C   UNL     1       0.247  -4.372  -0.291  0.00  0.00    +0.031 A 
ATOM     19  C   UNL     1       0.129  -5.165  -1.418  0.00  0.00    +0.113 A 
ATOM     20  C   UNL     1       0.203  -4.599  -2.677  0.00  0.00    +0.031 A 
ATOM     21  C   UNL     1       0.390  -3.237  -2.814  0.00  0.00    +0.025 A 
BRANCH  16  25
ATOM     22  C   UNL     1       0.239   1.109  -2.911  0.00  0.00    +0.109 C 
ATOM     23  C   UNL     1       0.117  -0.390  -2.827  0.00  0.00    +0.214 C 
ATOM     24  O   UNL     1      -0.517  -0.995  -3.666  0.00  0.00    -0.276 OA
ATOM     25  N   UNL     1       0.710  -1.060  -1.819  0.00  0.00    -0.286 N 
ATOM     26  H   UNL     1       1.273  -0.586  -1.187  0.00  0.00    +0.155 HD
ENDBRANCH  16  25
ENDBRANCH  13  19
ENDBRANCH   1  13
BRANCH   3  27
ATOM     27  N   UNL     1      -4.286  -8.082  -2.257  0.00  0.00    -0.315 N 
ATOM     28  H   UNL     1      -3.848  -8.237  -3.108  0.00  0.00    +0.149 HD
BRANCH  27  29
ATOM     29  C   UNL     1      -5.473  -7.342  -2.205  0.00  0.00    +0.071 A 
ATOM     30  C   UNL     1      -6.167  -7.223  -1.009  0.00  0.00    +0.026 A 
ATOM     31  C   UNL     1      -7.339  -6.492  -0.961  0.00  0.00    +0.002 A 
ATOM     32  C   UNL     1      -7.823  -5.878  -2.101  0.00  0.00    +0.004 A 
ATOM     33  C   UNL     1      -7.137  -5.993  -3.296  0.00  0.00    +0.048 A 
ATOM     34  C   UNL     1      -5.959  -6.720  -3.353  0.00  0.00    +0.148 A 
BRANCH  34  35
ATOM     35  O   UNL     1      -5.281  -6.829  -4.527  0.00  0.00    -0.432 OA
BRANCH  35  36
ATOM     36  C   UNL     1      -5.838  -6.164  -5.662  0.00  0.00    +0.541 C 
ATOM     37  F   UNL     1      -7.117  -6.671  -5.918  0.00  0.00    -0.166 F 
ATOM     38  F   UNL     1      -5.923  -4.792  -5.404  0.00  0.00    -0.166 F 
ENDBRANCH  35  36
ENDBRANCH  34  35
ENDBRANCH  27  29
ENDBRANCH   3  27
TORSDOF 7
