REMARK  Name = ZINC38659265
REMARK  10 active torsions:
REMARK  status: ('A' for Active; 'I' for Inactive)
REMARK    1  A    between atoms: C_1  and  C_2
REMARK    2  A    between atoms: C_5  and  C_7
REMARK    3  A    between atoms: C_12  and  O_21
REMARK    4  A    between atoms: C_16  and  N_20
REMARK    5  A    between atoms: C_17  and  C_18
REMARK    6  A    between atoms: O_21  and  C_22
REMARK    7  A    between atoms: C_22  and  C_24
REMARK    8  A    between atoms: C_24  and  C_26
REMARK    9  A    between atoms: C_24  and  O_27
REMARK   10  A    between atoms: O_27  and  C_28
REMARK                            x       y       z     vdW  Elec       q    Type
REMARK                         _______ _______ _______ _____ _____    ______ ____
ROOT
ATOM      1  C   UNL     1       1.885  -3.112   0.144  0.00  0.00    +0.134 C 
ATOM      2  C   UNL     1       2.689  -3.093  -1.129  0.00  0.00    +0.011 A 
ATOM      3  C   UNL     1       2.125  -3.570  -2.298  0.00  0.00    +0.012 A 
ATOM      4  C   UNL     1       2.848  -3.560  -3.475  0.00  0.00    +0.047 A 
ATOM      5  C   UNL     1       4.146  -3.070  -3.487  0.00  0.00    +0.135 A 
ATOM      6  C   UNL     1       4.714  -2.591  -2.317  0.00  0.00    +0.093 A 
ATOM      7  C   UNL     1       3.986  -2.602  -1.135  0.00  0.00    +0.138 A 
ATOM      8  O   UNL     1       4.556  -2.130   0.001  0.00  0.00    -0.441 OA
ATOM      9  C   UNL     1       4.051  -2.473   1.197  0.00  0.00    +0.199 C 
ATOM     10  C   UNL     1       2.791  -2.944   1.331  0.00  0.00    +0.101 C 
ENDROOT
BRANCH   1  15
ATOM     11  C   UNL     1      -0.068   1.534  -0.054  0.00  0.00    +0.086 C 
ATOM     12  C   UNL     1       0.033   0.033   0.032  0.00  0.00    +0.102 A 
ATOM     13  C   UNL     1      -1.002  -0.821   0.127  0.00  0.00    +0.044 A 
ATOM     14  C   UNL     1      -0.454  -2.123   0.182  0.00  0.00    +0.046 A 
ATOM     15  C   UNL     1       0.882  -1.987   0.118  0.00  0.00    +0.118 A 
ATOM     16  O   UNL     1       1.171  -0.679   0.021  0.00  0.00    -0.464 OA
ENDBRANCH   1  15
BRANCH   9  17
ATOM     17  N   UNL     1       4.836  -2.341   2.315  0.00  0.00    -0.328 N 
ATOM     18  H   UNL     1       5.742  -2.004   2.234  0.00  0.00    +0.145 HD
ATOM     19  H   UNL     1       4.485  -2.584   3.186  0.00  0.00    +0.145 HD
ENDBRANCH   9  17
BRANCH  10  20
ATOM     20  C   UNL     1       2.312  -3.290   2.635  0.00  0.00    +0.101 C 
ATOM     21  N   UNL     1       1.931  -3.564   3.669  0.00  0.00    -0.191 NA
ENDBRANCH  10  20
BRANCH   5  22
ATOM     22  O   UNL     1       4.859  -3.060  -4.644  0.00  0.00    -0.423 OA
BRANCH  22  23
ATOM     23  C   UNL     1       5.925  -3.872  -4.735  0.00  0.00    +0.353 C 
ATOM     24  O   UNL     1       6.167  -4.652  -3.845  0.00  0.00    -0.246 OA
BRANCH  23  25
ATOM     25  C   UNL     1       6.818  -3.809  -5.947  0.00  0.00    +0.279 C 
ATOM     26  C   UNL     1       7.509  -2.445  -6.001  0.00  0.00    +0.064 C 
BRANCH  25  27
ATOM     27  O   UNL     1       7.805  -4.840  -5.864  0.00  0.00    -0.478 OA
BRANCH  27  28
ATOM     28  C   UNL     1       8.373  -5.244  -7.031  0.00  0.00    +0.122 A 
ATOM     29  C   UNL     1       9.388  -6.190  -7.018  0.00  0.00    +0.048 A 
ATOM     30  C   UNL     1       9.965  -6.600  -8.204  0.00  0.00    +0.042 A 
ATOM     31  C   UNL     1       9.531  -6.067  -9.406  0.00  0.00    +0.124 A 
ATOM     32  C   UNL     1       8.519  -5.122  -9.421  0.00  0.00    +0.042 A 
ATOM     33  C   UNL     1       7.936  -4.715  -8.237  0.00  0.00    +0.048 A 
ATOM     34  F   UNL     1      10.097  -6.468 -10.566  0.00  0.00    -0.205 F 
ENDBRANCH  27  28
ENDBRANCH  25  27
ENDBRANCH  23  25
ENDBRANCH  22  23
ENDBRANCH   5  22
TORSDOF 8
