REMARK  Name = ZINC61794411
REMARK  8 active torsions:
REMARK  status: ('A' for Active; 'I' for Inactive)
REMARK    1  A    between atoms: C_1  and  C_2
REMARK    2  A    between atoms: C_2  and  N_3
REMARK    3  A    between atoms: C_4  and  C_6
REMARK    4  A    between atoms: N_14  and  C_15
REMARK    5  A    between atoms: C_15  and  C_16
REMARK    6  A    between atoms: C_16  and  C_17
REMARK    7  A    between atoms: C_20  and  S_23
REMARK    8  A    between atoms: S_23  and  N_26
REMARK                            x       y       z     vdW  Elec       q    Type
REMARK                         _______ _______ _______ _____ _____    ______ ____
ROOT
ATOM      1  C   UNL     1      -3.016  -2.360   0.015  0.00  0.00    +0.092 C 
ATOM      2  C   UNL     1      -2.995  -3.890   0.010  0.00  0.00    +0.016 C 
ATOM      3  C   UNL     1      -4.431  -4.421  -0.012  0.00  0.00    +0.020 C 
ATOM      4  C   UNL     1      -5.163  -3.951   1.249  0.00  0.00    +0.109 C 
ATOM      5  N   UNL     1      -5.062  -2.488   1.338  0.00  0.00    -0.285 N 
ATOM      6  C   UNL     1      -3.732  -1.867   1.276  0.00  0.00    +0.122 C 
ATOM      7  C   UNL     1      -6.169  -1.730   1.472  0.00  0.00    +0.302 C 
ATOM      8  O   UNL     1      -6.067  -0.530   1.636  0.00  0.00    -0.253 OA
ATOM      9  N   UNL     1      -7.388  -2.303   1.425  0.00  0.00    -0.299 N 
ATOM     10  H   UNL     1      -7.468  -3.268   1.368  0.00  0.00    +0.150 HD
ENDROOT
BRANCH   1  12
ATOM     11  N   UNL     1      -1.374  -0.510   0.009  0.00  0.00    -0.315 N 
ATOM     12  C   UNL     1      -1.602  -1.838   0.003  0.00  0.00    +0.218 C 
ATOM     13  O   UNL     1      -0.669  -2.613  -0.011  0.00  0.00    -0.275 OA
ATOM     14  H   UNL     1      -2.119   0.111   0.020  0.00  0.00    +0.149 HD
BRANCH  11  16
ATOM     15  C   UNL     1      -0.020   1.527   0.007  0.00  0.00    +0.024 C 
ATOM     16  C   UNL     1       0.001  -0.003  -0.002  0.00  0.00    +0.101 C 
ENDBRANCH  11  16
ENDBRANCH   1  12
BRANCH   9  17
ATOM     17  C   UNL     1      -8.591  -1.468   1.460  0.00  0.00    +0.110 C 
BRANCH  17  18
ATOM     18  C   UNL     1      -9.832  -2.360   1.394  0.00  0.00    +0.054 C 
BRANCH  18  19
ATOM     19  C   UNL     1     -11.070  -1.502   1.429  0.00  0.00    -0.046 A 
ATOM     20  C   UNL     1     -11.649  -1.173   2.641  0.00  0.00    +0.005 A 
ATOM     21  C   UNL     1     -12.784  -0.385   2.674  0.00  0.00    +0.029 A 
ATOM     22  C   UNL     1     -13.341   0.074   1.494  0.00  0.00    +0.105 A 
ATOM     23  C   UNL     1     -12.762  -0.255   0.283  0.00  0.00    +0.029 A 
ATOM     24  C   UNL     1     -11.624  -1.039   0.250  0.00  0.00    +0.005 A 
BRANCH  22  25
ATOM     25  S   UNL     1     -14.789   1.077   1.536  0.00  0.00    +0.056 S 
ATOM     26  O   UNL     1     -15.425   0.924   0.275  0.00  0.00    -0.153 OA
ATOM     27  O   UNL     1     -15.448   0.788   2.761  0.00  0.00    -0.153 OA
BRANCH  25  28
ATOM     28  N   UNL     1     -14.290   2.653   1.627  0.00  0.00    -0.204 NA
ATOM     29  H   UNL     1     -14.834   3.357   1.240  0.00  0.00    +0.144 HD
ATOM     30  H   UNL     1     -13.455   2.873   2.067  0.00  0.00    +0.144 HD
ENDBRANCH  25  28
ENDBRANCH  22  25
ENDBRANCH  18  19
ENDBRANCH  17  18
ENDBRANCH   9  17
TORSDOF 7
