REMARK  Name = ZINC16193647
REMARK  7 active torsions:
REMARK  status: ('A' for Active; 'I' for Inactive)
REMARK    1  A    between atoms: C_1  and  C_2
REMARK    2  A    between atoms: C_2  and  C_3
REMARK    3  A    between atoms: C_6  and  N_9
REMARK    4  A    between atoms: C_13  and  C_14
REMARK    5  A    between atoms: C_17  and  O_20
REMARK    6  A    between atoms: O_20  and  C_21
REMARK    7  A    between atoms: C_21  and  C_22
REMARK                            x       y       z     vdW  Elec       q    Type
REMARK                         _______ _______ _______ _____ _____    ______ ____
ROOT
ATOM      1  N   UNL     1      -3.599  -0.785   0.246  0.00  0.00    -0.190 N 
ATOM      2  C   UNL     1      -2.514  -0.100   0.663  0.00  0.00    +0.263 C 
ATOM      3  O   UNL     1      -2.612   1.047   1.055  0.00  0.00    -0.269 OA
ATOM      4  C   UNL     1      -1.204  -0.780   0.625  0.00  0.00    +0.100 C 
ATOM      5  C   UNL     1      -0.048  -0.141   1.032  0.00  0.00    +0.026 C 
ATOM      6  C   UNL     1      -1.186  -2.174   0.140  0.00  0.00    +0.257 C 
ATOM      7  O   UNL     1      -0.145  -2.802   0.083  0.00  0.00    -0.270 OA
ATOM      8  N   UNL     1      -2.354  -2.732  -0.240  0.00  0.00    -0.235 N 
ATOM      9  C   UNL     1      -3.507  -2.051  -0.183  0.00  0.00    +0.320 C 
ATOM     10  O   UNL     1      -4.524  -2.613  -0.540  0.00  0.00    -0.251 OA
ATOM     11  H   UNL     1      -2.359  -3.647  -0.561  0.00  0.00    +0.159 HD
ENDROOT
BRANCH   1  15
ATOM     12  C   UNL     1      -7.329   1.074   0.311  0.00  0.00    -0.048 A 
ATOM     13  C   UNL     1      -6.879   0.391   1.426  0.00  0.00    +0.005 A 
ATOM     14  C   UNL     1      -5.644  -0.226   1.408  0.00  0.00    +0.024 A 
ATOM     15  C   UNL     1      -4.853  -0.160   0.268  0.00  0.00    +0.046 A 
ATOM     16  C   UNL     1      -5.305   0.532  -0.848  0.00  0.00    +0.024 A 
ATOM     17  C   UNL     1      -6.544   1.142  -0.825  0.00  0.00    +0.005 A 
BRANCH  12  19
ATOM     18  C   UNL     1      -8.524   3.183   0.837  0.00  0.00    +0.009 C 
ATOM     19  C   UNL     1      -8.678   1.746   0.335  0.00  0.00    +0.032 C 
ENDBRANCH  12  19
ENDBRANCH   1  15
BRANCH   5  20
ATOM     20  C   UNL     1      -0.057   1.301   1.277  0.00  0.00    -0.024 A 
ATOM     21  C   UNL     1      -0.654   2.170   0.350  0.00  0.00    +0.011 A 
ATOM     22  C   UNL     1      -0.662   3.514   0.587  0.00  0.00    +0.046 A 
ATOM     23  C   UNL     1      -0.071   4.025   1.740  0.00  0.00    +0.121 A 
ATOM     24  C   UNL     1       0.526   3.169   2.660  0.00  0.00    +0.046 A 
ATOM     25  C   UNL     1       0.537   1.821   2.437  0.00  0.00    +0.011 A 
BRANCH  23  26
ATOM     26  O   UNL     1      -0.079   5.362   1.967  0.00  0.00    -0.487 OA
BRANCH  26  27
ATOM     27  C   UNL     1      -0.709   6.184   0.982  0.00  0.00    +0.264 C 
BRANCH  27  28
ATOM     28  C   UNL     1      -0.620   7.628   1.402  0.00  0.00    -0.009 A 
ATOM     29  C   UNL     1       0.463   8.395   1.014  0.00  0.00    +0.008 A 
ATOM     30  C   UNL     1       0.546   9.720   1.399  0.00  0.00    +0.022 A 
ATOM     31  C   UNL     1      -0.455  10.280   2.171  0.00  0.00    +0.059 A 
ATOM     32  C   UNL     1      -1.540   9.512   2.559  0.00  0.00    +0.060 A 
ATOM     33  C   UNL     1      -1.624   8.188   2.170  0.00  0.00    +0.028 A 
ATOM     34 CL   UNL     1      -2.798  10.213   3.529  0.00  0.00    -0.082 Cl
ATOM     35 CL   UNL     1      -0.352  11.944   2.654  0.00  0.00    -0.082 Cl
ENDBRANCH  27  28
ENDBRANCH  26  27
ENDBRANCH  23  26
ENDBRANCH   5  20
TORSDOF 6
