REMARK  Name = ZINC44323391
REMARK  11 active torsions:
REMARK  status: ('A' for Active; 'I' for Inactive)
REMARK    1  A    between atoms: C_1  and  C_2
REMARK    2  A    between atoms: C_2  and  C_3
REMARK    3  A    between atoms: C_5  and  C_13
REMARK    4  A    between atoms: C_6  and  O_12
REMARK    5  A    between atoms: C_7  and  N_9
REMARK    6  A    between atoms: C_13  and  CA_14
REMARK    7  A    between atoms: CA_14  and  C_16
REMARK    8  A    between atoms: CA_14  and  N_19
REMARK    9  A    between atoms: C_20  and  O_22
REMARK   10  A    between atoms: O_22  and  C_23
REMARK   11  A    between atoms: C_23  and  C_24
REMARK                            x       y       z     vdW  Elec       q    Type
REMARK                         _______ _______ _______ _____ _____    ______ ____
ROOT
ATOM      1  N   UNL     1      -0.592   0.968  -5.139  0.00  0.00    -0.267 N 
ATOM      2  C   UNL     1      -0.165   2.196  -5.496  0.00  0.00    +0.401 C 
ATOM      3  O   UNL     1       0.722   2.315  -6.318  0.00  0.00    -0.226 OA
ATOM      4  H   UNL     1      -1.300   0.873  -4.483  0.00  0.00    +0.153 HD
ENDROOT
BRANCH   1   5
ATOM      5  CA  UNL     1       0.012  -0.222  -5.743  0.00  0.00    +0.193 C 
BRANCH   5   6
ATOM      6  C   UNL     1      -0.670  -0.523  -7.052  0.00  0.00    +0.376 C 
ATOM      7  O   UNL     1      -1.842  -0.226  -7.211  0.00  0.00    -0.244 OA
ATOM      8  OXT UNL     1      -0.051  -1.063  -7.953  0.00  0.00    -0.244 OA
ENDBRANCH   5   6
BRANCH   5   9
ATOM      9  C   UNL     1      -0.152  -1.413  -4.797  0.00  0.00    +0.073 C 
BRANCH   9  12
ATOM     10  C   UNL     1       0.707  -0.490  -1.238  0.00  0.00    -0.045 A 
ATOM     11  C   UNL     1      -0.012  -0.718  -2.397  0.00  0.00    +0.011 A 
ATOM     12  C   UNL     1       0.632  -1.164  -3.534  0.00  0.00    -0.001 A 
ATOM     13  C   UNL     1       2.002  -1.382  -3.514  0.00  0.00    +0.150 A 
ATOM     14  C   UNL     1       2.722  -1.152  -2.350  0.00  0.00    +0.168 A 
ATOM     15  C   UNL     1       2.073  -0.702  -1.216  0.00  0.00    +0.040 A 
BRANCH  14  16
ATOM     16  N   UNL     1       4.183  -1.384  -2.325  0.00  0.00    +0.060 N 
ATOM     17  O   UNL     1       4.810  -1.183  -1.311  0.00  0.00    -0.126 OA
ATOM     18  O   UNL     1       4.751  -1.774  -3.319  0.00  0.00    -0.126 OA
ENDBRANCH  14  16
BRANCH  10  20
ATOM     19  C   UNL     1      -0.019   1.526   0.010  0.00  0.00    +0.009 C 
ATOM     20  C   UNL     1       0.002  -0.004   0.002  0.00  0.00    +0.032 C 
ENDBRANCH  10  20
BRANCH  13  21
ATOM     21  O   UNL     1       2.638  -1.821  -4.632  0.00  0.00    -0.504 OA
ATOM     22  H   UNL     1       2.959  -1.111  -5.206  0.00  0.00    +0.292 HD
ENDBRANCH  13  21
ENDBRANCH   9  12
ENDBRANCH   5   9
ENDBRANCH   1   5
BRANCH   2  23
ATOM     23  O   UNL     1      -0.720   3.290  -4.942  0.00  0.00    -0.449 OA
BRANCH  23  24
ATOM     24  C   UNL     1      -0.218   4.558  -5.366  0.00  0.00    +0.246 C 
BRANCH  24  25
ATOM     25  C   UNL     1      -0.965   5.674  -4.633  0.00  0.00    +0.088 C 
ATOM     26  C   UNL     1      -2.401   5.729  -5.094  0.00  0.00    -0.029 A 
ATOM     27  C   UNL     1      -3.425   4.807  -5.044  0.00  0.00    +0.005 A 
ATOM     28  C   UNL     1      -4.671   5.127  -5.553  0.00  0.00    +0.000 A 
ATOM     29  C   UNL     1      -4.893   6.373  -6.111  0.00  0.00    +0.001 A 
ATOM     30  C   UNL     1      -3.874   7.302  -6.165  0.00  0.00    +0.009 A 
ATOM     31  C   UNL     1      -2.614   6.985  -5.654  0.00  0.00    -0.014 A 
ATOM     32  C   UNL     1      -1.361   7.777  -5.583  0.00  0.00    -0.014 A 
ATOM     33  C   UNL     1      -0.365   7.015  -4.978  0.00  0.00    -0.029 A 
ATOM     34  C   UNL     1       0.897   7.538  -4.797  0.00  0.00    +0.005 A 
ATOM     35  C   UNL     1       1.181   8.825  -5.218  0.00  0.00    +0.000 A 
ATOM     36  C   UNL     1       0.198   9.590  -5.820  0.00  0.00    +0.001 A 
ATOM     37  C   UNL     1      -1.068   9.075  -6.005  0.00  0.00    +0.009 A 
ENDBRANCH  24  25
ENDBRANCH  23  24
ENDBRANCH   2  23
TORSDOF 10
