REMARK  Name = ZINC27375221
REMARK  6 active torsions:
REMARK  status: ('A' for Active; 'I' for Inactive)
REMARK    1  A    between atoms: C_3  and  C_13
REMARK    2  A    between atoms: C_4  and  N_10
REMARK    3  A    between atoms: C_6  and  C_7
REMARK    4  A    between atoms: C_13  and  N_14
REMARK    5  A    between atoms: C_21  and  S_23
REMARK    6  A    between atoms: S_23  and  N_26
REMARK                            x       y       z     vdW  Elec       q    Type
REMARK                         _______ _______ _______ _____ _____    ______ ____
ROOT
ATOM      1  N   UNL     1       1.756   1.822   0.072  0.00  0.00    -0.325 N 
ATOM      2  C   UNL     1       0.424   1.178   0.048  0.00  0.00    +0.110 C 
ATOM      3  C   UNL     1       0.775  -0.325   0.133  0.00  0.00    +0.056 C 
ATOM      4  C   UNL     1       2.122  -0.318   0.827  0.00  0.00    -0.023 A 
ATOM      5  C   UNL     1       2.631   0.974   0.761  0.00  0.00    +0.033 A 
ATOM      6  C   UNL     1       3.869   1.245   1.341  0.00  0.00    +0.025 A 
ATOM      7  C   UNL     1       4.577   0.240   1.966  0.00  0.00    +0.030 A 
ATOM      8  C   UNL     1       4.065  -1.043   2.022  0.00  0.00    +0.106 A 
ATOM      9  C   UNL     1       2.835  -1.319   1.451  0.00  0.00    +0.034 A 
ENDROOT
BRANCH   8  10
ATOM     10  S   UNL     1       4.976  -2.324   2.819  0.00  0.00    +0.061 S 
ATOM     11  O   UNL     1       5.843  -1.687   3.748  0.00  0.00    -0.153 OA
ATOM     12  O   UNL     1       4.031  -3.310   3.212  0.00  0.00    -0.153 OA
BRANCH  10  13
ATOM     13  N   UNL     1       5.942  -3.024   1.671  0.00  0.00    -0.177 NA
ATOM     14  C   UNL     1       5.462  -4.168   0.884  0.00  0.00    +0.109 C 
ATOM     15  C   UNL     1       5.628  -3.840  -0.607  0.00  0.00    +0.017 C 
ATOM     16  C   UNL     1       7.085  -3.457  -0.880  0.00  0.00    +0.003 C 
ATOM     17  C   UNL     1       7.447  -2.210  -0.069  0.00  0.00    +0.017 C 
ATOM     18  C   UNL     1       7.299  -2.517   1.425  0.00  0.00    +0.109 C 
ENDBRANCH  10  13
ENDBRANCH   8  10
BRANCH   1  19
ATOM     19  C   UNL     1       1.690   3.143   0.712  0.00  0.00    +0.142 C 
BRANCH  19  22
ATOM     20  C   UNL     1       0.644   1.577   3.983  0.00  0.00    +0.013 A 
ATOM     21  C   UNL     1       0.969   1.735   2.651  0.00  0.00    +0.008 A 
ATOM     22  C   UNL     1       1.335   2.978   2.168  0.00  0.00    -0.000 A 
ATOM     23  C   UNL     1       1.383   4.071   3.016  0.00  0.00    +0.132 A 
ATOM     24  C   UNL     1       1.055   3.928   4.348  0.00  0.00    +0.046 A 
ATOM     25  C   UNL     1       0.685   2.676   4.843  0.00  0.00    +0.039 A 
BRANCH  25  26
ATOM     26  C   UNL     1       0.338   2.514   6.271  0.00  0.00    +0.242 C 
ATOM     27  O   UNL     1       0.374   3.473   7.017  0.00  0.00    -0.270 OA
ATOM     28  N   UNL     1      -0.019   1.304   6.745  0.00  0.00    -0.325 N 
ATOM     29  H   UNL     1      -0.278   1.184   7.807  0.00  0.00    +0.145 HD
ATOM     30  H   UNL     1      -0.052   0.437   6.069  0.00  0.00    +0.145 HD
ENDBRANCH  25  26
BRANCH  23  31
ATOM     31  N   UNL     1       1.781   5.396   2.492  0.00  0.00    +0.057 N 
ATOM     32  O   UNL     1       1.922   6.335   3.254  0.00  0.00    -0.126 OA
ATOM     33  O   UNL     1       1.968   5.548   1.298  0.00  0.00    -0.126 OA
ENDBRANCH  23  31
ENDBRANCH  19  22
ENDBRANCH   1  19
TORSDOF 6
