REMARK  Name = ZINC41586301
REMARK  8 active torsions:
REMARK  status: ('A' for Active; 'I' for Inactive)
REMARK    1  A    between atoms: C_1  and  C_2
REMARK    2  A    between atoms: C_2  and  O_3
REMARK    3  A    between atoms: O_3  and  C_4
REMARK    4  A    between atoms: C_4  and  C_6
REMARK    5  A    between atoms: N_9  and  C_12
REMARK    6  A    between atoms: C_12  and  C_13
REMARK    7  A    between atoms: C_14  and  O_31
REMARK    8  A    between atoms: C_21  and  C_24
REMARK                            x       y       z     vdW  Elec       q    Type
REMARK                         _______ _______ _______ _____ _____    ______ ____
ROOT
ATOM      1  C   UNL     1       1.703  -6.091  -6.098  0.00  0.00    +0.020 A 
ATOM      2  C   UNL     1       2.674  -6.892  -5.521  0.00  0.00    +0.122 A 
ATOM      3  C   UNL     1       2.516  -8.275  -5.468  0.00  0.00    +0.046 A 
ATOM      4  C   UNL     1       1.394  -8.860  -5.983  0.00  0.00    +0.019 A 
ATOM      5  C   UNL     1       0.406  -8.066  -6.564  0.00  0.00    +0.065 A 
ATOM      6  C   UNL     1       0.555  -6.669  -6.624  0.00  0.00    +0.143 A 
ATOM      7  O   UNL     1      -0.397  -5.907  -7.196  0.00  0.00    -0.462 OA
ATOM      8  C   UNL     1      -1.621  -6.378  -7.442  0.00  0.00    +0.208 A 
ATOM      9  C   UNL     1      -1.914  -7.705  -7.430  0.00  0.00    +0.064 A 
ATOM     10  C   UNL     1      -0.825  -8.656  -7.125  0.00  0.00    +0.200 A 
ATOM     11  O   UNL     1      -0.940  -9.855  -7.312  0.00  0.00    -0.286 OA
ENDROOT
BRANCH   9  12
ATOM     12  C   UNL     1      -3.286  -8.185  -7.726  0.00  0.00    -0.011 A 
ATOM     13  C   UNL     1      -4.032  -8.823  -6.737  0.00  0.00    +0.010 A 
ATOM     14  C   UNL     1      -5.308  -9.267  -7.017  0.00  0.00    +0.020 A 
ATOM     15  C   UNL     1      -5.847  -9.081  -8.278  0.00  0.00    +0.041 A 
ATOM     16  C   UNL     1      -5.110  -8.449  -9.265  0.00  0.00    +0.020 A 
ATOM     17  C   UNL     1      -3.835  -7.995  -8.993  0.00  0.00    +0.010 A 
ATOM     18 CL   UNL     1      -7.453  -9.642  -8.625  0.00  0.00    -0.084 Cl
ENDBRANCH   9  12
BRANCH   2  19
ATOM     19  O   UNL     1       3.792  -6.323  -5.002  0.00  0.00    -0.506 OA
ATOM     20  H   UNL     1       3.714  -6.082  -4.069  0.00  0.00    +0.292 HD
ENDBRANCH   2  19
BRANCH   1  21
ATOM     21  C   UNL     1       1.887  -4.596  -6.149  0.00  0.00    -0.036 C 
BRANCH  21  25
ATOM     22  C   UNL     1       1.468  -2.353  -2.550  0.00  0.00    +0.094 C 
ATOM     23  C   UNL     1       0.736  -1.893  -3.814  0.00  0.00    -0.004 C 
ATOM     24  C   UNL     1       1.396  -2.529  -5.039  0.00  0.00    -0.078 C 
ATOM     25  N   UNL     1       1.323  -3.992  -4.935  0.00  0.00    +0.383 N 
ATOM     26  C   UNL     1       2.084  -4.446  -3.764  0.00  0.00    -0.078 C 
ATOM     27  C   UNL     1       1.450  -3.884  -2.490  0.00  0.00    -0.004 C 
ATOM     28  H   UNL     1       0.359  -4.273  -4.838  0.00  0.00    -0.081 HD
BRANCH  22  29
ATOM     29  C   UNL     1       0.775  -1.794  -1.334  0.00  0.00    +0.310 C 
ATOM     30  O   UNL     1       0.314  -2.540  -0.504  0.00  0.00    -0.251 OA
BRANCH  29  31
ATOM     31  O   UNL     1       0.671  -0.465  -1.174  0.00  0.00    -0.465 OA
BRANCH  31  33
ATOM     32  C   UNL     1      -0.019   1.526   0.010  0.00  0.00    +0.048 C 
ATOM     33  C   UNL     1       0.002  -0.004   0.002  0.00  0.00    +0.229 C 
ENDBRANCH  31  33
ENDBRANCH  29  31
ENDBRANCH  22  29
ENDBRANCH  21  25
ENDBRANCH   1  21
TORSDOF 7
