REMARK  Name = ZINC16738881
REMARK  7 active torsions:
REMARK  status: ('A' for Active; 'I' for Inactive)
REMARK    1  A    between atoms: C_1  and  C_2
REMARK    2  A    between atoms: C_2  and  N_3
REMARK    3  A    between atoms: N_3  and  C_4
REMARK    4  A    between atoms: C_4  and  C_5
REMARK    5  A    between atoms: C_6  and  C_8
REMARK    6  A    between atoms: C_8  and  N_9
REMARK    7  A    between atoms: C_22  and  C_24
REMARK                            x       y       z     vdW  Elec       q    Type
REMARK                         _______ _______ _______ _____ _____    ______ ____
ROOT
ATOM      1  N   UNL     1      -0.190  -1.301  -4.760  0.00  0.00    -0.291 NA
ATOM      2  C   UNL     1      -0.991  -2.479  -4.402  0.00  0.00    +0.104 C 
ATOM      3  C   UNL     1      -2.197  -2.578  -5.343  0.00  0.00    +0.122 C 
ATOM      4  N   UNL     1      -1.710  -2.555  -6.731  0.00  0.00    -0.312 N 
ATOM      5  C   UNL     1      -0.790  -1.478  -7.128  0.00  0.00    +0.122 C 
ATOM      6  C   UNL     1       0.360  -1.423  -6.117  0.00  0.00    +0.104 C 
ATOM      7  C   UNL     1      -2.107  -3.521  -7.638  0.00  0.00    +0.133 A 
ATOM      8  C   UNL     1      -3.220  -3.295  -8.493  0.00  0.00    +0.051 A 
ATOM      9  C   UNL     1      -4.087  -2.107  -8.573  0.00  0.00    -0.025 A 
ATOM     10  C   UNL     1      -5.083  -2.142  -9.472  0.00  0.00    -0.004 A 
ATOM     11  S   UNL     1      -4.937  -3.728 -10.263  0.00  0.00    -0.073 S 
ATOM     12  C   UNL     1      -3.533  -4.344  -9.375  0.00  0.00    +0.114 A 
ATOM     13  N   UNL     1      -2.828  -5.460  -9.396  0.00  0.00    -0.225 NA
ATOM     14  C   UNL     1      -1.804  -5.614  -8.580  0.00  0.00    +0.129 A 
ATOM     15  N   UNL     1      -1.451  -4.667  -7.728  0.00  0.00    -0.217 NA
ATOM     16  C   UNL     1      -1.015  -6.897  -8.622  0.00  0.00    +0.088 C 
ATOM     17  C   UNL     1      -5.903  -0.880  -9.461  0.00  0.00    +0.043 C 
ATOM     18  C   UNL     1      -5.550  -0.200  -8.121  0.00  0.00    +0.010 C 
ATOM     19  C   UNL     1      -4.140  -0.759  -7.848  0.00  0.00    +0.037 C 
ENDROOT
BRANCH   1  20
ATOM     20  C   UNL     1       0.878  -1.073  -3.778  0.00  0.00    +0.180 C 
BRANCH  20  22
ATOM     21  N   UNL     1       1.062  -0.455  -1.390  0.00  0.00    -0.301 N 
ATOM     22  C   UNL     1       0.268  -0.710  -2.448  0.00  0.00    +0.230 C 
ATOM     23  O   UNL     1      -0.937  -0.648  -2.331  0.00  0.00    -0.274 OA
BRANCH  21  25
ATOM     24  C   UNL     1       0.300   1.415  -0.011  0.00  0.00    +0.024 C 
ATOM     25  C   UNL     1       0.470  -0.103  -0.097  0.00  0.00    +0.104 C 
ENDBRANCH  21  25
BRANCH  21  26
ATOM     26  C   UNL     1       2.519  -0.530  -1.532  0.00  0.00    +0.104 C 
ATOM     27  C   UNL     1       2.989  -1.951  -1.218  0.00  0.00    +0.024 C 
ENDBRANCH  21  26
ENDBRANCH  20  22
ENDBRANCH   1  20
TORSDOF 4
