REMARK  Name = ZINC05486580
REMARK  13 active torsions:
REMARK  status: ('A' for Active; 'I' for Inactive)
REMARK    1  A    between atoms: C_1  and  C_2
REMARK    2  A    between atoms: C_2  and  C_3
REMARK    3  A    between atoms: C_3  and  O_32
REMARK    4  A    between atoms: C_4  and  C_31
REMARK    5  A    between atoms: C_6  and  C_22
REMARK    6  A    between atoms: C_8  and  C_13
REMARK    7  A    between atoms: C_10  and  C_12
REMARK    8  A    between atoms: C_16  and  N_19
REMARK    9  A    between atoms: N_19  and  C_20
REMARK   10  A    between atoms: N_19  and  C_21
REMARK   11  A    between atoms: C_25  and  N_28
REMARK   12  A    between atoms: N_28  and  C_29
REMARK   13  A    between atoms: N_28  and  C_30
REMARK                            x       y       z     vdW  Elec       q    Type
REMARK                         _______ _______ _______ _____ _____    ______ ____
ROOT
ATOM      1  C   UNL     1      -0.745   2.695   0.989  0.00  0.00    +0.069 C 
ATOM      2  C   UNL     1      -0.154   1.292   0.825  0.00  0.00    +0.008 C 
ATOM      3  C   UNL     1       0.759   1.268  -0.403  0.00  0.00    -0.034 C 
ATOM      4  C   UNL     1       1.293   3.615  -0.122  0.00  0.00    -0.034 C 
ATOM      5  C   UNL     1       0.396   3.709   1.115  0.00  0.00    +0.008 C 
ATOM      6  C   UNL     1       1.218   3.400   2.367  0.00  0.00    +0.009 C 
ATOM      7  C   UNL     1      -1.286   0.280   0.639  0.00  0.00    +0.009 C 
ATOM      8  N   UNL     1       1.845   2.252  -0.234  0.00  0.00    +0.389 N 
ATOM      9  H   UNL     1       2.472   2.207  -1.046  0.00  0.00    -0.084 HD
ATOM     10  H   UNL     1       2.373   2.030   0.618  0.00  0.00    -0.084 HD
ENDROOT
BRANCH   4  11
ATOM     11  C   UNL     1       0.486   3.938  -1.353  0.00  0.00    -0.061 A 
ATOM     12  C   UNL     1       0.681   3.215  -2.515  0.00  0.00    +0.004 A 
ATOM     13  C   UNL     1      -0.061   3.504  -3.643  0.00  0.00    +0.023 A 
ATOM     14  C   UNL     1      -0.996   4.532  -3.614  0.00  0.00    +0.029 A 
ATOM     15  C   UNL     1      -1.185   5.261  -2.446  0.00  0.00    +0.023 A 
ATOM     16  C   UNL     1      -0.444   4.962  -1.320  0.00  0.00    +0.004 A 
BRANCH  14  17
ATOM     17  N   UNL     1      -1.744   4.831  -4.755  0.00  0.00    -0.336 N 
ATOM     18  C   UNL     1      -2.729   5.914  -4.721  0.00  0.00    +0.129 C 
ATOM     19  C   UNL     1      -1.543   4.061  -5.985  0.00  0.00    +0.129 C 
ENDBRANCH  14  17
ENDBRANCH   4  11
BRANCH   3  20
ATOM     20  C   UNL     1       1.358  -0.106  -0.557  0.00  0.00    -0.061 A 
ATOM     21  C   UNL     1       2.448  -0.473   0.210  0.00  0.00    +0.004 A 
ATOM     22  C   UNL     1       2.996  -1.734   0.075  0.00  0.00    +0.023 A 
ATOM     23  C   UNL     1       2.458  -2.629  -0.841  0.00  0.00    +0.029 A 
ATOM     24  C   UNL     1       1.366  -2.254  -1.614  0.00  0.00    +0.023 A 
ATOM     25  C   UNL     1       0.820  -0.994  -1.470  0.00  0.00    +0.004 A 
BRANCH  23  26
ATOM     26  N   UNL     1       3.013  -3.902  -0.984  0.00  0.00    -0.336 N 
ATOM     27  C   UNL     1       2.444  -4.845  -1.950  0.00  0.00    +0.129 C 
ATOM     28  C   UNL     1       4.164  -4.296  -0.167  0.00  0.00    +0.129 C 
ENDBRANCH  23  26
ENDBRANCH   3  20
BRANCH   1  30
ATOM     29  C   UNL     1      -2.152   4.158   2.446  0.00  0.00    +0.007 C 
ATOM     30  C   UNL     1      -1.611   2.741   2.250  0.00  0.00    +0.032 C 
ENDBRANCH   1  30
BRANCH   1  31
ATOM     31  O   UNL     1      -1.544   3.013  -0.152  0.00  0.00    -0.388 OA
ATOM     32  H   UNL     1      -2.287   2.411  -0.292  0.00  0.00    +0.210 HD
ENDBRANCH   1  31
TORSDOF 6
