REMARK  Name = ZINC62498716
REMARK  7 active torsions:
REMARK  status: ('A' for Active; 'I' for Inactive)
REMARK    1  A    between atoms: C_1  and  C_2
REMARK    2  A    between atoms: C_2  and  C_3
REMARK    3  A    between atoms: C_2  and  C_22
REMARK    4  A    between atoms: C_3  and  N_4
REMARK    5  A    between atoms: C_10  and  N_13
REMARK    6  A    between atoms: C_14  and  C_16
REMARK    7  A    between atoms: C_22  and  N_23
REMARK                            x       y       z     vdW  Elec       q    Type
REMARK                         _______ _______ _______ _____ _____    ______ ____
ROOT
ATOM      1  N   UNL     1      -2.107  -0.144  -1.228  0.00  0.00    -0.299 N 
ATOM      2  C   UNL     1      -3.387  -0.508  -1.443  0.00  0.00    +0.302 C 
ATOM      3  O   UNL     1      -3.955  -1.232  -0.649  0.00  0.00    -0.253 OA
ATOM      4  N   UNL     1      -4.037  -0.069  -2.540  0.00  0.00    -0.286 N 
ATOM      5  C   UNL     1      -3.330   0.705  -3.569  0.00  0.00    +0.111 C 
ATOM      6  C   UNL     1      -3.548   0.033  -4.928  0.00  0.00    +0.041 C 
ATOM      7  C   UNL     1      -5.049  -0.124  -5.180  0.00  0.00    +0.076 C 
ATOM      8  C   UNL     1      -5.659  -1.017  -4.097  0.00  0.00    +0.041 C 
ATOM      9  C   UNL     1      -5.464  -0.362  -2.731  0.00  0.00    +0.111 C 
ATOM     10  H   UNL     1      -1.631   0.373  -1.896  0.00  0.00    +0.150 HD
ENDROOT
BRANCH   7  11
ATOM     11  N   UNL     1      -5.261  -0.737  -6.494  0.00  0.00    -0.312 N 
ATOM     12  C   UNL     1      -6.418  -0.530  -7.154  0.00  0.00    +0.216 C 
ATOM     13  O   UNL     1      -7.283   0.163  -6.661  0.00  0.00    -0.276 OA
ATOM     14  H   UNL     1      -4.570  -1.291  -6.888  0.00  0.00    +0.149 HD
BRANCH  12  15
ATOM     15  C   UNL     1      -6.637  -1.160  -8.506  0.00  0.00    +0.075 C 
ATOM     16  C   UNL     1      -5.563  -0.668  -9.478  0.00  0.00    +0.013 C 
ATOM     17  C   UNL     1      -5.785  -1.308 -10.850  0.00  0.00    +0.001 C 
ATOM     18  C   UNL     1      -7.167  -0.917 -11.377  0.00  0.00    +0.000 C 
ATOM     19  C   UNL     1      -8.241  -1.410 -10.405  0.00  0.00    +0.001 C 
ATOM     20  C   UNL     1      -8.019  -0.770  -9.033  0.00  0.00    +0.013 C 
ENDBRANCH  12  15
ENDBRANCH   7  11
BRANCH   1  21
ATOM     21  C   UNL     1      -1.435  -0.530   0.015  0.00  0.00    +0.107 C 
BRANCH  21  23
ATOM     22  C   UNL     1      -0.027   1.534   0.019  0.00  0.00    +0.007 C 
ATOM     23  C   UNL     1      -0.001   0.004   0.007  0.00  0.00    -0.014 C 
BRANCH  23  24
ATOM     24  C   UNL     1       0.739  -0.503   1.247  0.00  0.00    -0.074 C 
BRANCH  24  25
ATOM     25  N   UNL     1       2.147  -0.090   1.179  0.00  0.00    +0.380 N 
ATOM     26  C   UNL     1       2.793  -0.745   0.035  0.00  0.00    -0.079 C 
ATOM     27  C   UNL     1       4.238  -0.256  -0.088  0.00  0.00    -0.019 C 
ATOM     28  C   UNL     1       4.998  -0.600   1.196  0.00  0.00    -0.004 C 
ATOM     29  C   UNL     1       4.274   0.027   2.391  0.00  0.00    -0.019 C 
ATOM     30  C   UNL     1       2.828  -0.473   2.422  0.00  0.00    -0.079 C 
ATOM     31  H   UNL     1       2.197   0.911   1.064  0.00  0.00    -0.082 HD
ENDBRANCH  24  25
ENDBRANCH  23  24
ENDBRANCH  21  23
ENDBRANCH   1  21
TORSDOF 6
