REMARK  Name = ZINC40119609
REMARK  8 active torsions:
REMARK  status: ('A' for Active; 'I' for Inactive)
REMARK    1  A    between atoms: C_1  and  C_2
REMARK    2  A    between atoms: N_8  and  C_9
REMARK    3  A    between atoms: C_9  and  C_10
REMARK    4  A    between atoms: C_13  and  N_16
REMARK    5  A    between atoms: N_16  and  C_17
REMARK    6  A    between atoms: C_20  and  S_26
REMARK    7  A    between atoms: C_22  and  N_23
REMARK    8  A    between atoms: S_26  and  C_29
REMARK                            x       y       z     vdW  Elec       q    Type
REMARK                         _______ _______ _______ _____ _____    ______ ____
ROOT
ATOM      1  C   UNL     1       0.989  -0.318   3.483  0.00  0.00    -0.064 A 
ATOM      2  C   UNL     1       0.657  -1.484   4.148  0.00  0.00    +0.003 A 
ATOM      3  C   UNL     1       1.345  -1.851   5.288  0.00  0.00    +0.023 A 
ATOM      4  C   UNL     1       2.372  -1.047   5.767  0.00  0.00    +0.031 A 
ATOM      5  C   UNL     1       2.703   0.124   5.096  0.00  0.00    +0.023 A 
ATOM      6  C   UNL     1       2.015   0.482   3.954  0.00  0.00    +0.003 A 
ENDROOT
BRANCH   4   7
ATOM      7  N   UNL     1       3.070  -1.415   6.920  0.00  0.00    -0.313 N 
ATOM      8  H   UNL     1       2.798  -2.199   7.422  0.00  0.00    +0.152 HD
BRANCH   7   9
ATOM      9  C   UNL     1       4.159  -0.653   7.350  0.00  0.00    +0.062 A 
ATOM     10  C   UNL     1       5.455  -1.100   7.120  0.00  0.00    +0.027 A 
ATOM     11  C   UNL     1       6.529  -0.344   7.546  0.00  0.00    +0.029 A 
ATOM     12  C   UNL     1       6.317   0.855   8.201  0.00  0.00    +0.090 A 
ATOM     13  C   UNL     1       5.029   1.302   8.431  0.00  0.00    +0.061 A 
ATOM     14  C   UNL     1       3.950   0.555   8.003  0.00  0.00    +0.149 A 
BRANCH  12  15
ATOM     15  S   UNL     1       7.691   1.815   8.744  0.00  0.00    -0.006 S 
ATOM     16  O   UNL     1       7.195   2.571   9.840  0.00  0.00    -0.170 OA
ATOM     17  O   UNL     1       8.740   0.875   8.929  0.00  0.00    -0.170 OA
ATOM     18  C   UNL     1       8.073   2.912   7.350  0.00  0.00    +0.200 C 
ENDBRANCH  12  15
BRANCH  14  19
ATOM     19  N   UNL     1       2.571   1.037   8.244  0.00  0.00    +0.058 N 
ATOM     20  O   UNL     1       2.389   2.139   8.707  0.00  0.00    -0.126 OA
ATOM     21  O   UNL     1       1.628   0.329   7.979  0.00  0.00    -0.126 OA
ENDBRANCH  14  19
ENDBRANCH   7   9
ENDBRANCH   4   7
BRANCH   1  22
ATOM     22  C   UNL     1       0.236   0.079   2.240  0.00  0.00    -0.043 C 
BRANCH  22  29
ATOM     23  C   UNL     1       0.256   1.516  -0.172  0.00  0.00    -0.013 C 
ATOM     24  C   UNL     1       0.235  -0.013  -0.155  0.00  0.00    -0.071 C 
ATOM     25  C   UNL     1       0.971  -0.546  -1.387  0.00  0.00    -0.016 C 
ATOM     26  C   UNL     1       0.948  -2.077  -1.365  0.00  0.00    -0.003 C 
ATOM     27  C   UNL     1       1.573  -2.570  -0.057  0.00  0.00    -0.019 C 
ATOM     28  C   UNL     1       0.815  -1.962   1.125  0.00  0.00    -0.078 C 
ATOM     29  N   UNL     1       0.898  -0.497   1.062  0.00  0.00    +0.384 N 
ATOM     30  H   UNL     1       1.867  -0.216   1.051  0.00  0.00    -0.081 HD
ENDBRANCH  22  29
ENDBRANCH   1  22
TORSDOF 6
