REMARK  Name = ZINC03185041
REMARK  7 active torsions:
REMARK  status: ('A' for Active; 'I' for Inactive)
REMARK    1  A    between atoms: C_7  and  C_11
REMARK    2  A    between atoms: C_11  and  C_12
REMARK    3  A    between atoms: C_12  and  C_14
REMARK    4  A    between atoms: C_12  and  N_29
REMARK    5  A    between atoms: N_16  and  N_17
REMARK    6  A    between atoms: C_18  and  C_19
REMARK    7  A    between atoms: C_30  and  C_32
REMARK                            x       y       z     vdW  Elec       q    Type
REMARK                         _______ _______ _______ _____ _____    ______ ____
ROOT
ATOM      1  C   UNL     1      -8.482  -0.959   0.044  0.00  0.00    +0.165 C 
ENDROOT
BRANCH   1   2
ATOM      2  C   UNL     1      -7.185  -0.192   0.042  0.00  0.00    +0.253 C 
ATOM      3  O   UNL     1      -7.197   1.021   0.050  0.00  0.00    -0.272 OA
ATOM      4  N   UNL     1      -6.011  -0.854   0.031  0.00  0.00    -0.205 N 
ATOM      5  H   UNL     1      -6.001  -1.824   0.024  0.00  0.00    +0.177 HD
BRANCH   4   6
ATOM      6  N   UNL     1      -4.805  -0.141   0.028  0.00  0.00    -0.188 NA
ATOM      7  C   UNL     1      -3.674  -0.778   0.018  0.00  0.00    +0.138 C 
BRANCH   7   8
ATOM      8  C   UNL     1      -2.405  -0.028   0.015  0.00  0.00    -0.002 A 
ATOM      9  C   UNL     1      -2.417   1.369   0.025  0.00  0.00    +0.013 A 
ATOM     10  C   UNL     1      -1.228   2.067   0.019  0.00  0.00    +0.050 A 
ATOM     11  C   UNL     1      -0.017   1.388   0.010  0.00  0.00    +0.162 A 
ATOM     12  C   UNL     1       0.002  -0.004   0.002  0.00  0.00    +0.163 A 
ATOM     13  C   UNL     1      -1.187  -0.712   0.004  0.00  0.00    +0.059 A 
ATOM     14  O   UNL     1       1.181  -0.685  -0.006  0.00  0.00    -0.485 OA
ATOM     15  C   UNL     1       2.348   0.054  -0.386  0.00  0.00    +0.270 C 
ATOM     16  C   UNL     1       2.334   1.392   0.366  0.00  0.00    +0.270 C 
ATOM     17  O   UNL     1       1.144   2.099   0.002  0.00  0.00    -0.485 OA
ENDBRANCH   7   8
ENDBRANCH   4   6
ENDBRANCH   1   2
BRANCH   1  18
ATOM     18  N   UNL     1      -9.566  -0.087  -0.416  0.00  0.00    -0.299 N 
ATOM     19  C   UNL     1      -9.854   1.043   0.259  0.00  0.00    +0.251 C 
ATOM     20  O   UNL     1      -9.215   1.339   1.251  0.00  0.00    -0.270 OA
ATOM     21  H   UNL     1     -10.075  -0.323  -1.207  0.00  0.00    +0.150 HD
BRANCH  19  22
ATOM     22  C   UNL     1     -10.938   1.915  -0.202  0.00  0.00    +0.074 A 
ATOM     23  C   UNL     1     -11.391   3.108   0.341  0.00  0.00    +0.021 A 
ATOM     24  C   UNL     1     -12.435   3.729  -0.298  0.00  0.00    +0.008 A 
ATOM     25  C   UNL     1     -12.966   3.158  -1.412  0.00  0.00    +0.046 A 
ATOM     26  S   UNL     1     -12.014   1.723  -1.613  0.00  0.00    -0.092 S 
ENDBRANCH  19  22
ENDBRANCH   1  18
BRANCH   1  27
ATOM     27  C   UNL     1      -8.786  -1.443   1.463  0.00  0.00    +0.069 C 
BRANCH  27  34
ATOM     28  C   UNL     1      -9.481  -6.000   0.609  0.00  0.00    +0.001 A 
ATOM     29  C   UNL     1     -10.815  -6.371   0.708  0.00  0.00    +0.002 A 
ATOM     30  C   UNL     1     -11.781  -5.443   1.029  0.00  0.00    +0.026 A 
ATOM     31  C   UNL     1     -11.418  -4.119   1.256  0.00  0.00    +0.047 A 
ATOM     32  C   UNL     1     -10.066  -3.748   1.154  0.00  0.00    +0.003 A 
ATOM     33  C   UNL     1      -9.103  -4.705   0.828  0.00  0.00    +0.010 A 
ATOM     34  C   UNL     1     -10.016  -2.313   1.445  0.00  0.00    -0.020 A 
ATOM     35  C   UNL     1     -11.275  -1.920   1.698  0.00  0.00    +0.087 A 
ATOM     36  N   UNL     1     -12.127  -2.985   1.584  0.00  0.00    -0.360 N 
ATOM     37  H   UNL     1     -13.087  -2.947   1.719  0.00  0.00    +0.165 HD
ENDBRANCH  27  34
ENDBRANCH   1  27
TORSDOF 7
