REMARK  Name = ZINC19858012
REMARK  2 active torsions:
REMARK  status: ('A' for Active; 'I' for Inactive)
REMARK    1  A    between atoms: C_5  and  O_8
REMARK    2  A    between atoms: C_18  and  N_20
REMARK                            x       y       z     vdW  Elec       q    Type
REMARK                         _______ _______ _______ _____ _____    ______ ____
ROOT
ATOM      1  C   UNL     1      -1.622  -2.373   3.872  0.00  0.00    +0.065 A 
ATOM      2  C   UNL     1      -0.538  -2.404   3.002  0.00  0.00    +0.130 A 
ATOM      3  C   UNL     1       0.752  -2.409   3.530  0.00  0.00    +0.021 A 
ATOM      4  C   UNL     1       0.954  -2.387   4.892  0.00  0.00    +0.067 A 
ATOM      5  C   UNL     1      -0.134  -2.357   5.755  0.00  0.00    +0.145 A 
ATOM      6  C   UNL     1      -1.421  -2.349   5.237  0.00  0.00    +0.064 A 
ATOM      7 BR   UNL     1      -2.906  -2.307   6.407  0.00  0.00    -0.046 Br
ATOM      8 BR   UNL     1       2.712  -2.398   5.587  0.00  0.00    -0.046 Br
ATOM      9  C   UNL     1       1.691  -2.440   2.347  0.00  0.00    +0.093 C 
ATOM     10  C   UNL     1       2.906  -1.575   2.515  0.00  0.00    +0.016 C 
ATOM     11  C   UNL     1       3.848  -1.661   1.314  0.00  0.00    +0.019 C 
ATOM     12  C   UNL     1       3.177  -1.081   0.069  0.00  0.00    +0.104 C 
ATOM     13  N   UNL     1       2.388  -2.120  -0.607  0.00  0.00    -0.311 N 
ATOM     14  C   UNL     1       1.231  -2.527  -0.092  0.00  0.00    +0.273 C 
ATOM     15  O   UNL     1       0.566  -3.358  -0.673  0.00  0.00    -0.270 OA
ATOM     16  C   UNL     1       0.776  -1.952   1.215  0.00  0.00    +0.248 C 
ATOM     17  O   UNL     1      -0.509  -2.430   1.634  0.00  0.00    -0.461 OA
ATOM     18  H   UNL     1       2.754  -2.567  -1.543  0.00  0.00    +0.149 HD
ENDROOT
BRANCH  16  19
ATOM     19  N   UNL     1       0.779  -0.485   1.154  0.00  0.00    -0.253 NA
ATOM     20  C   UNL     1       0.292   0.096   2.414  0.00  0.00    +0.116 C 
ATOM     21  C   UNL     1       0.368   1.623   2.329  0.00  0.00    +0.175 C 
ATOM     22  O   UNL     1      -0.387   2.070   1.199  0.00  0.00    -0.377 OA
ATOM     23  C   UNL     1       0.060   1.524  -0.045  0.00  0.00    +0.175 C 
ATOM     24  C   UNL     1      -0.019  -0.003   0.017  0.00  0.00    +0.116 C 
ENDBRANCH  16  19
BRANCH   5  25
ATOM     25  O   UNL     1       0.062  -2.334   7.101  0.00  0.00    -0.505 OA
ATOM     26  H   UNL     1      -0.801  -2.311   7.782  0.00  0.00    +0.292 HD
ENDBRANCH   5  25
TORSDOF 2
