REMARK  Name = ZINC09429017
REMARK  10 active torsions:
REMARK  status: ('A' for Active; 'I' for Inactive)
REMARK    1  A    between atoms: C_1  and  C_2
REMARK    2  A    between atoms: C_5  and  N_8
REMARK    3  A    between atoms: C_9  and  C_11
REMARK    4  A    between atoms: C_11  and  C_13
REMARK    5  A    between atoms: C_11  and  N_20
REMARK    6  A    between atoms: C_13  and  C_14
REMARK    7  A    between atoms: N_20  and  S_21
REMARK    8  A    between atoms: S_21  and  C_24
REMARK    9  A    between atoms: C_31  and  C_37
REMARK   10  A    between atoms: C_34  and  C_36
REMARK                            x       y       z     vdW  Elec       q    Type
REMARK                         _______ _______ _______ _____ _____    ______ ____
ROOT
ATOM      1  C   UNL     1       2.275   0.147  -0.049  0.00  0.00    +0.167 C 
ENDROOT
BRANCH   1   3
ATOM      2  N   UNL     1      -0.185  -0.104  -0.092  0.00  0.00    -0.284 N 
ATOM      3  C   UNL     1       0.884   0.713  -0.171  0.00  0.00    +0.236 C 
ATOM      4  O   UNL     1       0.726   1.903  -0.341  0.00  0.00    -0.274 OA
ATOM      5  H   UNL     1      -0.042  -1.191  -0.005  0.00  0.00    +0.155 HD
BRANCH   2  10
ATOM      6  C   UNL     1      -5.426   2.064  -0.205  0.00  0.00    +0.044 C 
ATOM      7  C   UNL     1      -4.034   1.488  -0.175  0.00  0.00    -0.050 A 
ATOM      8  C   UNL     1      -3.789   0.248  -0.734  0.00  0.00    +0.005 A 
ATOM      9  C   UNL     1      -2.514  -0.283  -0.708  0.00  0.00    +0.023 A 
ATOM     10  C   UNL     1      -1.478   0.431  -0.120  0.00  0.00    +0.033 A 
ATOM     11  C   UNL     1      -1.729   1.674   0.445  0.00  0.00    +0.023 A 
ATOM     12  C   UNL     1      -3.005   2.202   0.411  0.00  0.00    +0.005 A 
ENDBRANCH   2  10
ENDBRANCH   1   3
BRANCH   1  13
ATOM     13  N   UNL     1       3.255   1.230  -0.167  0.00  0.00    -0.178 NA
ATOM     14  H   UNL     1       3.686   1.477  -1.149  0.00  0.00    +0.149 HD
BRANCH  13  15
ATOM     15  S   UNL     1       3.900   1.916   1.195  0.00  0.00    +0.059 S 
ATOM     16  O   UNL     1       4.867   2.860   0.755  0.00  0.00    -0.153 OA
ATOM     17  O   UNL     1       2.805   2.278   2.025  0.00  0.00    -0.153 OA
BRANCH  15  18
ATOM     18  C   UNL     1       4.782   0.651   2.047  0.00  0.00    +0.106 A 
ATOM     19  C   UNL     1       6.141   0.494   1.841  0.00  0.00    +0.030 A 
ATOM     20  C   UNL     1       6.833  -0.495   2.507  0.00  0.00    +0.026 A 
ATOM     21  C   UNL     1       6.169  -1.345   3.394  0.00  0.00    +0.040 A 
ATOM     22  C   UNL     1       4.808  -1.179   3.593  0.00  0.00    -0.022 A 
ATOM     23  C   UNL     1       4.119  -0.183   2.928  0.00  0.00    +0.034 A 
ATOM     24  C   UNL     1       4.338  -2.215   4.589  0.00  0.00    +0.059 C 
ATOM     25  C   UNL     1       5.604  -3.010   4.947  0.00  0.00    +0.083 C 
ATOM     26  N   UNL     1       6.678  -2.398   4.160  0.00  0.00    -0.268 N 
ATOM     27  C   UNL     1       7.966  -2.793   4.173  0.00  0.00    +0.217 C 
ATOM     28  O   UNL     1       8.795  -2.178   3.536  0.00  0.00    -0.276 OA
ATOM     29  C   UNL     1       8.378  -3.998   4.980  0.00  0.00    +0.109 C 
ATOM     30  C   UNL     1       5.434  -4.481   4.562  0.00  0.00    +0.029 C 
ENDBRANCH  15  18
ENDBRANCH  13  15
ENDBRANCH   1  13
BRANCH   1  31
ATOM     31  C   UNL     1       2.509  -0.877  -1.161  0.00  0.00    +0.065 C 
BRANCH  31  32
ATOM     32  C   UNL     1       3.870  -1.501  -0.991  0.00  0.00    -0.045 A 
ATOM     33  C   UNL     1       4.984  -0.892  -1.540  0.00  0.00    +0.004 A 
ATOM     34  C   UNL     1       6.233  -1.462  -1.379  0.00  0.00    +0.000 A 
ATOM     35  C   UNL     1       6.367  -2.647  -0.679  0.00  0.00    +0.000 A 
ATOM     36  C   UNL     1       5.253  -3.259  -0.136  0.00  0.00    +0.000 A 
ATOM     37  C   UNL     1       4.005  -2.686  -0.291  0.00  0.00    +0.004 A 
ENDBRANCH  31  32
ENDBRANCH   1  31
TORSDOF 7
