REMARK  Name = ZINC60368447
REMARK  8 active torsions:
REMARK  status: ('A' for Active; 'I' for Inactive)
REMARK    1  A    between atoms: C_1  and  C_2
REMARK    2  A    between atoms: N_5  and  C_11
REMARK    3  A    between atoms: C_7  and  C_10
REMARK    4  A    between atoms: C_11  and  C_12
REMARK    5  A    between atoms: N_15  and  C_18
REMARK    6  A    between atoms: C_18  and  C_19
REMARK    7  A    between atoms: N_21  and  C_22
REMARK    8  A    between atoms: C_22  and  C_27
REMARK                            x       y       z     vdW  Elec       q    Type
REMARK                         _______ _______ _______ _____ _____    ______ ____
ROOT
ATOM      1  C   UNL     1      -4.597  -8.692  -2.372  0.00  0.00    +0.197 C 
ATOM      2  O   UNL     1      -5.339  -7.743  -2.233  0.00  0.00    -0.278 OA
ATOM      3  N   UNL     1      -5.100  -9.942  -2.405  0.00  0.00    -0.307 N 
ATOM      4  H   UNL     1      -4.517 -10.695  -2.588  0.00  0.00    +0.149 HD
ENDROOT
BRANCH   3   5
ATOM      5  C   UNL     1      -6.528 -10.163  -2.164  0.00  0.00    +0.060 C 
ATOM      6  C   UNL     1      -6.818 -11.675  -2.056  0.00  0.00    +0.030 C 
ATOM      7  C   UNL     1      -6.794 -11.958  -0.534  0.00  0.00    +0.002 C 
ATOM      8  C   UNL     1      -7.463 -10.694   0.060  0.00  0.00    +0.002 C 
ATOM      9  C   UNL     1      -6.938  -9.540  -0.818  0.00  0.00    +0.030 C 
BRANCH   5  10
ATOM     10  C   UNL     1      -7.340  -9.559  -3.281  0.00  0.00    -0.020 A 
ATOM     11  C   UNL     1      -8.677  -9.269  -3.084  0.00  0.00    +0.009 A 
ATOM     12  C   UNL     1      -9.425  -8.716  -4.106  0.00  0.00    +0.050 A 
ATOM     13  C   UNL     1      -8.835  -8.451  -5.333  0.00  0.00    +0.162 A 
ATOM     14  C   UNL     1      -7.490  -8.741  -5.531  0.00  0.00    +0.162 A 
ATOM     15  C   UNL     1      -6.744  -9.291  -4.499  0.00  0.00    +0.055 A 
ATOM     16  O   UNL     1      -6.890  -8.481  -6.724  0.00  0.00    -0.485 OA
ATOM     17  C   UNL     1      -7.753  -8.271  -7.847  0.00  0.00    +0.270 C 
ATOM     18  C   UNL     1      -8.873  -7.312  -7.420  0.00  0.00    +0.270 C 
ATOM     19  O   UNL     1      -9.585  -7.910  -6.332  0.00  0.00    -0.485 OA
ENDBRANCH   5  10
ENDBRANCH   3   5
BRANCH   1  20
ATOM     20  C   UNL     1      -3.112  -8.474  -2.509  0.00  0.00    +0.019 C 
BRANCH  20  24
ATOM     21  C   UNL     1      -1.476  -4.715  -1.349  0.00  0.00    -0.000 C 
ATOM     22  C   UNL     1      -1.097  -5.314  -2.706  0.00  0.00    -0.014 C 
ATOM     23  C   UNL     1      -1.391  -6.816  -2.694  0.00  0.00    -0.078 C 
ATOM     24  N   UNL     1      -2.820  -7.036  -2.442  0.00  0.00    +0.385 N 
ATOM     25  C   UNL     1      -3.175  -6.527  -1.111  0.00  0.00    -0.078 C 
ATOM     26  C   UNL     1      -2.950  -5.015  -1.062  0.00  0.00    -0.014 C 
ATOM     27  H   UNL     1      -3.363  -6.552  -3.142  0.00  0.00    -0.081 HD
BRANCH  21  28
ATOM     28  C   UNL     1      -1.258  -3.200  -1.379  0.00  0.00    +0.088 C 
BRANCH  28  32
ATOM     29  C   UNL     1       2.148   0.251  -2.223  0.00  0.00    +0.039 C 
ATOM     30  C   UNL     1       1.897  -1.244  -2.019  0.00  0.00    +0.130 C 
ATOM     31  C   UNL     1       0.400  -1.487  -1.806  0.00  0.00    +0.115 C 
ATOM     32  N   UNL     1       0.174  -2.914  -1.535  0.00  0.00    -0.297 NA
ATOM     33  C   UNL     1       0.929  -3.345  -0.349  0.00  0.00    +0.115 C 
ATOM     34  C   UNL     1       2.420  -3.084  -0.577  0.00  0.00    +0.130 C 
ATOM     35  O   UNL     1       2.618  -1.698  -0.870  0.00  0.00    -0.371 OA
ATOM     36  C   UNL     1       3.203  -3.456   0.684  0.00  0.00    +0.039 C 
ENDBRANCH  28  32
ENDBRANCH  21  28
ENDBRANCH  20  24
ENDBRANCH   1  20
TORSDOF 6
