REMARK  Name = ZINC03234744
REMARK  4 active torsions:
REMARK  status: ('A' for Active; 'I' for Inactive)
REMARK    1  A    between atoms: C_3  and  C_6
REMARK    2  A    between atoms: C_8  and  C_25
REMARK    3  A    between atoms: C_13  and  S_17
REMARK    4  A    between atoms: S_17  and  C_18
REMARK                            x       y       z     vdW  Elec       q    Type
REMARK                         _______ _______ _______ _____ _____    ______ ____
ROOT
ATOM      1  C   UNL     1      -1.880   1.477   3.308  0.00  0.00    +0.080 A 
ATOM      2  C   UNL     1      -1.232   0.998   2.157  0.00  0.00    +0.042 A 
ATOM      3  C   UNL     1      -0.722   1.881   1.250  0.00  0.00    +0.073 A 
ATOM      4  C   UNL     1      -0.878   3.254   1.499  0.00  0.00    +0.097 A 
ATOM      5  C   UNL     1      -1.546   3.678   2.675  0.00  0.00    +0.169 A 
ATOM      6  N   UNL     1      -2.021   2.775   3.533  0.00  0.00    -0.227 NA
ATOM      7  N   UNL     1      -1.684   4.993   2.894  0.00  0.00    -0.202 NA
ATOM      8  C   UNL     1      -1.205   5.869   2.029  0.00  0.00    +0.194 A 
ATOM      9  N   UNL     1      -0.573   5.510   0.915  0.00  0.00    -0.183 NA
ATOM     10  C   UNL     1      -0.386   4.235   0.610  0.00  0.00    +0.284 A 
ATOM     11  O   UNL     1       0.259   3.881  -0.525  0.00  0.00    -0.265 OA
ENDROOT
BRANCH   1  14
ATOM     12  C   UNL     1      -3.504  -0.316   6.214  0.00  0.00    +0.008 A 
ATOM     13  C   UNL     1      -3.083   0.755   5.461  0.00  0.00    +0.017 A 
ATOM     14  C   UNL     1      -2.422   0.513   4.284  0.00  0.00    +0.038 A 
ATOM     15  S   UNL     1      -2.381  -1.271   4.245  0.00  0.00    -0.095 S 
ATOM     16  C   UNL     1      -3.244  -1.577   5.777  0.00  0.00    +0.046 A 
ENDBRANCH   1  14
BRANCH   3  17
ATOM     17  C   UNL     1      -0.017   1.395   0.010  0.00  0.00    +0.418 C 
ATOM     18  F   UNL     1       0.002  -0.004   0.002  0.00  0.00    -0.166 F 
ATOM     19  F   UNL     1       1.296   1.879  -0.000  0.00  0.00    -0.166 F 
ATOM     20  F   UNL     1      -0.694   1.858  -1.124  0.00  0.00    -0.166 F 
ENDBRANCH   3  17
BRANCH   8  21
ATOM     21  S   UNL     1      -1.413   7.587   2.365  0.00  0.00    -0.071 S 
BRANCH  21  22
ATOM     22  C   UNL     1      -0.599   8.292   0.910  0.00  0.00    +0.166 C 
ATOM     23  C   UNL     1      -0.686   9.834   0.940  0.00  0.00    +0.067 C 
ATOM     24  C   UNL     1       0.758  10.249   0.580  0.00  0.00    +0.234 C 
ATOM     25  O   UNL     1       1.580   9.129   1.025  0.00  0.00    -0.464 OA
ATOM     26  C   UNL     1       0.883   7.987   0.936  0.00  0.00    +0.321 C 
ATOM     27  O   UNL     1       1.365   6.881   0.883  0.00  0.00    -0.250 OA
ENDBRANCH  21  22
ENDBRANCH   8  21
TORSDOF 4
