REMARK  Name = ZINC37067280
REMARK  8 active torsions:
REMARK  status: ('A' for Active; 'I' for Inactive)
REMARK    1  A    between atoms: C_1  and  C_2
REMARK    2  A    between atoms: C_7  and  N_8
REMARK    3  A    between atoms: C_12  and  N_20
REMARK    4  A    between atoms: C_13  and  O_15
REMARK    5  A    between atoms: O_15  and  C_16
REMARK    6  A    between atoms: C_16  and  C_17
REMARK    7  A    between atoms: C_16  and  C_18
REMARK    8  A    between atoms: C_16  and  C_19
REMARK                            x       y       z     vdW  Elec       q    Type
REMARK                         _______ _______ _______ _____ _____    ______ ____
ROOT
ATOM      1  N   UNL     1       0.026  -0.015   2.416  0.00  0.00    -0.299 N 
ATOM      2  C   UNL     1      -0.059  -0.719   3.616  0.00  0.00    +0.127 A 
ATOM      3  C   UNL     1      -0.034  -2.107   3.601  0.00  0.00    +0.046 A 
ATOM      4  C   UNL     1      -0.118  -2.799   4.799  0.00  0.00    +0.031 A 
ATOM      5  C   UNL     1      -0.224  -2.072   5.979  0.00  0.00    +0.087 A 
ATOM      6  C   UNL     1      -0.243  -0.681   5.920  0.00  0.00    +0.238 A 
ATOM      7  N   UNL     1      -0.156  -0.054   4.759  0.00  0.00    -0.196 NA
ATOM      8  H   UNL     1       0.093   0.952   2.425  0.00  0.00    +0.154 HD
ENDROOT
BRANCH   1  15
ATOM      9  C   UNL     1      -2.464  -1.007   1.461  0.00  0.00    +0.046 C 
ATOM     10  C   UNL     1      -1.181  -1.206   0.696  0.00  0.00    -0.028 A 
ATOM     11  C   UNL     1      -1.191  -1.881  -0.508  0.00  0.00    +0.020 A 
ATOM     12  C   UNL     1      -0.013  -2.063  -1.211  0.00  0.00    +0.018 A 
ATOM     13  C   UNL     1       1.179  -1.570  -0.709  0.00  0.00    +0.017 A 
ATOM     14  C   UNL     1       1.195  -0.894   0.495  0.00  0.00    +0.024 A 
ATOM     15  C   UNL     1       0.013  -0.705   1.200  0.00  0.00    +0.035 A 
ATOM     16 BR   UNL     1      -0.031  -2.989  -2.860  0.00  0.00    -0.050 Br
ENDBRANCH   1  15
BRANCH   5  17
ATOM     17  N   UNL     1      -0.312  -2.732   7.214  0.00  0.00    -0.354 N 
ATOM     18  H   UNL     1      -0.299  -3.702   7.248  0.00  0.00    +0.142 HD
ATOM     19  H   UNL     1      -0.386  -2.219   8.034  0.00  0.00    +0.142 HD
ENDBRANCH   5  17
BRANCH   6  20
ATOM     20  O   UNL     1      -0.347   0.039   7.066  0.00  0.00    -0.469 OA
BRANCH  20  21
ATOM     21  C   UNL     1      -0.361   1.463   6.939  0.00  0.00    +0.104 C 
ATOM     22  C   UNL     1      -1.552   1.886   6.078  0.00  0.00    +0.055 C 
ATOM     23  C   UNL     1      -0.483   2.098   8.326  0.00  0.00    +0.055 C 
ATOM     24  C   UNL     1       0.938   1.928   6.277  0.00  0.00    +0.055 C 
ENDBRANCH  20  21
ENDBRANCH   6  20
TORSDOF 4
