REMARK  Name = ZINC10690321
REMARK  7 active torsions:
REMARK  status: ('A' for Active; 'I' for Inactive)
REMARK    1  A    between atoms: C_1  and  C_2
REMARK    2  A    between atoms: N_11  and  C_15
REMARK    3  A    between atoms: C_15  and  C_16
REMARK    4  A    between atoms: N_18  and  C_19
REMARK    5  A    between atoms: C_19  and  C_20
REMARK    6  A    between atoms: C_20  and  C_22
REMARK    7  A    between atoms: C_20  and  C_28
REMARK                            x       y       z     vdW  Elec       q    Type
REMARK                         _______ _______ _______ _____ _____    ______ ____
ROOT
ATOM      1  C   UNL     1      -5.340  -1.567  -2.288  0.00  0.00    +0.231 C 
ATOM      2  O   UNL     1      -4.842  -2.241  -3.165  0.00  0.00    -0.274 OA
ATOM      3  N   UNL     1      -4.580  -1.115  -1.271  0.00  0.00    -0.313 N 
ATOM      4  H   UNL     1      -4.978  -0.577  -0.570  0.00  0.00    +0.149 HD
ENDROOT
BRANCH   1   5
ATOM      5  C   UNL     1      -6.809  -1.235  -2.336  0.00  0.00    +0.213 C 
BRANCH   5  15
ATOM      6  C   UNL     1     -10.371  -1.239  -4.977  0.00  0.00    +0.010 C 
ATOM      7  C   UNL     1      -9.489  -1.640  -6.160  0.00  0.00    +0.018 C 
ATOM      8  C   UNL     1      -9.206  -0.410  -7.026  0.00  0.00    +0.006 C 
ATOM      9  C   UNL     1      -8.306  -0.808  -8.198  0.00  0.00    +0.000 C 
ATOM     10  C   UNL     1      -6.983  -1.358  -7.663  0.00  0.00    +0.003 C 
ATOM     11  C   UNL     1      -7.257  -2.593  -6.800  0.00  0.00    +0.035 C 
ATOM     12  C   UNL     1      -8.174  -2.214  -5.643  0.00  0.00    +0.115 C 
ATOM     13  C   UNL     1      -7.494  -1.222  -4.727  0.00  0.00    +0.247 C 
ATOM     14  O   UNL     1      -7.106  -0.109  -5.010  0.00  0.00    -0.273 OA
ATOM     15  N   UNL     1      -7.408  -1.837  -3.530  0.00  0.00    -0.215 N 
ATOM     16  C   UNL     1      -7.942  -3.064  -3.566  0.00  0.00    +0.310 C 
ATOM     17  O   UNL     1      -7.986  -3.811  -2.608  0.00  0.00    -0.252 OA
ATOM     18  N   UNL     1      -8.425  -3.378  -4.783  0.00  0.00    -0.285 N 
ATOM     19  H   UNL     1      -8.854  -4.209  -5.041  0.00  0.00    +0.151 HD
ENDBRANCH   5  15
ENDBRANCH   1   5
BRANCH   3  20
ATOM     20  C   UNL     1      -3.152  -1.438  -1.225  0.00  0.00    +0.117 C 
BRANCH  20  21
ATOM     21  C   UNL     1      -2.527  -0.809   0.022  0.00  0.00    +0.068 C 
BRANCH  21  22
ATOM     22  C   UNL     1      -1.037  -1.037   0.006  0.00  0.00    -0.013 A 
ATOM     23  C   UNL     1      -0.411  -2.224  -0.006  0.00  0.00    +0.088 A 
ATOM     24  N   UNL     1       0.945  -2.036  -0.018  0.00  0.00    -0.360 N 
ATOM     25  H   UNL     1       1.605  -2.746  -0.028  0.00  0.00    +0.165 HD
ATOM     26  C   UNL     1       1.231  -0.689  -0.013  0.00  0.00    +0.047 A 
ATOM     27  C   UNL     1       0.002  -0.004   0.002  0.00  0.00    +0.003 A 
ATOM     28  C   UNL     1      -0.017   1.392   0.010  0.00  0.00    +0.010 A 
ATOM     29  C   UNL     1       1.160   2.086   0.002  0.00  0.00    +0.001 A 
ATOM     30  C   UNL     1       2.375   1.415  -0.013  0.00  0.00    +0.002 A 
ATOM     31  C   UNL     1       2.417   0.038  -0.021  0.00  0.00    +0.026 A 
ENDBRANCH  21  22
BRANCH  21  32
ATOM     32  C   UNL     1      -3.119  -1.442   1.255  0.00  0.00    -0.038 A 
ATOM     33  C   UNL     1      -2.991  -2.803   1.462  0.00  0.00    +0.004 A 
ATOM     34  C   UNL     1      -3.531  -3.383   2.595  0.00  0.00    +0.000 A 
ATOM     35  C   UNL     1      -4.205  -2.603   3.516  0.00  0.00    +0.000 A 
ATOM     36  C   UNL     1      -4.337  -1.244   3.306  0.00  0.00    +0.000 A 
ATOM     37  C   UNL     1      -3.794  -0.663   2.175  0.00  0.00    +0.004 A 
ENDBRANCH  21  32
ENDBRANCH  20  21
ENDBRANCH   3  20
TORSDOF 6
