REMARK  Name = ZINC20518863
REMARK  4 active torsions:
REMARK  status: ('A' for Active; 'I' for Inactive)
REMARK    1  A    between atoms: C_4  and  C_7
REMARK    2  A    between atoms: C_7  and  C_9
REMARK    3  A    between atoms: C_11  and  C_29
REMARK    4  A    between atoms: C_33  and  N_35
REMARK                            x       y       z     vdW  Elec       q    Type
REMARK                         _______ _______ _______ _____ _____    ______ ____
ROOT
ATOM      1  C   UNL     1       3.716  -2.186  -0.046  0.00  0.00    +0.103 C 
ATOM      2  C   UNL     1       3.820  -2.733   1.397  0.00  0.00    +0.050 C 
ATOM      3  C   UNL     1       4.682  -3.993   1.232  0.00  0.00    +0.077 C 
ATOM      4  C   UNL     1       5.393  -4.350   2.545  0.00  0.00    +0.090 C 
ATOM      5  S   UNL     1       7.165  -4.296   2.035  0.00  0.00    -0.144 S 
ATOM      6  C   UNL     1       6.932  -3.313   0.490  0.00  0.00    +0.155 C 
ATOM      7  N   UNL     1       5.574  -3.761   0.090  0.00  0.00    -0.271 NA
ATOM      8  C   UNL     1       4.982  -2.697  -0.742  0.00  0.00    +0.137 C 
ATOM      9  C   UNL     1       5.962  -1.576  -0.967  0.00  0.00    +0.004 A 
ATOM     10  C   UNL     1       6.625  -0.717  -0.120  0.00  0.00    +0.008 A 
ATOM     11  C   UNL     1       7.485   0.237  -0.636  0.00  0.00    +0.000 A 
ATOM     12  C   UNL     1       7.676   0.324  -2.003  0.00  0.00    +0.002 A 
ATOM     13  C   UNL     1       7.015  -0.536  -2.854  0.00  0.00    +0.023 A 
ATOM     14  C   UNL     1       6.148  -1.499  -2.344  0.00  0.00    +0.039 A 
ATOM     15  N   UNL     1       5.376  -2.466  -2.990  0.00  0.00    -0.283 N 
ATOM     16  C   UNL     1       4.664  -3.210  -2.124  0.00  0.00    +0.243 C 
ATOM     17  O   UNL     1       3.910  -4.119  -2.401  0.00  0.00    -0.273 OA
ATOM     18  H   UNL     1       5.356  -2.588  -3.952  0.00  0.00    +0.155 HD
ENDROOT
BRANCH   2  19
ATOM     19  C   UNL     1       2.455  -3.084   1.932  0.00  0.00    -0.040 A 
ATOM     20  C   UNL     1       1.686  -4.038   1.292  0.00  0.00    +0.004 A 
ATOM     21  C   UNL     1       0.435  -4.360   1.783  0.00  0.00    +0.002 A 
ATOM     22  C   UNL     1      -0.048  -3.728   2.914  0.00  0.00    +0.033 A 
ATOM     23  C   UNL     1       0.722  -2.775   3.554  0.00  0.00    +0.126 A 
ATOM     24  C   UNL     1       1.975  -2.456   3.066  0.00  0.00    +0.036 A 
BRANCH  23  25
ATOM     25  N   UNL     1       0.205  -2.098   4.765  0.00  0.00    +0.056 N 
ATOM     26  O   UNL     1      -0.890  -2.379   5.194  0.00  0.00    -0.126 OA
ATOM     27  O   UNL     1       0.878  -1.264   5.325  0.00  0.00    -0.126 OA
ENDBRANCH  23  25
ENDBRANCH   2  19
BRANCH   1  28
ATOM     28  C   UNL     1       3.691  -0.679  -0.038  0.00  0.00    +0.169 C 
ATOM     29  O   UNL     1       4.140  -0.071   0.910  0.00  0.00    -0.292 OA
BRANCH  28  33
ATOM     30  C   UNL     1       2.051   1.433  -3.331  0.00  0.00    +0.000 A 
ATOM     31  C   UNL     1       2.562   2.131  -2.251  0.00  0.00    +0.001 A 
ATOM     32  C   UNL     1       3.097   1.452  -1.176  0.00  0.00    +0.011 A 
ATOM     33  C   UNL     1       3.122   0.053  -1.180  0.00  0.00    +0.018 A 
ATOM     34  C   UNL     1       2.604  -0.645  -2.276  0.00  0.00    +0.011 A 
ATOM     35  C   UNL     1       2.073   0.049  -3.342  0.00  0.00    +0.001 A 
ENDBRANCH  28  33
ENDBRANCH   1  28
TORSDOF 4
