REMARK  Name = ZINC11998630
REMARK  6 active torsions:
REMARK  status: ('A' for Active; 'I' for Inactive)
REMARK    1  A    between atoms: C_4  and  C_8
REMARK    2  A    between atoms: C_8  and  C_10
REMARK    3  A    between atoms: C_8  and  N_55
REMARK    4  A    between atoms: C_10  and  N_11
REMARK    5  A    between atoms: C_12  and  C_14
REMARK    6  A    between atoms: C_17  and  N_20
REMARK                            x       y       z     vdW  Elec       q    Type
REMARK                         _______ _______ _______ _____ _____    ______ ____
ROOT
ATOM      1  N   UNL     1       4.271  -0.248  -0.599  0.00  0.00    -0.313 N 
ATOM      2  C   UNL     1       5.069  -0.956  -1.423  0.00  0.00    +0.244 C 
ATOM      3  O   UNL     1       4.939  -0.857  -2.627  0.00  0.00    -0.270 OA
ATOM      4  H   UNL     1       4.374  -0.328   0.363  0.00  0.00    +0.149 HD
ENDROOT
BRANCH   2   5
ATOM      5  C   UNL     1       6.099  -1.853  -0.862  0.00  0.00    +0.037 A 
ATOM      6  C   UNL     1       6.252  -1.964   0.522  0.00  0.00    +0.015 A 
ATOM      7  C   UNL     1       7.210  -2.806   1.041  0.00  0.00    +0.026 A 
ATOM      8  C   UNL     1       8.032  -3.536   0.189  0.00  0.00    +0.059 A 
ATOM      9  C   UNL     1       7.886  -3.423  -1.190  0.00  0.00    +0.026 A 
ATOM     10  C   UNL     1       6.926  -2.588  -1.716  0.00  0.00    +0.015 A 
BRANCH   8  11
ATOM     11  N   UNL     1       9.005  -4.383   0.719  0.00  0.00    -0.144 N 
ATOM     12  C   UNL     1       9.525  -5.462   0.115  0.00  0.00    +0.240 C 
ATOM     13  O   UNL     1       9.183  -5.771  -1.007  0.00  0.00    -0.274 OA
ATOM     14  C   UNL     1      10.543  -6.276   0.856  0.00  0.00    +0.122 C 
ATOM     15  C   UNL     1      11.122  -5.416   2.011  0.00  0.00    +0.198 C 
ATOM     16  S   UNL     1       9.726  -4.237   2.223  0.00  0.00    +0.052 S 
ATOM     17  O   UNL     1      10.199  -2.899   2.294  0.00  0.00    -0.155 OA
ATOM     18  O   UNL     1       8.777  -4.737   3.154  0.00  0.00    -0.155 OA
ENDBRANCH   8  11
ENDBRANCH   2   5
BRANCH   1  19
ATOM     19  C   UNL     1       3.249   0.642  -1.155  0.00  0.00    +0.094 C 
BRANCH  19  20
ATOM     20  C   UNL     1       2.489   1.321  -0.014  0.00  0.00    -0.016 C 
BRANCH  20  24
ATOM     21  C   UNL     1      -0.253   4.174  -1.629  0.00  0.00    +0.004 A 
ATOM     22  C   UNL     1      -0.110   4.054  -0.259  0.00  0.00    +0.038 A 
ATOM     23  C   UNL     1       0.782   3.134   0.265  0.00  0.00    +0.126 A 
ATOM     24  C   UNL     1       1.522   2.327  -0.583  0.00  0.00    -0.006 A 
ATOM     25  C   UNL     1       1.373   2.445  -1.953  0.00  0.00    +0.045 A 
ATOM     26  C   UNL     1       0.485   3.369  -2.475  0.00  0.00    +0.020 A 
ATOM     27 CL   UNL     1       2.300   1.434  -3.017  0.00  0.00    -0.083 Cl
ATOM     28  F   UNL     1       0.926   3.019   1.603  0.00  0.00    -0.205 F 
ENDBRANCH  20  24
BRANCH  20  33
ATOM     29  C   UNL     1       3.534   3.449   0.539  0.00  0.00    -0.078 C 
ATOM     30  C   UNL     1       4.119   4.073   1.831  0.00  0.00    -0.020 C 
ATOM     31  C   UNL     1       3.432   3.257   2.951  0.00  0.00    -0.020 C 
ATOM     32  C   UNL     1       2.995   1.942   2.280  0.00  0.00    -0.078 C 
ATOM     33  N   UNL     1       3.449   2.023   0.891  0.00  0.00    +0.385 N 
ATOM     34  H   UNL     1       4.374   1.588   0.802  0.00  0.00    -0.081 HD
ENDBRANCH  20  33
ENDBRANCH  19  20
ENDBRANCH   1  19
TORSDOF 6
