REMARK  Name = ZINC63836400
REMARK  9 active torsions:
REMARK  status: ('A' for Active; 'I' for Inactive)
REMARK    1  A    between atoms: C_1  and  C_2
REMARK    2  A    between atoms: C_4  and  C_5
REMARK    3  A    between atoms: N_7  and  C_8
REMARK    4  A    between atoms: C_13  and  C_14
REMARK    5  A    between atoms: N_16  and  C_17
REMARK    6  A    between atoms: C_17  and  C_18
REMARK    7  A    between atoms: C_18  and  N_23
REMARK    8  A    between atoms: N_23  and  C_24
REMARK    9  A    between atoms: N_23  and  C_25
REMARK                            x       y       z     vdW  Elec       q    Type
REMARK                         _______ _______ _______ _____ _____    ______ ____
ROOT
ATOM      1  C   UNL     1       2.522   0.422   4.220  0.00  0.00    +0.046 A 
ATOM      2  C   UNL     1       2.388   1.799   4.100  0.00  0.00    +0.027 A 
ATOM      3  C   UNL     1       2.998   2.635   5.013  0.00  0.00    +0.040 A 
ATOM      4  C   UNL     1       3.749   2.110   6.054  0.00  0.00    +0.124 A 
ATOM      5  C   UNL     1       3.894   0.744   6.187  0.00  0.00    +0.053 A 
ATOM      6  C   UNL     1       3.276  -0.114   5.274  0.00  0.00    +0.061 A 
ATOM      7  F   UNL     1       4.343   2.938   6.941  0.00  0.00    -0.205 F 
ENDROOT
BRANCH   1  10
ATOM      8  C   UNL     1       0.810  -0.010   2.632  0.00  0.00    +0.221 C 
ATOM      9  O   UNL     1       0.299   1.055   2.907  0.00  0.00    -0.275 OA
ATOM     10  N   UNL     1       1.906  -0.424   3.299  0.00  0.00    -0.285 N 
ATOM     11  H   UNL     1       2.265  -1.310   3.139  0.00  0.00    +0.155 HD
BRANCH   8  15
ATOM     12  C   UNL     1      -1.572   1.014   1.264  0.00  0.00    +0.008 C 
ATOM     13  C   UNL     1      -1.023  -0.344   0.824  0.00  0.00    -0.002 C 
ATOM     14  C   UNL     1       0.328  -0.361   0.105  0.00  0.00    +0.017 C 
ATOM     15  C   UNL     1       0.221  -0.870   1.544  0.00  0.00    +0.078 C 
ENDBRANCH   8  15
ENDBRANCH   1  10
BRANCH   6  16
ATOM     16  C   UNL     1       3.421  -1.575   5.414  0.00  0.00    +0.246 C 
ATOM     17  O   UNL     1       2.962  -2.316   4.565  0.00  0.00    -0.270 OA
ATOM     18  N   UNL     1       4.061  -2.090   6.482  0.00  0.00    -0.313 N 
ATOM     19  H   UNL     1       4.427  -1.499   7.159  0.00  0.00    +0.149 HD
BRANCH  18  20
ATOM     20  C   UNL     1       4.205  -3.541   6.621  0.00  0.00    +0.092 C 
BRANCH  20  21
ATOM     21  C   UNL     1       5.071  -3.853   7.844  0.00  0.00    -0.050 C 
ATOM     22  C   UNL     1       6.456  -3.191   7.693  0.00  0.00    -0.010 C 
ATOM     23  C   UNL     1       7.437  -4.221   8.306  0.00  0.00    -0.001 C 
ATOM     24  C   UNL     1       6.842  -5.575   7.848  0.00  0.00    -0.001 C 
ATOM     25  C   UNL     1       5.316  -5.369   7.943  0.00  0.00    -0.010 C 
BRANCH  21  26
ATOM     26  N   UNL     1       4.411  -3.369   9.064  0.00  0.00    +0.381 N 
ATOM     27  C   UNL     1       3.163  -4.115   9.274  0.00  0.00    -0.096 C 
ATOM     28  C   UNL     1       5.301  -3.571  10.215  0.00  0.00    -0.096 C 
ATOM     29  H   UNL     1       4.204  -2.387   8.967  0.00  0.00    -0.082 HD
ENDBRANCH  21  26
ENDBRANCH  20  21
ENDBRANCH  18  20
ENDBRANCH   6  16
TORSDOF 6
