REMARK  Name = ZINC28057920
REMARK  4 active torsions:
REMARK  status: ('A' for Active; 'I' for Inactive)
REMARK    1  A    between atoms: C_1  and  O_2
REMARK    2  A    between atoms: O_2  and  C_3
REMARK    3  A    between atoms: C_8  and  C_9
REMARK    4  A    between atoms: C_20  and  C_22
REMARK                            x       y       z     vdW  Elec       q    Type
REMARK                         _______ _______ _______ _____ _____    ______ ____
ROOT
ATOM      1  C   UNL     1      -2.407  -2.573   0.301  0.00  0.00    +0.177 C 
ATOM      2  C   UNL     1      -1.062  -1.890   0.292  0.00  0.00    +0.026 C 
ATOM      3  C   UNL     1      -0.912  -0.613  -0.067  0.00  0.00    +0.050 C 
ATOM      4  C   UNL     1       0.453  -0.035  -0.065  0.00  0.00    +0.038 A 
ATOM      5  C   UNL     1       0.660   1.339  -0.091  0.00  0.00    +0.013 A 
ATOM      6  C   UNL     1       1.950   1.833  -0.090  0.00  0.00    +0.001 A 
ATOM      7  C   UNL     1       3.030   0.967  -0.063  0.00  0.00    +0.004 A 
ATOM      8  C   UNL     1       2.832  -0.402  -0.037  0.00  0.00    +0.046 A 
ATOM      9  C   UNL     1       1.546  -0.910  -0.037  0.00  0.00    +0.131 A 
ATOM     10  O   UNL     1       1.310  -2.246  -0.010  0.00  0.00    -0.479 OA
ATOM     11  C   UNL     1       0.155  -2.687   0.703  0.00  0.00    +0.234 C 
ATOM     12  N   UNL     1      -1.997   0.192  -0.436  0.00  0.00    -0.282 N 
ATOM     13  C   UNL     1      -3.267  -0.290  -0.167  0.00  0.00    +0.240 A 
ATOM     14  N   UNL     1      -3.471  -1.586   0.186  0.00  0.00    -0.201 N 
ATOM     15  N   UNL     1      -4.846  -1.704   0.387  0.00  0.00    -0.042 NA
ATOM     16  N   UNL     1      -5.354  -0.538   0.150  0.00  0.00    -0.021 NA
ATOM     17  N   UNL     1      -4.429   0.298  -0.177  0.00  0.00    -0.092 NA
ATOM     18  H   UNL     1      -1.820   1.165  -0.918  0.00  0.00    +0.155 HD
ENDROOT
BRANCH  11  19
ATOM     19  C   UNL     1       0.387  -2.511   2.182  0.00  0.00    -0.003 A 
ATOM     20  C   UNL     1       0.955  -1.345   2.658  0.00  0.00    +0.009 A 
ATOM     21  C   UNL     1       1.163  -1.181   4.015  0.00  0.00    +0.020 A 
ATOM     22  C   UNL     1       0.813  -2.189   4.895  0.00  0.00    +0.041 A 
ATOM     23  C   UNL     1       0.250  -3.359   4.417  0.00  0.00    +0.020 A 
ATOM     24  C   UNL     1       0.037  -3.520   3.061  0.00  0.00    +0.009 A 
ATOM     25 CL   UNL     1       1.081  -1.987   6.598  0.00  0.00    -0.084 Cl
ENDBRANCH  11  19
BRANCH   1  31
ATOM     26  C   UNL     1      -2.693  -4.885  -0.628  0.00  0.00    +0.126 A 
ATOM     27  C   UNL     1      -2.767  -5.765  -1.697  0.00  0.00    +0.046 A 
ATOM     28  C   UNL     1      -2.637  -5.293  -2.989  0.00  0.00    +0.004 A 
ATOM     29  C   UNL     1      -2.432  -3.945  -3.216  0.00  0.00    +0.001 A 
ATOM     30  C   UNL     1      -2.364  -3.065  -2.152  0.00  0.00    +0.009 A 
ATOM     31  C   UNL     1      -2.488  -3.532  -0.858  0.00  0.00    +0.023 A 
BRANCH  26  33
ATOM     32  C   UNL     1      -3.029  -6.751   0.807  0.00  0.00    +0.277 C 
ATOM     33  O   UNL     1      -2.820  -5.347   0.644  0.00  0.00    -0.495 OA
ENDBRANCH  26  33
ENDBRANCH   1  31
TORSDOF 3
