REMARK  Name = ZINC43230661
REMARK  10 active torsions:
REMARK  status: ('A' for Active; 'I' for Inactive)
REMARK    1  A    between atoms: C_1  and  C_2
REMARK    2  A    between atoms: C_2  and  N_3
REMARK    3  A    between atoms: N_3  and  C_4
REMARK    4  A    between atoms: N_3  and  C_6
REMARK    5  A    between atoms: C_4  and  C_5
REMARK    6  A    between atoms: C_6  and  C_8
REMARK    7  A    between atoms: C_6  and  C_25
REMARK    8  A    between atoms: C_8  and  N_9
REMARK    9  A    between atoms: N_15  and  C_18
REMARK   10  A    between atoms: C_23  and  O_24
REMARK                            x       y       z     vdW  Elec       q    Type
REMARK                         _______ _______ _______ _____ _____    ______ ____
ROOT
ATOM      1  N   UNL     1      -1.434   0.797  -0.749  0.00  0.00    -0.300 N 
ATOM      2  C   UNL     1      -1.909   1.755  -1.570  0.00  0.00    +0.302 C 
ATOM      3  O   UNL     1      -3.104   1.841  -1.777  0.00  0.00    -0.253 OA
ATOM      4  N   UNL     1      -1.060   2.618  -2.162  0.00  0.00    -0.283 N 
ATOM      5  C   UNL     1       0.394   2.459  -2.010  0.00  0.00    +0.128 C 
ATOM      6  C   UNL     1       1.026   2.383  -3.406  0.00  0.00    +0.124 C 
ATOM      7  N   UNL     1       0.516   3.499  -4.214  0.00  0.00    -0.324 N 
ATOM      8  C   UNL     1      -0.937   3.659  -4.365  0.00  0.00    +0.124 C 
ATOM      9  C   UNL     1      -1.570   3.731  -2.974  0.00  0.00    +0.128 C 
ATOM     10  H   UNL     1      -0.490   0.772  -0.528  0.00  0.00    +0.150 HD
ENDROOT
BRANCH   7  11
ATOM     11  C   UNL     1       1.398   4.395  -4.828  0.00  0.00    +0.072 A 
ATOM     12  C   UNL     1       1.858   4.148  -6.114  0.00  0.00    +0.027 A 
ATOM     13  C   UNL     1       2.729   5.034  -6.718  0.00  0.00    +0.002 A 
ATOM     14  C   UNL     1       3.144   6.169  -6.045  0.00  0.00    +0.004 A 
ATOM     15  C   UNL     1       2.690   6.422  -4.764  0.00  0.00    +0.047 A 
ATOM     16  C   UNL     1       1.813   5.541  -4.153  0.00  0.00    +0.138 A 
BRANCH  16  17
ATOM     17  O   UNL     1       1.361   5.792  -2.895  0.00  0.00    -0.505 OA
ATOM     18  H   UNL     1       1.916   5.419  -2.196  0.00  0.00    +0.292 HD
ENDBRANCH  16  17
ENDBRANCH   7  11
BRANCH   1  19
ATOM     19  C   UNL     1      -2.344  -0.205  -0.190  0.00  0.00    +0.095 C 
BRANCH  19  20
ATOM     20  C   UNL     1      -1.582  -1.090   0.799  0.00  0.00    -0.020 C 
BRANCH  20  21
ATOM     21  C   UNL     1      -2.479  -2.207   1.267  0.00  0.00    -0.059 A 
ATOM     22  C   UNL     1      -3.523  -2.636   0.469  0.00  0.00    +0.002 A 
ATOM     23  C   UNL     1      -4.345  -3.661   0.899  0.00  0.00    +0.000 A 
ATOM     24  C   UNL     1      -4.123  -4.257   2.126  0.00  0.00    +0.000 A 
ATOM     25  C   UNL     1      -3.078  -3.829   2.924  0.00  0.00    +0.000 A 
ATOM     26  C   UNL     1      -2.253  -2.807   2.492  0.00  0.00    +0.002 A 
ENDBRANCH  20  21
BRANCH  20  27
ATOM     27  N   UNL     1      -0.399  -1.656   0.138  0.00  0.00    +0.385 N 
ATOM     28  H   UNL     1       0.164  -0.910  -0.241  0.00  0.00    -0.081 HD
BRANCH  27  30
ATOM     29  C   UNL     1       0.974  -1.458   2.157  0.00  0.00    -0.017 C 
ATOM     30  C   UNL     1       0.391  -2.417   1.116  0.00  0.00    -0.081 C 
ENDBRANCH  27  30
BRANCH  27  31
ATOM     31  C   UNL     1      -0.824  -2.549  -0.948  0.00  0.00    -0.081 C 
ATOM     32  C   UNL     1      -0.980  -1.743  -2.239  0.00  0.00    -0.017 C 
ENDBRANCH  27  31
ENDBRANCH  20  27
ENDBRANCH  19  20
ENDBRANCH   1  19
TORSDOF 8
