REMARK  Name = ZINC40958314
REMARK  6 active torsions:
REMARK  status: ('A' for Active; 'I' for Inactive)
REMARK    1  A    between atoms: C_6  and  C_7
REMARK    2  A    between atoms: C_8  and  C_9
REMARK    3  A    between atoms: N_11  and  C_12
REMARK    4  A    between atoms: N_15  and  C_18
REMARK    5  A    between atoms: C_18  and  C_19
REMARK    6  A    between atoms: C_21  and  C_24
REMARK                            x       y       z     vdW  Elec       q    Type
REMARK                         _______ _______ _______ _____ _____    ______ ____
ROOT
ATOM      1  C   UNL     1      -3.728  -4.962   0.013  0.00  0.00    +0.070 C 
ATOM      2  C   UNL     1      -4.213  -5.134   1.455  0.00  0.00    +0.004 C 
ATOM      3  C   UNL     1      -5.482  -5.988   1.463  0.00  0.00    -0.076 C 
ATOM      4  N   UNL     1      -5.193  -7.305   0.882  0.00  0.00    +0.386 N 
ATOM      5  C   UNL     1      -4.797  -7.154  -0.523  0.00  0.00    -0.076 C 
ATOM      6  C   UNL     1      -3.501  -6.344  -0.607  0.00  0.00    +0.004 C 
ATOM      7  H   UNL     1      -4.443  -7.741   1.397  0.00  0.00    -0.081 HD
ENDROOT
BRANCH   1  10
ATOM      8  C   UNL     1      -2.494  -2.861   0.011  0.00  0.00    +0.237 C 
ATOM      9  O   UNL     1      -3.558  -2.270   0.025  0.00  0.00    -0.271 OA
ATOM     10  N   UNL     1      -2.472  -4.209   0.004  0.00  0.00    -0.309 N 
ATOM     11  H   UNL     1      -1.624  -4.680  -0.007  0.00  0.00    +0.149 HD
BRANCH   8  13
ATOM     12  C   UNL     1      -1.260  -0.761   0.011  0.00  0.00    +0.013 C 
ATOM     13  C   UNL     1      -1.238  -2.109   0.003  0.00  0.00    +0.068 C 
BRANCH  12  19
ATOM     14  C   UNL     1      -0.017   1.395   0.010  0.00  0.00    +0.009 A 
ATOM     15  C   UNL     1       1.169   2.096   0.002  0.00  0.00    +0.020 A 
ATOM     16  C   UNL     1       2.378   1.420  -0.013  0.00  0.00    +0.041 A 
ATOM     17  C   UNL     1       2.405   0.035  -0.021  0.00  0.00    +0.020 A 
ATOM     18  C   UNL     1       1.226  -0.680  -0.014  0.00  0.00    +0.009 A 
ATOM     19  C   UNL     1       0.002  -0.004   0.002  0.00  0.00    -0.025 A 
ATOM     20 CL   UNL     1       3.867   2.312  -0.023  0.00  0.00    -0.084 Cl
ENDBRANCH  12  19
ENDBRANCH   8  13
ENDBRANCH   1  10
BRANCH   4  21
ATOM     21  C   UNL     1      -6.394  -8.148   0.963  0.00  0.00    +0.022 C 
BRANCH  21  22
ATOM     22  C   UNL     1      -6.065  -9.538   0.480  0.00  0.00    +0.211 A 
ATOM     23  N   UNL     1      -5.641 -10.521   1.223  0.00  0.00    -0.193 NA
ATOM     24  C   UNL     1      -5.448 -11.617   0.468  0.00  0.00    +0.202 A 
ATOM     25  N   UNL     1      -5.753 -11.330  -0.773  0.00  0.00    -0.056 NA
ATOM     26  O   UNL     1      -6.165  -9.972  -0.783  0.00  0.00    -0.340 OA
BRANCH  24  27
ATOM     27  C   UNL     1      -4.970 -12.933   0.960  0.00  0.00    +0.023 A 
ATOM     28  C   UNL     1      -4.683 -13.112   2.312  0.00  0.00    +0.013 A 
ATOM     29  C   UNL     1      -4.238 -14.337   2.764  0.00  0.00    +0.021 A 
ATOM     30  C   UNL     1      -4.075 -15.388   1.877  0.00  0.00    +0.041 A 
ATOM     31  C   UNL     1      -4.359 -15.215   0.533  0.00  0.00    +0.021 A 
ATOM     32  C   UNL     1      -4.811 -13.995   0.072  0.00  0.00    +0.013 A 
ATOM     33 CL   UNL     1      -3.515 -16.927   2.453  0.00  0.00    -0.084 Cl
ENDBRANCH  24  27
ENDBRANCH  21  22
ENDBRANCH   4  21
TORSDOF 6
