REMARK  Name = ZINC62824471
REMARK  5 active torsions:
REMARK  status: ('A' for Active; 'I' for Inactive)
REMARK    1  A    between atoms: C_3  and  C_9
REMARK    2  A    between atoms: C_6  and  C_7
REMARK    3  A    between atoms: C_7  and  N_8
REMARK    4  A    between atoms: N_11  and  C_12
REMARK    5  A    between atoms: C_17  and  C_18
REMARK                            x       y       z     vdW  Elec       q    Type
REMARK                         _______ _______ _______ _____ _____    ______ ____
ROOT
ATOM      1  C   UNL     1       3.660   2.150  -0.007  0.00  0.00    +0.248 C 
ATOM      2  O   UNL     1       3.643   3.365  -0.015  0.00  0.00    -0.270 OA
ATOM      3  N   UNL     1       4.836   1.492  -0.023  0.00  0.00    -0.281 N 
ATOM      4  H   UNL     1       4.853   0.525   0.048  0.00  0.00    +0.155 HD
ENDROOT
BRANCH   3   5
ATOM      5  C   UNL     1       6.027   2.201  -0.143  0.00  0.00    +0.048 A 
ATOM      6  C   UNL     1       6.160   3.449   0.453  0.00  0.00    +0.025 A 
ATOM      7  C   UNL     1       7.342   4.150   0.332  0.00  0.00    +0.016 A 
ATOM      8  C   UNL     1       8.405   3.618  -0.381  0.00  0.00    +0.014 A 
ATOM      9  C   UNL     1       8.294   2.382  -0.979  0.00  0.00    +0.031 A 
ATOM     10  C   UNL     1       7.104   1.656  -0.862  0.00  0.00    +0.085 A 
ATOM     11  I   UNL     1      10.191   4.700  -0.552  0.00  0.00    -0.044 I 
BRANCH  10  12
ATOM     12  C   UNL     1       6.979   0.332  -1.492  0.00  0.00    +0.388 C 
ATOM     13  O   UNL     1       7.949  -0.182  -2.033  0.00  0.00    -0.241 OA
ATOM     14  O   UNL     1       5.905  -0.254  -1.476  0.00  0.00    -0.241 OA
ENDBRANCH  10  12
ENDBRANCH   3   5
BRANCH   1  17
ATOM     15  C   UNL     1      -0.010   1.357   0.063  0.00  0.00    +0.002 A 
ATOM     16  C   UNL     1       1.171   2.070   0.038  0.00  0.00    +0.013 A 
ATOM     17  C   UNL     1       2.391   1.392   0.021  0.00  0.00    +0.037 A 
ATOM     18  C   UNL     1       2.407  -0.003   0.030  0.00  0.00    +0.013 A 
ATOM     19  C   UNL     1       1.219  -0.704   0.055  0.00  0.00    +0.002 A 
ATOM     20  C   UNL     1       0.013  -0.026   0.072  0.00  0.00    -0.065 A 
BRANCH  20  21
ATOM     21  C   UNL     1      -1.281  -0.798   0.100  0.00  0.00    -0.051 C 
BRANCH  21  22
ATOM     22  N   UNL     1      -1.726  -1.058  -1.276  0.00  0.00    +0.381 N 
ATOM     23  H   UNL     1      -1.867  -0.181  -1.755  0.00  0.00    -0.090 HD
ATOM     24  H   UNL     1      -1.023  -1.596  -1.760  0.00  0.00    -0.090 HD
ATOM     25  H   UNL     1      -2.592  -1.575  -1.257  0.00  0.00    -0.090 HD
ENDBRANCH  21  22
ENDBRANCH  20  21
ENDBRANCH   1  17
TORSDOF 5
