REMARK  Name = ZINC09835477
REMARK  9 active torsions:
REMARK  status: ('A' for Active; 'I' for Inactive)
REMARK    1  A    between atoms: C_1  and  C_2
REMARK    2  A    between atoms: C_7  and  N_8
REMARK    3  A    between atoms: C_9  and  C_23
REMARK    4  A    between atoms: C_11  and  O_15
REMARK    5  A    between atoms: O_15  and  C_16
REMARK    6  A    between atoms: C_23  and  N_54
REMARK    7  A    between atoms: C_24  and  C_25
REMARK    8  A    between atoms: C_24  and  N_54
REMARK    9  A    between atoms: C_25  and  C_26
REMARK                            x       y       z     vdW  Elec       q    Type
REMARK                         _______ _______ _______ _____ _____    ______ ____
ROOT
ATOM      1  N   UNL     1      -7.377  -0.154   2.628  0.00  0.00    -0.263 N 
ATOM      2  C   UNL     1      -6.223  -1.051   2.715  0.00  0.00    +0.114 C 
ATOM      3  C   UNL     1      -6.547  -1.349   4.179  0.00  0.00    +0.278 C 
ATOM      4  C   UNL     1      -7.685  -0.400   3.915  0.00  0.00    +0.263 C 
ATOM      5  O   UNL     1      -8.580   0.008   4.625  0.00  0.00    -0.271 OA
ENDROOT
BRANCH   1  12
ATOM      6  C   UNL     1      -6.470   2.530   2.368  0.00  0.00    +0.045 C 
ATOM      7  C   UNL     1      -7.520   1.952   1.455  0.00  0.00    -0.029 A 
ATOM      8  C   UNL     1      -8.072   2.730   0.456  0.00  0.00    +0.005 A 
ATOM      9  C   UNL     1      -9.036   2.200  -0.382  0.00  0.00    +0.000 A 
ATOM     10  C   UNL     1      -9.450   0.890  -0.224  0.00  0.00    +0.002 A 
ATOM     11  C   UNL     1      -8.898   0.105   0.770  0.00  0.00    +0.024 A 
ATOM     12  C   UNL     1      -7.934   0.636   1.617  0.00  0.00    +0.040 A 
ENDBRANCH   1  12
BRANCH   3  13
ATOM     13  O   UNL     1      -6.950  -2.697   4.431  0.00  0.00    -0.478 OA
BRANCH  13  14
ATOM     14  C   UNL     1      -6.785  -3.164   5.697  0.00  0.00    +0.122 A 
ATOM     15  C   UNL     1      -6.353  -2.310   6.702  0.00  0.00    +0.047 A 
ATOM     16  C   UNL     1      -6.190  -2.786   7.989  0.00  0.00    +0.023 A 
ATOM     17  C   UNL     1      -6.448  -4.115   8.274  0.00  0.00    +0.041 A 
ATOM     18  C   UNL     1      -6.873  -4.969   7.272  0.00  0.00    +0.023 A 
ATOM     19  C   UNL     1      -7.042  -4.496   5.985  0.00  0.00    +0.047 A 
ATOM     20 CL   UNL     1      -6.237  -4.711   9.890  0.00  0.00    -0.084 Cl
ENDBRANCH  13  14
ENDBRANCH   3  13
BRANCH   2  21
ATOM     21  C   UNL     1      -4.888  -0.328   2.532  0.00  0.00    -0.055 C 
BRANCH  21  22
ATOM     22  N   UNL     1      -4.712   0.010   1.107  0.00  0.00    +0.381 N 
ATOM     23  H   UNL     1      -5.482   0.619   0.806  0.00  0.00    -0.086 HD
ATOM     24  H   UNL     1      -4.720  -0.853   0.551  0.00  0.00    -0.086 HD
BRANCH  22  25
ATOM     25  C   UNL     1      -3.430   0.709   0.901  0.00  0.00    -0.078 C 
BRANCH  25  26
ATOM     26  C   UNL     1      -3.276   1.046  -0.584  0.00  0.00    +0.016 C 
BRANCH  26  27
ATOM     27  C   UNL     1      -1.968   1.761  -0.804  0.00  0.00    -0.049 A 
ATOM     28  C   UNL     1      -0.824   1.038  -1.086  0.00  0.00    +0.005 A 
ATOM     29  C   UNL     1       0.375   1.694  -1.294  0.00  0.00    +0.020 A 
ATOM     30  C   UNL     1       0.431   3.074  -1.213  0.00  0.00    +0.041 A 
ATOM     31  C   UNL     1      -0.713   3.797  -0.925  0.00  0.00    +0.020 A 
ATOM     32  C   UNL     1      -1.911   3.140  -0.717  0.00  0.00    +0.005 A 
ATOM     33 CL   UNL     1       1.937   3.899  -1.475  0.00  0.00    -0.084 Cl
ENDBRANCH  26  27
ENDBRANCH  25  26
ENDBRANCH  22  25
ENDBRANCH  21  22
ENDBRANCH   2  21
TORSDOF 8
