REMARK  Name = ZINC39324711
REMARK  7 active torsions:
REMARK  status: ('A' for Active; 'I' for Inactive)
REMARK    1  A    between atoms: C_4  and  O_31
REMARK    2  A    between atoms: C_5  and  C_7
REMARK    3  A    between atoms: C_10  and  C_21
REMARK    4  A    between atoms: C_16  and  N_20
REMARK    5  A    between atoms: C_17  and  C_18
REMARK    6  A    between atoms: O_31  and  C_32
REMARK    7  A    between atoms: C_32  and  C_33
REMARK                            x       y       z     vdW  Elec       q    Type
REMARK                         _______ _______ _______ _____ _____    ______ ____
ROOT
ATOM      1  C   UNL     1       1.254  -2.234  -0.041  0.00  0.00    +0.105 C 
ATOM      2  C   UNL     1       0.436  -2.756   1.112  0.00  0.00    +0.050 A 
ATOM      3  C   UNL     1       0.704  -2.744   2.427  0.00  0.00    +0.050 A 
ATOM      4  N   UNL     1      -0.338  -3.328   3.063  0.00  0.00    -0.277 N 
ATOM      5  H   UNL     1      -0.419  -3.458   4.021  0.00  0.00    +0.189 HD
ATOM      6  N   UNL     1      -1.280  -3.711   2.096  0.00  0.00    -0.135 NA
ATOM      7  C   UNL     1      -0.822  -3.372   0.927  0.00  0.00    +0.245 A 
ATOM      8  O   UNL     1      -1.369  -3.535  -0.307  0.00  0.00    -0.421 OA
ATOM      9  C   UNL     1      -0.568  -3.340  -1.373  0.00  0.00    +0.201 C 
ATOM     10  C   UNL     1       0.647  -2.752  -1.321  0.00  0.00    +0.098 C 
ENDROOT
BRANCH   3  11
ATOM     11  C   UNL     1       1.943  -2.183   3.077  0.00  0.00    +0.014 C 
ATOM     12  C   UNL     1       3.183  -2.806   2.433  0.00  0.00    +0.016 C 
ATOM     13  C   UNL     1       4.441  -2.237   3.093  0.00  0.00    -0.010 C 
ATOM     14  C   UNL     1       4.423  -2.561   4.588  0.00  0.00    +0.007 C 
ATOM     15  C   UNL     1       3.183  -1.938   5.232  0.00  0.00    -0.010 C 
ATOM     16  C   UNL     1       1.926  -2.508   4.572  0.00  0.00    +0.016 C 
ATOM     17  C   UNL     1       3.217  -0.421   5.040  0.00  0.00    +0.007 C 
ATOM     18  C   UNL     1       3.234  -0.096   3.545  0.00  0.00    -0.010 C 
ATOM     19  C   UNL     1       4.474  -0.719   2.901  0.00  0.00    +0.007 C 
ATOM     20  C   UNL     1       1.976  -0.666   2.885  0.00  0.00    +0.016 C 
ENDBRANCH   3  11
BRANCH   1  25
ATOM     21  C   UNL     1       2.375   1.364  -0.267  0.00  0.00    +0.001 A 
ATOM     22  C   UNL     1       1.190   2.040  -0.039  0.00  0.00    +0.004 A 
ATOM     23  C   UNL     1       0.024   1.336   0.189  0.00  0.00    +0.046 A 
ATOM     24  C   UNL     1       0.042  -0.051   0.189  0.00  0.00    +0.125 A 
ATOM     25  C   UNL     1       1.231  -0.728  -0.041  0.00  0.00    +0.007 A 
ATOM     26  C   UNL     1       2.395  -0.018  -0.268  0.00  0.00    +0.008 A 
BRANCH  24  27
ATOM     27  O   UNL     1      -1.104  -0.747   0.413  0.00  0.00    -0.487 OA
BRANCH  27  28
ATOM     28  C   UNL     1      -2.268   0.012   0.748  0.00  0.00    +0.264 C 
BRANCH  28  29
ATOM     29  C   UNL     1      -3.457  -0.909   0.845  0.00  0.00    -0.010 A 
ATOM     30  C   UNL     1      -4.160  -1.252  -0.295  0.00  0.00    +0.008 A 
ATOM     31  C   UNL     1      -5.251  -2.096  -0.207  0.00  0.00    +0.020 A 
ATOM     32  C   UNL     1      -5.638  -2.599   1.022  0.00  0.00    +0.041 A 
ATOM     33  C   UNL     1      -4.934  -2.256   2.163  0.00  0.00    +0.020 A 
ATOM     34  C   UNL     1      -3.840  -1.416   2.072  0.00  0.00    +0.008 A 
ATOM     35 CL   UNL     1      -7.008  -3.660   1.134  0.00  0.00    -0.084 Cl
ENDBRANCH  28  29
ENDBRANCH  27  28
ENDBRANCH  24  27
ENDBRANCH   1  25
BRANCH   9  36
ATOM     36  N   UNL     1      -1.017  -3.767  -2.598  0.00  0.00    -0.328 N 
ATOM     37  H   UNL     1      -1.885  -4.194  -2.674  0.00  0.00    +0.145 HD
ATOM     38  H   UNL     1      -0.467  -3.643  -3.387  0.00  0.00    +0.145 HD
ENDBRANCH   9  36
BRANCH  10  39
ATOM     39  C   UNL     1       1.393  -2.614  -2.535  0.00  0.00    +0.101 C 
ATOM     40  N   UNL     1       1.985  -2.505  -3.498  0.00  0.00    -0.191 NA
ENDBRANCH  10  39
TORSDOF 7
