REMARK  Name = ZINC16450132
REMARK  6 active torsions:
REMARK  status: ('A' for Active; 'I' for Inactive)
REMARK    1  A    between atoms: C_4  and  C_15
REMARK    2  A    between atoms: C_5  and  C_7
REMARK    3  A    between atoms: C_7  and  S_8
REMARK    4  A    between atoms: S_8  and  C_9
REMARK    5  A    between atoms: C_15  and  S_16
REMARK    6  A    between atoms: S_16  and  C_17
REMARK                            x       y       z     vdW  Elec       q    Type
REMARK                         _______ _______ _______ _____ _____    ______ ____
ROOT
ATOM      1  C   UNL     1      -3.368  -1.237  -1.170  0.00  0.00    +0.000 A 
ATOM      2  C   UNL     1      -4.005  -1.483   0.032  0.00  0.00    +0.000 A 
ATOM      3  C   UNL     1      -3.345  -1.251   1.224  0.00  0.00    +0.005 A 
ATOM      4  C   UNL     1      -2.047  -0.777   1.214  0.00  0.00    -0.033 A 
ATOM      5  C   UNL     1      -1.412  -0.526   0.013  0.00  0.00    -0.033 A 
ATOM      6  C   UNL     1      -2.072  -0.758  -1.180  0.00  0.00    +0.005 A 
ENDROOT
BRANCH   5   7
ATOM      7  C   UNL     1       0.002  -0.004   0.002  0.00  0.00    +0.111 C 
BRANCH   7   8
ATOM      8  S   UNL     1      -0.022   1.810   0.012  0.00  0.00    -0.092 S 
BRANCH   8   9
ATOM      9  C   UNL     1       1.681   2.259  -0.002  0.00  0.00    +0.160 A 
ATOM     10  N   UNL     1       2.750   1.486  -0.017  0.00  0.00    -0.133 NA
ATOM     11  N   UNL     1       4.004   2.051  -0.026  0.00  0.00    -0.125 NA
ATOM     12  C   UNL     1       4.132   3.364  -0.021  0.00  0.00    +0.180 A 
ATOM     13  S   UNL     1       2.423   3.884  -0.008  0.00  0.00    -0.025 S 
ATOM     14  N   UNL     1       5.288   4.136  -0.028  0.00  0.00    -0.336 N 
ATOM     15  H   UNL     1       6.158   3.707  -0.039  0.00  0.00    +0.144 HD
ATOM     16  H   UNL     1       5.224   5.104  -0.023  0.00  0.00    +0.144 HD
ENDBRANCH   8   9
ENDBRANCH   7   8
ENDBRANCH   5   7
BRANCH   4  17
ATOM     17  C   UNL     1      -1.325  -0.529   2.514  0.00  0.00    +0.111 C 
BRANCH  17  18
ATOM     18  S   UNL     1      -1.627   1.175   3.058  0.00  0.00    -0.092 S 
BRANCH  18  19
ATOM     19  C   UNL     1      -0.729   1.306   4.568  0.00  0.00    +0.160 A 
ATOM     20  N   UNL     1       0.002   0.399   5.188  0.00  0.00    -0.133 NA
ATOM     21  N   UNL     1       0.626   0.716   6.372  0.00  0.00    -0.125 NA
ATOM     22  C   UNL     1       0.490   1.924   6.883  0.00  0.00    +0.180 A 
ATOM     23  S   UNL     1      -0.559   2.705   5.667  0.00  0.00    -0.025 S 
ATOM     24  N   UNL     1       1.026   2.451   8.052  0.00  0.00    -0.336 N 
ATOM     25  H   UNL     1       1.589   1.901   8.619  0.00  0.00    +0.144 HD
ATOM     26  H   UNL     1       0.837   3.369   8.302  0.00  0.00    +0.144 HD
ENDBRANCH  18  19
ENDBRANCH  17  18
ENDBRANCH   4  17
TORSDOF 6
