REMARK  Name = ZINC38793343
REMARK  6 active torsions:
REMARK  status: ('A' for Active; 'I' for Inactive)
REMARK    1  A    between atoms: C_4  and  C_7
REMARK    2  A    between atoms: C_7  and  C_8
REMARK    3  A    between atoms: C_8  and  N_9
REMARK    4  A    between atoms: N_9  and  C_10
REMARK    5  A    between atoms: C_10  and  C_11
REMARK    6  A    between atoms: C_16  and  C_18
REMARK                            x       y       z     vdW  Elec       q    Type
REMARK                         _______ _______ _______ _____ _____    ______ ____
ROOT
ATOM      1  N   UNL     1       5.620  -1.626   1.924  0.00  0.00    -0.295 N 
ATOM      2  C   UNL     1       5.764  -2.865   1.415  0.00  0.00    +0.232 C 
ATOM      3  O   UNL     1       6.861  -3.259   1.078  0.00  0.00    -0.274 OA
ENDROOT
BRANCH   2   4
ATOM      4  C   UNL     1       4.562  -3.763   1.264  0.00  0.00    +0.184 C 
ATOM      5  C   UNL     1       4.993  -5.177   1.599  0.00  0.00    +0.004 C 
ATOM      6  C   UNL     1       4.817  -6.128   0.639  0.00  0.00    -0.007 A 
ATOM      7  C   UNL     1       5.206  -7.519   0.878  0.00  0.00    +0.009 A 
ATOM      8  C   UNL     1       5.013  -8.432  -0.108  0.00  0.00    +0.001 A 
ATOM      9  C   UNL     1       4.455  -8.070  -1.334  0.00  0.00    +0.002 A 
ATOM     10  C   UNL     1       4.073  -6.797  -1.619  0.00  0.00    +0.024 A 
ATOM     11  C   UNL     1       4.230  -5.775  -0.665  0.00  0.00    +0.040 A 
ATOM     12  N   UNL     1       3.852  -4.530  -0.955  0.00  0.00    -0.284 N 
ATOM     13  C   UNL     1       3.974  -3.523  -0.108  0.00  0.00    +0.233 C 
ATOM     14  O   UNL     1       3.611  -2.407  -0.430  0.00  0.00    -0.274 OA
ATOM     15  H   UNL     1       3.471  -4.354  -1.830  0.00  0.00    +0.155 HD
ENDBRANCH   2   4
BRANCH   1  16
ATOM     16  C   UNL     1       4.301  -1.164   2.365  0.00  0.00    +0.113 C 
BRANCH  16  17
ATOM     17  C   UNL     1       3.756  -0.146   1.362  0.00  0.00    +0.054 C 
BRANCH  17  21
ATOM     18  C   UNL     1      -0.235   0.926   2.445  0.00  0.00    +0.000 A 
ATOM     19  C   UNL     1       0.826   1.715   2.848  0.00  0.00    +0.000 A 
ATOM     20  C   UNL     1       2.117   1.368   2.498  0.00  0.00    +0.004 A 
ATOM     21  C   UNL     1       2.348   0.232   1.745  0.00  0.00    -0.046 A 
ATOM     22  C   UNL     1       1.287  -0.558   1.342  0.00  0.00    +0.004 A 
ATOM     23  C   UNL     1      -0.005  -0.210   1.691  0.00  0.00    +0.000 A 
ENDBRANCH  17  21
ENDBRANCH  16  17
ENDBRANCH   1  16
BRANCH   1  24
ATOM     24  C   UNL     1       6.781  -0.741   2.036  0.00  0.00    +0.150 C 
BRANCH  24  25
ATOM     25  C   UNL     1       7.455  -0.962   3.366  0.00  0.00    +0.007 A 
ATOM     26  C   UNL     1       8.493  -1.778   3.672  0.00  0.00    +0.013 A 
ATOM     27  C   UNL     1       8.952  -1.820   4.975  0.00  0.00    +0.008 A 
ATOM     28  C   UNL     1       8.350  -1.043   5.909  0.00  0.00    +0.045 A 
ATOM     29  S   UNL     1       7.098  -0.211   4.946  0.00  0.00    -0.100 S 
ENDBRANCH  24  25
ENDBRANCH   1  24
TORSDOF 6
