REMARK  Name = ZINC20417616
REMARK  10 active torsions:
REMARK  status: ('A' for Active; 'I' for Inactive)
REMARK    1  A    between atoms: C_1  and  C_2
REMARK    2  A    between atoms: C_2  and  O_3
REMARK    3  A    between atoms: O_3  and  C_4
REMARK    4  A    between atoms: C_4  and  C_6
REMARK    5  A    between atoms: C_12  and  C_14
REMARK    6  A    between atoms: C_14  and  N_15
REMARK    7  A    between atoms: C_19  and  C_34
REMARK    8  A    between atoms: N_20  and  C_26
REMARK    9  A    between atoms: C_21  and  C_25
REMARK   10  A    between atoms: C_26  and  C_27
REMARK                            x       y       z     vdW  Elec       q    Type
REMARK                         _______ _______ _______ _____ _____    ______ ____
ROOT
ATOM      1  N   UNL     1       5.696   0.960   1.633  0.00  0.00    -0.220 N 
ATOM      2  C   UNL     1       4.621   0.184   1.381  0.00  0.00    +0.277 A 
ATOM      3  O   UNL     1       4.694  -1.028   1.476  0.00  0.00    -0.265 OA
ATOM      4  C   UNL     1       3.364   0.828   0.993  0.00  0.00    +0.070 A 
ATOM      5  C   UNL     1       2.110   0.421   0.670  0.00  0.00    +0.029 A 
ATOM      6  N   UNL     1       1.361   1.510   0.396  0.00  0.00    -0.343 N 
ATOM      7  C   UNL     1       2.097   2.647   0.525  0.00  0.00    +0.026 A 
ATOM      8  C   UNL     1       3.354   2.306   0.900  0.00  0.00    +0.028 A 
ATOM      9  C   UNL     1       4.598   3.018   1.202  0.00  0.00    +0.143 A 
ATOM     10  N   UNL     1       5.659   2.349   1.538  0.00  0.00    -0.176 NA
ATOM     11  C   UNL     1       1.598   4.051   0.294  0.00  0.00    +0.064 C 
ATOM     12  C   UNL     1       1.634  -1.008   0.625  0.00  0.00    +0.064 C 
ENDROOT
BRANCH   1  13
ATOM     13  C   UNL     1       6.953   0.316   2.021  0.00  0.00    +0.243 C 
BRANCH  13  20
ATOM     14  C   UNL     1      11.772  -0.785   1.194  0.00  0.00    +0.101 C 
ATOM     15  C   UNL     1      11.163  -0.282  -0.117  0.00  0.00    +0.033 C 
ATOM     16  C   UNL     1       9.767  -0.888  -0.293  0.00  0.00    +0.108 C 
ATOM     17  N   UNL     1       8.966  -0.586   0.901  0.00  0.00    -0.300 N 
ATOM     18  C   UNL     1       9.503  -0.941   2.221  0.00  0.00    +0.108 C 
ATOM     19  C   UNL     1      10.899  -0.339   2.369  0.00  0.00    +0.033 C 
ATOM     20  C   UNL     1       7.763   0.012   0.787  0.00  0.00    +0.237 C 
ATOM     21  O   UNL     1       7.333   0.305  -0.309  0.00  0.00    -0.274 OA
BRANCH  14  22
ATOM     22  C   UNL     1      13.158  -0.217   1.354  0.00  0.00    +0.310 C 
ATOM     23  O   UNL     1      13.613   0.515   0.507  0.00  0.00    -0.251 OA
BRANCH  22  24
ATOM     24  O   UNL     1      13.889  -0.524   2.438  0.00  0.00    -0.465 OA
BRANCH  24  26
ATOM     25  C   UNL     1      15.891  -0.403   3.819  0.00  0.00    +0.048 C 
ATOM     26  C   UNL     1      15.216   0.059   2.526  0.00  0.00    +0.229 C 
ENDBRANCH  24  26
ENDBRANCH  22  24
ENDBRANCH  14  22
ENDBRANCH  13  20
ENDBRANCH   1  13
BRANCH   6  27
ATOM     27  C   UNL     1      -0.051   1.472   0.006  0.00  0.00    +0.158 C 
BRANCH  27  28
ATOM     28  C   UNL     1      -0.910   1.355   1.239  0.00  0.00    -0.009 A 
ATOM     29  C   UNL     1      -0.337   1.460   2.493  0.00  0.00    +0.007 A 
ATOM     30  C   UNL     1      -1.124   1.351   3.624  0.00  0.00    +0.000 A 
ATOM     31  C   UNL     1      -2.485   1.139   3.502  0.00  0.00    +0.001 A 
ATOM     32  C   UNL     1      -3.059   1.035   2.249  0.00  0.00    +0.020 A 
ATOM     33  C   UNL     1      -2.272   1.148   1.117  0.00  0.00    +0.046 A 
ATOM     34 CL   UNL     1      -2.993   1.024  -0.458  0.00  0.00    -0.083 Cl
ENDBRANCH  27  28
ENDBRANCH   6  27
TORSDOF 7
