REMARK  Name = ZINC11666991
REMARK  8 active torsions:
REMARK  status: ('A' for Active; 'I' for Inactive)
REMARK    1  A    between atoms: C_4  and  C_7
REMARK    2  A    between atoms: C_12  and  O_18
REMARK    3  A    between atoms: O_18  and  C_19
REMARK    4  A    between atoms: C_21  and  O_34
REMARK    5  A    between atoms: C_23  and  O_33
REMARK    6  A    between atoms: C_25  and  O_32
REMARK    7  A    between atoms: C_27  and  C_30
REMARK    8  A    between atoms: C_30  and  O_31
REMARK                            x       y       z     vdW  Elec       q    Type
REMARK                         _______ _______ _______ _____ _____    ______ ____
ROOT
ATOM      1  C   UNL     1      -0.070   5.327   0.029  0.00  0.00    +0.064 A 
ATOM      2  C   UNL     1       0.680   6.025   0.921  0.00  0.00    +0.208 A 
ATOM      3  O   UNL     1       0.691   7.360   0.961  0.00  0.00    -0.462 OA
ATOM      4  C   UNL     1      -0.035   8.131   0.127  0.00  0.00    +0.142 A 
ATOM      5  C   UNL     1       0.020   9.516   0.219  0.00  0.00    +0.092 A 
ATOM      6  C   UNL     1      -0.733  10.293  -0.644  0.00  0.00    +0.128 A 
ATOM      7  C   UNL     1      -1.546   9.700  -1.607  0.00  0.00    +0.047 A 
ATOM      8  C   UNL     1      -1.611   8.339  -1.711  0.00  0.00    +0.019 A 
ATOM      9  C   UNL     1      -0.859   7.542  -0.848  0.00  0.00    +0.065 A 
ATOM     10  C   UNL     1      -0.899   6.071  -0.934  0.00  0.00    +0.200 A 
ATOM     11  O   UNL     1      -1.589   5.498  -1.760  0.00  0.00    -0.286 OA
ENDROOT
BRANCH   1  15
ATOM     12  C   UNL     1      -0.013   1.076   0.008  0.00  0.00    +0.000 A 
ATOM     13  C   UNL     1      -1.221   1.748   0.017  0.00  0.00    +0.001 A 
ATOM     14  C   UNL     1      -1.246   3.128   0.030  0.00  0.00    +0.009 A 
ATOM     15  C   UNL     1      -0.050   3.844   0.022  0.00  0.00    -0.011 A 
ATOM     16  C   UNL     1       1.165   3.161   0.007  0.00  0.00    +0.009 A 
ATOM     17  C   UNL     1       1.177   1.781   0.000  0.00  0.00    +0.001 A 
ENDBRANCH   1  15
BRANCH   6  18
ATOM     18  O   UNL     1      -0.678  11.647  -0.552  0.00  0.00    -0.461 OA
BRANCH  18  19
ATOM     19  C   UNL     1      -1.477  12.393  -1.472  0.00  0.00    +0.339 C 
ATOM     20  C   UNL     1      -1.103  13.875  -1.388  0.00  0.00    +0.214 C 
ATOM     21  C   UNL     1      -2.005  14.675  -2.333  0.00  0.00    +0.180 C 
ATOM     22  C   UNL     1      -3.469  14.423  -1.958  0.00  0.00    +0.177 C 
ATOM     23  C   UNL     1      -3.752  12.919  -2.020  0.00  0.00    +0.179 C 
ATOM     24  O   UNL     1      -2.858  12.232  -1.142  0.00  0.00    -0.331 OA
BRANCH  22  25
ATOM     25  O   UNL     1      -3.714  14.901  -0.634  0.00  0.00    -0.386 OA
ATOM     26  H   UNL     1      -3.555  15.848  -0.522  0.00  0.00    +0.210 HD
ENDBRANCH  22  25
BRANCH  21  27
ATOM     27  O   UNL     1      -1.777  14.257  -3.680  0.00  0.00    -0.386 OA
ATOM     28  H   UNL     1      -0.869  14.388  -3.984  0.00  0.00    +0.210 HD
ENDBRANCH  21  27
BRANCH  20  29
ATOM     29  O   UNL     1       0.262  14.045  -1.773  0.00  0.00    -0.383 OA
ATOM     30  H   UNL     1       0.890  13.561  -1.220  0.00  0.00    +0.210 HD
ENDBRANCH  20  29
BRANCH  23  31
ATOM     31  C   UNL     1      -5.196  12.654  -1.590  0.00  0.00    +0.190 C 
BRANCH  31  32
ATOM     32  O   UNL     1      -5.495  11.266  -1.757  0.00  0.00    -0.392 OA
ATOM     33  H   UNL     1      -6.396  11.025  -1.503  0.00  0.00    +0.210 HD
ENDBRANCH  31  32
ENDBRANCH  23  31
ENDBRANCH  18  19
ENDBRANCH   6  18
TORSDOF 8
