REMARK  Name = ZINC21969365
REMARK  9 active torsions:
REMARK  status: ('A' for Active; 'I' for Inactive)
REMARK    1  A    between atoms: C_1  and  C_2
REMARK    2  A    between atoms: C_2  and  C_3
REMARK    3  A    between atoms: C_2  and  C_4
REMARK    4  A    between atoms: C_2  and  C_5
REMARK    5  A    between atoms: C_12  and  C_14
REMARK    6  A    between atoms: N_16  and  N_17
REMARK    7  A    between atoms: C_18  and  C_20
REMARK    8  A    between atoms: C_20  and  N_21
REMARK    9  A    between atoms: C_22  and  C_24
REMARK                            x       y       z     vdW  Elec       q    Type
REMARK                         _______ _______ _______ _____ _____    ______ ____
ROOT
ATOM      1  C   UNL     1       2.278   4.283   0.003  0.00  0.00    +0.267 C 
ATOM      2  O   UNL     1       3.341   3.689  -0.010  0.00  0.00    -0.268 OA
ATOM      3  N   UNL     1       1.121   3.593   0.011  0.00  0.00    -0.230 N 
ATOM      4  H   UNL     1       0.161   4.130   0.023  0.00  0.00    +0.173 HD
ENDROOT
BRANCH   1  11
ATOM      5  C   UNL     1       3.516  10.387  -0.438  0.00  0.00    -0.001 C 
ATOM      6  C   UNL     1       2.286  10.709   0.416  0.00  0.00    +0.009 C 
ATOM      7  C   UNL     1       1.159   9.735   0.045  0.00  0.00    +0.043 C 
ATOM      8  C   UNL     1       1.720   8.347   0.031  0.00  0.00    -0.006 A 
ATOM      9  C   UNL     1       3.039   7.992   0.016  0.00  0.00    -0.036 A 
ATOM     10  C   UNL     1       3.320   6.635   0.006  0.00  0.00    +0.024 A 
ATOM     11  C   UNL     1       2.259   5.749   0.011  0.00  0.00    +0.076 A 
ATOM     12  S   UNL     1       0.858   6.855   0.023  0.00  0.00    -0.088 S 
ATOM     13  C   UNL     1       4.129   9.060   0.010  0.00  0.00    +0.040 C 
BRANCH   5  15
ATOM     14  C   UNL     1       5.774  11.189  -1.143  0.00  0.00    +0.011 C 
ATOM     15  C   UNL     1       4.550  11.504  -0.282  0.00  0.00    -0.035 C 
ATOM     16  C   UNL     1       3.938  12.832  -0.730  0.00  0.00    +0.011 C 
ATOM     17  C   UNL     1       4.971  11.606   1.186  0.00  0.00    +0.011 C 
ENDBRANCH   5  15
ENDBRANCH   1  11
BRANCH   3  18
ATOM     18  N   UNL     1       1.139   2.192   0.003  0.00  0.00    -0.233 N 
ATOM     19  C   UNL     1      -0.018   1.503   0.010  0.00  0.00    +0.246 C 
ATOM     20  O   UNL     1      -1.077   2.095   0.018  0.00  0.00    -0.273 OA
ATOM     21  H   UNL     1       2.099   1.655  -0.009  0.00  0.00    +0.173 HD
BRANCH  19  22
ATOM     22  C   UNL     1       0.002  -0.004   0.002  0.00  0.00    +0.202 C 
BRANCH  22  23
ATOM     23  N   UNL     1      -1.372  -0.511   0.012  0.00  0.00    -0.300 N 
ATOM     24  C   UNL     1      -1.601  -1.839   0.007  0.00  0.00    +0.280 C 
ATOM     25  O   UNL     1      -0.665  -2.618  -0.006  0.00  0.00    -0.267 OA
ATOM     26  H   UNL     1      -2.218   0.192   0.024  0.00  0.00    +0.150 HD
BRANCH  24  27
ATOM     27  C   UNL     1      -2.975  -2.347   0.018  0.00  0.00    +0.191 A 
ATOM     28  C   UNL     1      -3.346  -3.662   0.014  0.00  0.00    +0.056 A 
ATOM     29  C   UNL     1      -4.748  -3.686   0.028  0.00  0.00    +0.058 A 
ATOM     30  C   UNL     1      -5.169  -2.400   0.038  0.00  0.00    +0.171 A 
ATOM     31  O   UNL     1      -4.097  -1.597   0.038  0.00  0.00    -0.444 OA
ATOM     32 BR   UNL     1      -6.972  -1.831   0.059  0.00  0.00    -0.008 Br
ENDBRANCH  24  27
ENDBRANCH  22  23
ENDBRANCH  19  22
ENDBRANCH   3  18
TORSDOF 6
