REMARK  Name = ZINC39353392
REMARK  8 active torsions:
REMARK  status: ('A' for Active; 'I' for Inactive)
REMARK    1  A    between atoms: C_1  and  C_2
REMARK    2  A    between atoms: C_2  and  C_3
REMARK    3  A    between atoms: N_6  and  C_17
REMARK    4  A    between atoms: C_10  and  O_15
REMARK    5  A    between atoms: O_15  and  C_16
REMARK    6  A    between atoms: C_17  and  C_18
REMARK    7  A    between atoms: N_20  and  C_21
REMARK    8  A    between atoms: C_21  and  C_22
REMARK                            x       y       z     vdW  Elec       q    Type
REMARK                         _______ _______ _______ _____ _____    ______ ____
ROOT
ATOM      1  C   UNL     1      -1.433  -0.534   0.013  0.00  0.00    +0.157 C 
ATOM      2  C   UNL     1      -1.407  -2.040   0.145  0.00  0.00    -0.033 C 
ATOM      3  N   UNL     1      -2.724  -2.645   0.311  0.00  0.00    +0.391 N 
ATOM      4  C   UNL     1      -3.512  -2.548  -0.922  0.00  0.00    -0.038 C 
ATOM      5  C   UNL     1      -4.202  -1.198  -0.955  0.00  0.00    -0.019 A 
ATOM      6  C   UNL     1      -5.574  -1.119  -0.825  0.00  0.00    +0.051 A 
ATOM      7  C   UNL     1      -6.198   0.120  -0.873  0.00  0.00    +0.121 A 
ATOM      8  C   UNL     1      -5.444   1.270  -1.053  0.00  0.00    +0.049 A 
ATOM      9  C   UNL     1      -4.070   1.187  -1.178  0.00  0.00    +0.049 A 
ATOM     10  C   UNL     1      -3.448  -0.053  -1.121  0.00  0.00    +0.122 A 
ATOM     11  O   UNL     1      -2.090  -0.141  -1.199  0.00  0.00    -0.490 OA
ATOM     12  H   UNL     1      -3.214  -2.171   1.055  0.00  0.00    -0.081 HD
ENDROOT
BRANCH   1  14
ATOM     13  C   UNL     1      -0.019   1.526   0.010  0.00  0.00    +0.007 C 
ATOM     14  C   UNL     1       0.002  -0.004   0.002  0.00  0.00    +0.039 C 
ENDBRANCH   1  14
BRANCH   7  15
ATOM     15  O   UNL     1      -7.549   0.206  -0.743  0.00  0.00    -0.495 OA
ATOM     16  C   UNL     1      -8.124   1.513  -0.802  0.00  0.00    +0.277 C 
ENDBRANCH   7  15
BRANCH   3  17
ATOM     17  C   UNL     1      -2.562  -4.060   0.669  0.00  0.00    +0.019 C 
BRANCH  17  18
ATOM     18  C   UNL     1      -3.912  -4.662   0.963  0.00  0.00    +0.197 C 
ATOM     19  O   UNL     1      -4.911  -3.979   0.882  0.00  0.00    -0.278 OA
ATOM     20  N   UNL     1      -4.010  -5.959   1.315  0.00  0.00    -0.314 N 
ATOM     21  H   UNL     1      -3.211  -6.505   1.380  0.00  0.00    +0.149 HD
BRANCH  20  22
ATOM     22  C   UNL     1      -5.322  -6.544   1.601  0.00  0.00    +0.137 C 
BRANCH  22  23
ATOM     23  C   UNL     1      -5.153  -8.018   1.973  0.00  0.00    +0.173 C 
ATOM     24  C   UNL     1      -6.455  -8.602   2.454  0.00  0.00    -0.019 C 
ATOM     25  C   UNL     1      -6.236  -8.965   3.709  0.00  0.00    +0.065 C 
ATOM     26  C   UNL     1      -7.292  -9.596   4.607  0.00  0.00    +0.057 C 
ATOM     27  C   UNL     1      -8.394  -8.547   4.811  0.00  0.00    +0.006 C 
ATOM     28  C   UNL     1      -9.329  -8.496   3.628  0.00  0.00    +0.001 C 
ATOM     29  C   UNL     1      -8.792  -7.862   2.368  0.00  0.00    +0.004 C 
ATOM     30  C   UNL     1      -7.755  -8.778   1.697  0.00  0.00    +0.035 C 
ATOM     31  N   UNL     1      -4.957  -8.689   4.055  0.00  0.00    -0.158 NA
ATOM     32  N   UNL     1      -4.281  -8.165   3.156  0.00  0.00    -0.178 NA
ENDBRANCH  22  23
ENDBRANCH  20  22
ENDBRANCH  17  18
ENDBRANCH   3  17
TORSDOF 6
