REMARK  Name = ZINC19953893
REMARK  7 active torsions:
REMARK  status: ('A' for Active; 'I' for Inactive)
REMARK    1  A    between atoms: C_1  and  N_2
REMARK    2  A    between atoms: C_3  and  C_5
REMARK    3  A    between atoms: C_8  and  N_20
REMARK    4  A    between atoms: N_11  and  C_12
REMARK    5  A    between atoms: C_12  and  C_13
REMARK    6  A    between atoms: N_20  and  C_21
REMARK    7  A    between atoms: C_21  and  C_22
REMARK                            x       y       z     vdW  Elec       q    Type
REMARK                         _______ _______ _______ _____ _____    ______ ____
ROOT
ATOM      1  C   UNL     1       5.502  -0.744  -3.198  0.00  0.00    +0.021 C 
ATOM      2  C   UNL     1       4.888   0.616  -2.815  0.00  0.00    +0.010 C 
ATOM      3  C   UNL     1       4.184   0.373  -1.460  0.00  0.00    +0.036 C 
ATOM      4  C   UNL     1       3.957  -1.159  -1.452  0.00  0.00    -0.059 C 
ATOM      5  N   UNL     1       5.186  -1.687  -2.103  0.00  0.00    +0.391 N 
ATOM      6  H   UNL     1       6.021  -1.770  -1.392  0.00  0.00    -0.080 HD
ENDROOT
BRANCH   1   9
ATOM      7  C   UNL     1       8.962   0.349  -4.419  0.00  0.00    +0.128 C 
ATOM      8  N   UNL     1       7.510   0.218  -4.276  0.00  0.00    -0.320 N 
ATOM      9  C   UNL     1       6.996  -0.610  -3.345  0.00  0.00    +0.199 C 
ATOM     10  O   UNL     1       7.735  -1.247  -2.626  0.00  0.00    -0.278 OA
ATOM     11  H   UNL     1       6.838   0.796  -4.928  0.00  0.00    +0.148 HD
ENDBRANCH   1   9
BRANCH   3  12
ATOM     12  N   UNL     1       2.903   1.089  -1.405  0.00  0.00    -0.311 NA
ATOM     13  H   UNL     1       3.004   2.062  -1.909  0.00  0.00    +0.122 HD
BRANCH  12  14
ATOM     14  C   UNL     1       2.488   1.321  -0.015  0.00  0.00    +0.122 C 
BRANCH  14  15
ATOM     15  C   UNL     1       1.173   2.055   0.002  0.00  0.00    +0.037 A 
ATOM     16  C   UNL     1       1.153   3.439   0.009  0.00  0.00    +0.131 A 
ATOM     17  C   UNL     1      -0.057   4.114   0.024  0.00  0.00    +0.039 A 
ATOM     18  C   UNL     1      -1.244   3.405   0.031  0.00  0.00    +0.006 A 
ATOM     19  C   UNL     1      -1.225   2.023   0.019  0.00  0.00    +0.039 A 
ATOM     20  C   UNL     1      -0.016   1.347   0.009  0.00  0.00    +0.131 A 
ATOM     21  F   UNL     1       0.002  -0.004   0.002  0.00  0.00    -0.205 F 
ATOM     22  F   UNL     1       2.312   4.132   0.001  0.00  0.00    -0.205 F 
ENDBRANCH  14  15
ENDBRANCH  12  14
ENDBRANCH   3  12
BRANCH   5  23
ATOM     23  C   UNL     1       4.967  -3.043  -2.623  0.00  0.00    -0.042 C 
BRANCH  23  24
ATOM     24  C   UNL     1       4.412  -3.917  -1.528  0.00  0.00    -0.063 A 
ATOM     25  C   UNL     1       3.044  -4.014  -1.348  0.00  0.00    +0.002 A 
ATOM     26  C   UNL     1       2.534  -4.816  -0.344  0.00  0.00    +0.002 A 
ATOM     27  C   UNL     1       3.391  -5.521   0.481  0.00  0.00    +0.020 A 
ATOM     28  C   UNL     1       4.759  -5.423   0.301  0.00  0.00    +0.041 A 
ATOM     29  C   UNL     1       5.269  -4.625  -0.707  0.00  0.00    +0.021 A 
ATOM     30 CL   UNL     1       5.836  -6.309   1.336  0.00  0.00    -0.084 Cl
ENDBRANCH  23  24
ENDBRANCH   5  23
TORSDOF 6
