REMARK  Name = ZINC37264045
REMARK  14 active torsions:
REMARK  status: ('A' for Active; 'I' for Inactive)
REMARK    1  A    between atoms: C_1  and  C_2
REMARK    2  A    between atoms: C_2  and  C_3
REMARK    3  A    between atoms: C_3  and  C_5
REMARK    4  A    between atoms: C_3  and  N_6
REMARK    5  A    between atoms: C_7  and  C_9
REMARK    6  A    between atoms: C_9  and  N_10
REMARK    7  A    between atoms: C_13  and  C_24
REMARK    8  A    between atoms: N_15  and  C_16
REMARK    9  A    between atoms: C_19  and  C_23
REMARK   10  A    between atoms: C_21  and  C_22
REMARK   11  A    between atoms: C_24  and  C_25
REMARK   12  A    between atoms: C_24  and  C_26
REMARK   13  A    between atoms: C_24  and  C_27
REMARK   14  A    between atoms: C_28  and  C_34
REMARK                            x       y       z     vdW  Elec       q    Type
REMARK                         _______ _______ _______ _____ _____    ______ ____
ROOT
ATOM      1  N   UNL     1      -4.073  -2.991  -1.909  0.00  0.00    -0.246 N 
ATOM      2  C   UNL     1      -5.391  -3.080  -2.382  0.00  0.00    +0.136 A 
ATOM      3  C   UNL     1      -6.484  -2.935  -1.599  0.00  0.00    +0.034 A 
ATOM      4  C   UNL     1      -7.613  -3.079  -2.407  0.00  0.00    +0.075 A 
ATOM      5  N   UNL     1      -7.213  -3.306  -3.635  0.00  0.00    -0.169 NA
ATOM      6  N   UNL     1      -5.809  -3.315  -3.649  0.00  0.00    -0.217 N 
ATOM      7  C   UNL     1      -6.451  -2.672  -0.115  0.00  0.00    +0.112 C 
ATOM      8  S   UNL     1      -5.936  -0.938   0.157  0.00  0.00    -0.138 S 
ATOM      9  C   UNL     1      -4.619  -0.737  -1.089  0.00  0.00    +0.166 C 
ATOM     10  C   UNL     1      -3.744  -1.955  -1.131  0.00  0.00    +0.231 C 
ATOM     11  O   UNL     1      -2.735  -1.999  -0.461  0.00  0.00    -0.274 OA
ENDROOT
BRANCH   6  12
ATOM     12  C   UNL     1      -4.991  -3.526  -4.767  0.00  0.00    +0.070 A 
ATOM     13  C   UNL     1      -3.935  -2.664  -5.030  0.00  0.00    +0.028 A 
ATOM     14  C   UNL     1      -3.131  -2.876  -6.133  0.00  0.00    +0.005 A 
ATOM     15  C   UNL     1      -3.377  -3.945  -6.975  0.00  0.00    -0.050 A 
ATOM     16  C   UNL     1      -4.428  -4.804  -6.716  0.00  0.00    +0.008 A 
ATOM     17  C   UNL     1      -5.232  -4.602  -5.612  0.00  0.00    -0.025 A 
ATOM     18  C   UNL     1      -6.374  -5.543  -5.327  0.00  0.00    +0.046 C 
ATOM     19  C   UNL     1      -2.498  -4.172  -8.178  0.00  0.00    +0.044 C 
ENDBRANCH   6  12
BRANCH   7  20
ATOM     20  C   UNL     1      -7.822  -2.894   0.469  0.00  0.00    -0.023 A 
ATOM     21  C   UNL     1      -8.146  -4.101   1.060  0.00  0.00    +0.012 A 
ATOM     22  C   UNL     1      -9.388  -4.268   1.576  0.00  0.00    +0.045 A 
ATOM     23  S   UNL     1     -10.147  -2.689   1.231  0.00  0.00    -0.105 S 
ATOM     24  C   UNL     1      -8.755  -1.911   0.428  0.00  0.00    +0.050 A 
ENDBRANCH   7  20
BRANCH   4  25
ATOM     25  C   UNL     1      -9.046  -2.990  -1.947  0.00  0.00    +0.007 C 
ATOM     26  C   UNL     1      -9.328  -1.578  -1.429  0.00  0.00    +0.017 C 
ATOM     27  C   UNL     1      -9.978  -3.298  -3.121  0.00  0.00    +0.017 C 
ATOM     28  C   UNL     1      -9.286  -4.003  -0.826  0.00  0.00    +0.017 C 
ENDBRANCH   4  25
BRANCH   1  29
ATOM     29  C   UNL     1      -3.082  -4.013  -2.255  0.00  0.00    +0.210 C 
BRANCH  29  31
ATOM     30  N   UNL     1      -2.176  -6.090  -1.264  0.00  0.00    -0.311 N 
ATOM     31  C   UNL     1      -3.024  -5.047  -1.161  0.00  0.00    +0.231 C 
ATOM     32  O   UNL     1      -3.740  -4.941  -0.188  0.00  0.00    -0.274 OA
ATOM     33  H   UNL     1      -1.603  -6.174  -2.042  0.00  0.00    +0.149 HD
BRANCH  30  34
ATOM     34  C   UNL     1      -2.119  -7.095  -0.200  0.00  0.00    +0.070 C 
ATOM     35  C   UNL     1      -3.207  -8.146  -0.432  0.00  0.00    +0.028 C 
BRANCH  34  37
ATOM     36  C   UNL     1       0.330  -6.744   0.146  0.00  0.00    +0.005 C 
ATOM     37  C   UNL     1      -0.747  -7.771  -0.209  0.00  0.00    +0.018 C 
ENDBRANCH  34  37
ENDBRANCH  30  34
ENDBRANCH  29  31
ENDBRANCH   1  29
TORSDOF 7
