REMARK  Name = ZINC66286096
REMARK  4 active torsions:
REMARK  status: ('A' for Active; 'I' for Inactive)
REMARK    1  A    between atoms: C_1  and  C_2
REMARK    2  A    between atoms: N_4  and  C_5
REMARK    3  A    between atoms: C_7  and  N_13
REMARK    4  A    between atoms: C_14  and  C_16
REMARK                            x       y       z     vdW  Elec       q    Type
REMARK                         _______ _______ _______ _____ _____    ______ ____
ROOT
ATOM      1  N   UNL     1       1.138  -4.939  -0.152  0.00  0.00    -0.279 N 
ATOM      2  C   UNL     1       2.321  -4.312  -0.002  0.00  0.00    +0.254 C 
ATOM      3  O   UNL     1       2.364  -3.097   0.046  0.00  0.00    -0.270 OA
ATOM      4  H   UNL     1       1.106  -5.907  -0.210  0.00  0.00    +0.155 HD
ENDROOT
BRANCH   2   5
ATOM      5  C   UNL     1       3.561  -5.096   0.103  0.00  0.00    +0.101 A 
ATOM      6  C   UNL     1       4.771  -4.476   0.403  0.00  0.00    +0.023 A 
ATOM      7  C   UNL     1       5.931  -5.249   0.496  0.00  0.00    -0.027 A 
ATOM      8  C   UNL     1       5.873  -6.591   0.296  0.00  0.00    +0.022 A 
ATOM      9  N   UNL     1       4.693  -7.199   0.004  0.00  0.00    -0.325 N 
ATOM     10  H   UNL     1       4.676  -8.159  -0.136  0.00  0.00    +0.169 HD
ATOM     11  C   UNL     1       3.548  -6.501  -0.093  0.00  0.00    +0.261 A 
ATOM     12  O   UNL     1       2.503  -7.073  -0.351  0.00  0.00    -0.267 OA
ATOM     13  C   UNL     1       7.254  -7.198   0.452  0.00  0.00    +0.054 C 
ATOM     14  C   UNL     1       8.231  -6.008   0.341  0.00  0.00    +0.011 C 
ATOM     15  C   UNL     1       7.353  -4.827   0.805  0.00  0.00    +0.037 C 
ENDBRANCH   2   5
BRANCH   1  18
ATOM     16  C   UNL     1      -1.184  -2.139  -0.723  0.00  0.00    +0.071 A 
ATOM     17  C   UNL     1      -0.010  -2.875  -0.652  0.00  0.00    +0.052 A 
ATOM     18  C   UNL     1      -0.046  -4.194  -0.224  0.00  0.00    +0.071 A 
ATOM     19  C   UNL     1      -1.257  -4.775   0.134  0.00  0.00    +0.147 A 
ATOM     20  C   UNL     1      -2.426  -4.039   0.063  0.00  0.00    +0.080 A 
ATOM     21  C   UNL     1      -2.393  -2.722  -0.359  0.00  0.00    +0.147 A 
ATOM     22  F   UNL     1      -3.535  -2.004  -0.422  0.00  0.00    -0.203 F 
ATOM     23  F   UNL     1      -1.292  -6.060   0.551  0.00  0.00    -0.203 F 
BRANCH  16  27
ATOM     24  C   UNL     1      -0.247   0.997  -2.587  0.00  0.00    +0.109 C 
ATOM     25  C   UNL     1      -0.221  -0.409  -2.046  0.00  0.00    +0.214 C 
ATOM     26  O   UNL     1       0.637  -1.184  -2.413  0.00  0.00    -0.276 OA
ATOM     27  N   UNL     1      -1.151  -0.806  -1.155  0.00  0.00    -0.283 N 
ATOM     28  H   UNL     1      -1.798  -0.169  -0.812  0.00  0.00    +0.155 HD
ENDBRANCH  16  27
ENDBRANCH   1  18
TORSDOF 3
