REMARK  Name = ZINC53512933
REMARK  6 active torsions:
REMARK  status: ('A' for Active; 'I' for Inactive)
REMARK    1  A    between atoms: C_1  and  C_2
REMARK    2  A    between atoms: C_2  and  C_4
REMARK    3  A    between atoms: C_2  and  N_12
REMARK    4  A    between atoms: C_4  and  C_5
REMARK    5  A    between atoms: C_5  and  C_6
REMARK    6  A    between atoms: C_18  and  N_21
REMARK                            x       y       z     vdW  Elec       q    Type
REMARK                         _______ _______ _______ _____ _____    ______ ____
ROOT
ATOM      1  N   UNL     1      -1.306  -0.306  -2.405  0.00  0.00    -0.297 N 
ATOM      2  C   UNL     1       0.006  -0.608  -2.358  0.00  0.00    +0.302 C 
ATOM      3  O   UNL     1       0.642  -0.403  -1.343  0.00  0.00    -0.253 OA
ATOM      4  N   UNL     1       0.614  -1.138  -3.439  0.00  0.00    -0.286 N 
ATOM      5  C   UNL     1       2.014  -1.580  -3.368  0.00  0.00    +0.111 C 
ATOM      6  C   UNL     1       2.096  -3.033  -3.847  0.00  0.00    +0.044 C 
ATOM      7  C   UNL     1       1.471  -3.143  -5.240  0.00  0.00    +0.095 C 
ATOM      8  C   UNL     1      -0.004  -2.740  -5.172  0.00  0.00    +0.044 C 
ATOM      9  C   UNL     1      -0.112  -1.289  -4.707  0.00  0.00    +0.111 C 
ATOM     10  H   UNL     1      -1.797  -0.400  -3.236  0.00  0.00    +0.151 HD
ENDROOT
BRANCH   7  11
ATOM     11  N   UNL     1       1.578  -4.525  -5.714  0.00  0.00    -0.289 N 
ATOM     12  C   UNL     1       2.249  -4.943  -6.861  0.00  0.00    +0.070 A 
ATOM     13  C   UNL     1       2.968  -4.274  -7.840  0.00  0.00    +0.028 A 
ATOM     14  C   UNL     1       3.532  -4.982  -8.883  0.00  0.00    +0.002 A 
ATOM     15  C   UNL     1       3.383  -6.357  -8.955  0.00  0.00    +0.002 A 
ATOM     16  C   UNL     1       2.669  -7.032  -7.985  0.00  0.00    +0.028 A 
ATOM     17  C   UNL     1       2.099  -6.330  -6.933  0.00  0.00    +0.067 A 
ATOM     18  N   UNL     1       1.342  -6.711  -5.829  0.00  0.00    -0.306 N 
ATOM     19  H   UNL     1       1.074  -7.617  -5.609  0.00  0.00    +0.170 HD
ATOM     20  C   UNL     1       1.049  -5.608  -5.114  0.00  0.00    +0.328 A 
ATOM     21  O   UNL     1       0.402  -5.591  -4.083  0.00  0.00    -0.247 OA
ENDBRANCH   7  11
BRANCH   1  23
ATOM     22  C   UNL     1      -2.449  -1.037  -0.369  0.00  0.00    +0.028 C 
ATOM     23  C   UNL     1      -1.992   0.165  -1.199  0.00  0.00    +0.072 C 
BRANCH  23  24
ATOM     24  C   UNL     1      -3.210   1.000  -1.598  0.00  0.00    +0.026 C 
BRANCH  24  25
ATOM     25  C   UNL     1      -2.745   2.267  -2.320  0.00  0.00    +0.037 C 
BRANCH  25  26
ATOM     26  C   UNL     1      -3.945   3.090  -2.714  0.00  0.00    -0.047 A 
ATOM     27  C   UNL     1      -4.551   2.886  -3.939  0.00  0.00    +0.003 A 
ATOM     28  C   UNL     1      -5.652   3.641  -4.300  0.00  0.00    +0.000 A 
ATOM     29  C   UNL     1      -6.146   4.599  -3.435  0.00  0.00    +0.000 A 
ATOM     30  C   UNL     1      -5.540   4.803  -2.210  0.00  0.00    +0.000 A 
ATOM     31  C   UNL     1      -4.442   4.045  -1.847  0.00  0.00    +0.003 A 
ENDBRANCH  25  26
ENDBRANCH  24  25
ENDBRANCH  23  24
ENDBRANCH   1  23
TORSDOF 5
