REMARK  Name = ZINC63627336
REMARK  8 active torsions:
REMARK  status: ('A' for Active; 'I' for Inactive)
REMARK    1  A    between atoms: C_1  and  O_2
REMARK    2  A    between atoms: O_2  and  C_3
REMARK    3  A    between atoms: C_6  and  O_30
REMARK    4  A    between atoms: C_7  and  S_9
REMARK    5  A    between atoms: S_9  and  N_12
REMARK    6  A    between atoms: N_12  and  C_13
REMARK    7  A    between atoms: C_16  and  C_19
REMARK    8  A    between atoms: O_30  and  C_31
REMARK                            x       y       z     vdW  Elec       q    Type
REMARK                         _______ _______ _______ _____ _____    ______ ____
ROOT
ATOM      1  C   UNL     1       0.918  -4.633  -4.875  0.00  0.00    +0.048 A 
ATOM      2  C   UNL     1       1.369  -3.387  -5.293  0.00  0.00    +0.025 A 
ATOM      3  C   UNL     1       1.821  -3.216  -6.587  0.00  0.00    +0.008 A 
ATOM      4  C   UNL     1       1.825  -4.283  -7.466  0.00  0.00    -0.021 A 
ATOM      5  C   UNL     1       1.377  -5.525  -7.054  0.00  0.00    +0.008 A 
ATOM      6  C   UNL     1       0.929  -5.704  -5.760  0.00  0.00    +0.025 A 
ENDROOT
BRANCH   4   7
ATOM      7  C   UNL     1       2.317  -4.093  -8.878  0.00  0.00    +0.133 C 
ATOM      8  C   UNL     1       3.716  -4.650  -9.021  0.00  0.00    +0.012 C 
ATOM      9  C   UNL     1       3.637  -5.627  -9.952  0.00  0.00    -0.002 A 
ATOM     10  C   UNL     1       4.636  -6.534 -10.529  0.00  0.00    +0.029 A 
ATOM     11  C   UNL     1       4.247  -7.429 -11.466  0.00  0.00    +0.042 A 
ATOM     12  C   UNL     1       2.915  -7.511 -11.899  0.00  0.00    +0.022 A 
ATOM     13  C   UNL     1       1.941  -6.711 -11.416  0.00  0.00    +0.027 A 
ATOM     14  C   UNL     1       2.239  -5.734 -10.427  0.00  0.00    +0.043 A 
ATOM     15  N   UNL     1       1.482  -4.855  -9.812  0.00  0.00    -0.374 N 
ATOM     16 CL   UNL     1       5.426  -8.504 -12.151  0.00  0.00    -0.084 Cl
ATOM     17  H   UNL     1       0.530  -4.729  -9.952  0.00  0.00    +0.161 HD
ENDBRANCH   4   7
BRANCH   1  18
ATOM     18  N   UNL     1       0.461  -4.809  -3.567  0.00  0.00    -0.216 N 
ATOM     19  H   UNL     1      -0.365  -5.289  -3.403  0.00  0.00    +0.174 HD
BRANCH  18  20
ATOM     20  S   UNL     1       1.330  -4.198  -2.297  0.00  0.00    +0.076 S 
ATOM     21  O   UNL     1       0.677  -4.633  -1.112  0.00  0.00    -0.150 OA
ATOM     22  O   UNL     1       1.556  -2.825  -2.583  0.00  0.00    -0.150 OA
BRANCH  20  27
ATOM     23  C   UNL     1       5.289  -4.855  -2.571  0.00  0.00    +0.122 A 
ATOM     24  C   UNL     1       5.386  -6.222  -2.354  0.00  0.00    +0.049 A 
ATOM     25  C   UNL     1       4.247  -6.967  -2.122  0.00  0.00    +0.051 A 
ATOM     26  C   UNL     1       3.006  -6.349  -2.104  0.00  0.00    +0.147 A 
ATOM     27  C   UNL     1       2.908  -4.983  -2.320  0.00  0.00    +0.153 A 
ATOM     28  C   UNL     1       4.048  -4.236  -2.547  0.00  0.00    +0.078 A 
BRANCH  23  30
ATOM     29  C   UNL     1       7.654  -4.824  -2.810  0.00  0.00    +0.277 C 
ATOM     30  O   UNL     1       6.410  -4.121  -2.800  0.00  0.00    -0.495 OA
ENDBRANCH  23  30
BRANCH  26  31
ATOM     31  O   UNL     1       1.884  -7.084  -1.876  0.00  0.00    -0.493 OA
ATOM     32  C   UNL     1       2.045  -8.500  -1.776  0.00  0.00    +0.277 C 
ENDBRANCH  26  31
ENDBRANCH  20  27
ENDBRANCH  18  20
ENDBRANCH   1  18
TORSDOF 6
