REMARK  Name = ZINC65397917
REMARK  12 active torsions:
REMARK  status: ('A' for Active; 'I' for Inactive)
REMARK    1  A    between atoms: C_1  and  C_2
REMARK    2  A    between atoms: C_2  and  N_3
REMARK    3  A    between atoms: N_3  and  C_4
REMARK    4  A    between atoms: C_4  and  C_5
REMARK    5  A    between atoms: C_7  and  C_10
REMARK    6  A    between atoms: C_10  and  C_11
REMARK    7  A    between atoms: C_11  and  C_12
REMARK    8  A    between atoms: C_11  and  C_13
REMARK    9  A    between atoms: C_14  and  C_16
REMARK   10  A    between atoms: C_16  and  O_17
REMARK   11  A    between atoms: O_17  and  C_18
REMARK   12  A    between atoms: C_18  and  C_19
REMARK                            x       y       z     vdW  Elec       q    Type
REMARK                         _______ _______ _______ _____ _____    ______ ____
ROOT
ATOM      1  N   UNL     1      -1.372  -0.511   0.012  0.00  0.00    -0.292 N 
ATOM      2  C   UNL     1      -1.993  -0.751   1.184  0.00  0.00    +0.242 C 
ATOM      3  O   UNL     1      -3.131  -1.171   1.193  0.00  0.00    -0.273 OA
ENDROOT
BRANCH   1   5
ATOM      4  C   UNL     1      -0.019   1.526   0.010  0.00  0.00    +0.024 C 
ATOM      5  C   UNL     1       0.002  -0.004   0.002  0.00  0.00    +0.105 C 
ENDBRANCH   1   5
BRANCH   1   6
ATOM      6  C   UNL     1      -2.072  -0.758  -1.251  0.00  0.00    +0.187 C 
BRANCH   6   7
ATOM      7  C   UNL     1      -1.820  -2.175  -1.696  0.00  0.00    +0.189 A 
ATOM      8  N   UNL     1      -0.808  -2.579  -2.472  0.00  0.00    -0.194 NA
ATOM      9  C   UNL     1      -0.879  -3.866  -2.669  0.00  0.00    +0.228 A 
ATOM     10  O   UNL     1      -1.953  -4.330  -2.017  0.00  0.00    -0.338 OA
ATOM     11  N   UNL     1      -2.549  -3.208  -1.383  0.00  0.00    -0.060 NA
BRANCH   9  12
ATOM     12  C   UNL     1       0.080  -4.689  -3.489  0.00  0.00    +0.101 C 
BRANCH  12  13
ATOM     13  C   UNL     1       1.215  -5.192  -2.594  0.00  0.00    -0.008 C 
ATOM     14  C   UNL     1       0.650  -6.153  -1.546  0.00  0.00    +0.008 C 
ATOM     15  C   UNL     1       2.253  -5.921  -3.449  0.00  0.00    +0.008 C 
ENDBRANCH  12  13
ENDBRANCH   9  12
ENDBRANCH   6   7
ENDBRANCH   1   6
BRANCH   2  16
ATOM     16  C   UNL     1      -1.274  -0.497   2.484  0.00  0.00    +0.255 C 
BRANCH  16  17
ATOM     17  O   UNL     1      -2.135  -0.824   3.577  0.00  0.00    -0.367 OA
BRANCH  17  18
ATOM     18  C   UNL     1      -1.546  -0.618   4.862  0.00  0.00    +0.207 C 
BRANCH  18  19
ATOM     19  C   UNL     1      -2.552  -0.999   5.951  0.00  0.00    +0.200 C 
ATOM     20  N   UNL     1      -2.971  -2.396   5.783  0.00  0.00    -0.362 N 
ATOM     21  C   UNL     1      -4.257  -2.397   5.583  0.00  0.00    +0.060 A 
ATOM     22  C   UNL     1      -5.230  -3.475   5.353  0.00  0.00    +0.030 A 
ATOM     23  C   UNL     1      -6.530  -3.169   5.174  0.00  0.00    +0.040 A 
ATOM     24  C   UNL     1      -7.008  -1.844   5.197  0.00  0.00    +0.125 A 
ATOM     25  C   UNL     1      -6.198  -0.782   5.401  0.00  0.00    +0.065 A 
ATOM     26  C   UNL     1      -4.761  -0.997   5.608  0.00  0.00    +0.063 A 
ATOM     27  N   UNL     1      -3.765  -0.183   5.823  0.00  0.00    -0.361 N 
ATOM     28  F   UNL     1      -8.328  -1.626   5.008  0.00  0.00    -0.205 F 
ATOM     29  H   UNL     1      -2.394  -3.176   5.815  0.00  0.00    +0.162 HD
ATOM     30  H   UNL     1      -3.817   0.784   5.886  0.00  0.00    +0.162 HD
ENDBRANCH  18  19
ENDBRANCH  17  18
ENDBRANCH  16  17
ENDBRANCH   2  16
TORSDOF 9
