REMARK  Name = ZINC20393898
REMARK  7 active torsions:
REMARK  status: ('A' for Active; 'I' for Inactive)
REMARK    1  A    between atoms: C_1  and  C_2
REMARK    2  A    between atoms: C_2  and  C_3
REMARK    3  A    between atoms: C_4  and  C_26
REMARK    4  A    between atoms: C_9  and  C_14
REMARK    5  A    between atoms: C_14  and  N_15
REMARK    6  A    between atoms: C_20  and  C_22
REMARK    7  A    between atoms: C_22  and  C_23
REMARK                            x       y       z     vdW  Elec       q    Type
REMARK                         _______ _______ _______ _____ _____    ______ ____
ROOT
ATOM      1  C   UNL     1       4.591  -0.047  -1.712  0.00  0.00    +0.040 A 
ATOM      2  C   UNL     1       4.629   1.144  -2.365  0.00  0.00    -0.030 A 
ATOM      3  C   UNL     1       3.360   1.760  -2.756  0.00  0.00    +0.023 A 
ATOM      4  C   UNL     1       3.332   2.986  -3.430  0.00  0.00    +0.035 A 
ATOM      5  C   UNL     1       2.135   3.540  -3.782  0.00  0.00    +0.089 A 
ATOM      6  C   UNL     1       0.940   2.887  -3.481  0.00  0.00    +0.202 A 
ATOM      7  C   UNL     1       0.949   1.676  -2.808  0.00  0.00    +0.027 A 
ATOM      8  C   UNL     1       2.157   1.101  -2.443  0.00  0.00    +0.144 A 
ATOM      9  O   UNL     1       2.189  -0.082  -1.792  0.00  0.00    -0.422 OA
ATOM     10  C   UNL     1       3.349  -0.652  -1.430  0.00  0.00    +0.341 A 
ATOM     11  O   UNL     1       3.328  -1.720  -0.844  0.00  0.00    -0.245 OA
ATOM     12  O   UNL     1      -0.243   3.447  -3.842  0.00  0.00    -0.286 OA
ATOM     13 CL   UNL     1       2.100   5.060  -4.619  0.00  0.00    -0.080 Cl
ATOM     14  C   UNL     1       5.943   1.812  -2.678  0.00  0.00    +0.045 C 
ENDROOT
BRANCH   1  16
ATOM     15  C   UNL     1       6.357  -1.641  -2.410  0.00  0.00    +0.009 C 
ATOM     16  C   UNL     1       5.872  -0.719  -1.290  0.00  0.00    +0.039 C 
ENDBRANCH   1  16
BRANCH   7  17
ATOM     17  C   UNL     1      -0.348   0.983  -2.481  0.00  0.00    -0.035 C 
BRANCH  17  18
ATOM     18  N   UNL     1      -0.729   1.288  -1.095  0.00  0.00    +0.384 N 
ATOM     19  C   UNL     1      -0.807   2.737  -0.877  0.00  0.00    -0.078 C 
ATOM     20  C   UNL     1      -1.062   3.018   0.606  0.00  0.00    -0.019 C 
ATOM     21  C   UNL     1      -2.373   2.349   1.029  0.00  0.00    -0.003 C 
ATOM     22  C   UNL     1      -2.283   0.846   0.747  0.00  0.00    -0.015 C 
ATOM     23  C   UNL     1      -1.992   0.628  -0.740  0.00  0.00    -0.068 C 
ATOM     24  H   UNL     1       0.054   0.891  -0.432  0.00  0.00    -0.081 HD
BRANCH  23  25
ATOM     25  C   UNL     1      -1.882  -0.871  -1.023  0.00  0.00    -0.019 C 
ATOM     26  C   UNL     1      -3.230  -1.542  -0.752  0.00  0.00    +0.002 C 
ENDBRANCH  23  25
ENDBRANCH  17  18
ENDBRANCH   7  17
TORSDOF 4
