REMARK  Name = ZINC62930779
REMARK  8 active torsions:
REMARK  status: ('A' for Active; 'I' for Inactive)
REMARK    1  A    between atoms: C_1  and  C_2
REMARK    2  A    between atoms: C_2  and  C_3
REMARK    3  A    between atoms: C_2  and  N_4
REMARK    4  A    between atoms: N_7  and  N_8
REMARK    5  A    between atoms: N_8  and  S_9
REMARK    6  A    between atoms: S_9  and  C_12
REMARK    7  A    between atoms: C_15  and  S_18
REMARK    8  A    between atoms: S_18  and  C_19
REMARK                            x       y       z     vdW  Elec       q    Type
REMARK                         _______ _______ _______ _____ _____    ______ ____
ROOT
ATOM      1  S   UNL     1      -5.274  -1.073  -0.869  0.00  0.00    +0.074 S 
ATOM      2  O   UNL     1      -6.189  -0.393  -0.022  0.00  0.00    -0.152 OA
ATOM      3  O   UNL     1      -4.796  -0.510  -2.083  0.00  0.00    -0.152 OA
ENDROOT
BRANCH   1   4
ATOM      4  C   UNL     1      -6.024  -2.611  -1.290  0.00  0.00    +0.107 A 
ATOM      5  C   UNL     1      -5.643  -3.272  -2.443  0.00  0.00    +0.029 A 
ATOM      6  C   UNL     1      -6.229  -4.478  -2.776  0.00  0.00    +0.017 A 
ATOM      7  C   UNL     1      -7.202  -5.027  -1.950  0.00  0.00    +0.016 A 
ATOM      8  C   UNL     1      -7.582  -4.360  -0.791  0.00  0.00    +0.017 A 
ATOM      9  C   UNL     1      -6.988  -3.157  -0.462  0.00  0.00    +0.029 A 
BRANCH   7  10
ATOM     10  S   UNL     1      -7.953  -6.564  -2.370  0.00  0.00    -0.016 S 
BRANCH  10  11
ATOM     11  C   UNL     1      -9.130  -6.861  -1.023  0.00  0.00    +0.448 C 
ATOM     12  F   UNL     1     -10.059  -5.816  -0.976  0.00  0.00    -0.160 F 
ATOM     13  F   UNL     1      -9.799  -8.069  -1.245  0.00  0.00    -0.160 F 
ATOM     14  F   UNL     1      -8.441  -6.926   0.193  0.00  0.00    -0.160 F 
ENDBRANCH  10  11
ENDBRANCH   7  10
ENDBRANCH   1   4
BRANCH   1  15
ATOM     15  N   UNL     1      -3.940  -1.414   0.052  0.00  0.00    -0.107 NA
ATOM     16  H   UNL     1      -3.874  -1.069   0.956  0.00  0.00    +0.172 HD
BRANCH  15  20
ATOM     17  N   UNL     1      -1.372  -0.511   0.012  0.00  0.00    -0.296 N 
ATOM     18  C   UNL     1      -1.643  -1.734  -0.485  0.00  0.00    +0.315 C 
ATOM     19  O   UNL     1      -0.747  -2.417  -0.942  0.00  0.00    -0.251 OA
ATOM     20  N   UNL     1      -2.908  -2.201  -0.475  0.00  0.00    -0.216 N 
ATOM     21  H   UNL     1      -2.087   0.033   0.377  0.00  0.00    +0.151 HD
ATOM     22  H   UNL     1      -3.103  -3.081  -0.833  0.00  0.00    +0.172 HD
BRANCH  17  24
ATOM     23  C   UNL     1      -0.019   1.526   0.010  0.00  0.00    +0.027 C 
ATOM     24  C   UNL     1       0.002  -0.004   0.002  0.00  0.00    +0.068 C 
ATOM     25  C   UNL     1       0.742  -0.511   1.242  0.00  0.00    +0.027 C 
ENDBRANCH  17  24
ENDBRANCH  15  20
ENDBRANCH   1  15
TORSDOF 6
