REMARK  Name = ZINC61554413
REMARK  12 active torsions:
REMARK  status: ('A' for Active; 'I' for Inactive)
REMARK    1  A    between atoms: C_1  and  C_2
REMARK    2  A    between atoms: C_5  and  C_24
REMARK    3  A    between atoms: C_7  and  N_8
REMARK    4  A    between atoms: N_11  and  C_12
REMARK    5  A    between atoms: C_12  and  C_13
REMARK    6  A    between atoms: C_12  and  C_14
REMARK    7  A    between atoms: C_17  and  O_20
REMARK    8  A    between atoms: O_20  and  C_21
REMARK    9  A    between atoms: C_21  and  C_22
REMARK   10  A    between atoms: C_21  and  C_23
REMARK   11  A    between atoms: N_26  and  C_27
REMARK   12  A    between atoms: N_26  and  C_28
REMARK                            x       y       z     vdW  Elec       q    Type
REMARK                         _______ _______ _______ _____ _____    ______ ____
ROOT
ATOM      1  N   UNL     1      -0.185   0.317   1.355  0.00  0.00    -0.269 N 
ATOM      2  C   UNL     1      -0.044  -0.303   2.543  0.00  0.00    +0.304 C 
ATOM      3  O   UNL     1       0.241  -1.484   2.583  0.00  0.00    -0.252 OA
ATOM      4  N   UNL     1      -0.219   0.387   3.688  0.00  0.00    -0.293 N 
ATOM      5  H   UNL     1      -0.347   1.273   1.323  0.00  0.00    +0.156 HD
ATOM      6  H   UNL     1      -0.446   1.329   3.656  0.00  0.00    +0.151 HD
ENDROOT
BRANCH   1  13
ATOM      7  C   UNL     1      -1.563   1.294  -0.930  0.00  0.00    +0.045 C 
ATOM      8  C   UNL     1      -0.755   0.023  -0.974  0.00  0.00    -0.029 A 
ATOM      9  C   UNL     1      -0.667  -0.697  -2.151  0.00  0.00    +0.006 A 
ATOM     10  C   UNL     1       0.071  -1.862  -2.199  0.00  0.00    +0.013 A 
ATOM     11  C   UNL     1       0.732  -2.317  -1.056  0.00  0.00    +0.039 A 
ATOM     12  C   UNL     1       0.643  -1.591   0.131  0.00  0.00    +0.036 A 
ATOM     13  C   UNL     1      -0.097  -0.419   0.167  0.00  0.00    +0.038 A 
BRANCH  11  14
ATOM     14  C   UNL     1       1.523  -3.565  -1.105  0.00  0.00    +0.246 C 
ATOM     15  O   UNL     1       2.645  -3.592  -0.640  0.00  0.00    -0.270 OA
ATOM     16  N   UNL     1       0.999  -4.674  -1.664  0.00  0.00    -0.304 N 
ATOM     17  C   UNL     1       1.740  -5.937  -1.621  0.00  0.00    +0.132 C 
ATOM     18  C   UNL     1      -0.312  -4.616  -2.315  0.00  0.00    +0.132 C 
ENDBRANCH  11  14
ENDBRANCH   1  13
BRANCH   4  19
ATOM     19  C   UNL     1      -0.065  -0.287   4.980  0.00  0.00    +0.102 C 
ATOM     20  C   UNL     1       1.411  -0.292   5.380  0.00  0.00    +0.033 C 
BRANCH  19  21
ATOM     21  C   UNL     1      -0.867   0.444   6.026  0.00  0.00    -0.027 A 
ATOM     22  C   UNL     1      -0.903   1.826   6.027  0.00  0.00    +0.009 A 
ATOM     23  C   UNL     1      -1.637   2.498   6.985  0.00  0.00    +0.046 A 
ATOM     24  C   UNL     1      -2.339   1.786   7.946  0.00  0.00    +0.121 A 
ATOM     25  C   UNL     1      -2.301   0.399   7.943  0.00  0.00    +0.046 A 
ATOM     26  C   UNL     1      -1.570  -0.269   6.979  0.00  0.00    +0.009 A 
BRANCH  24  27
ATOM     27  O   UNL     1      -3.061   2.445   8.890  0.00  0.00    -0.489 OA
BRANCH  27  28
ATOM     28  C   UNL     1      -2.966   3.870   8.901  0.00  0.00    +0.167 C 
ATOM     29  C   UNL     1      -4.090   4.463   8.050  0.00  0.00    +0.051 C 
ATOM     30  C   UNL     1      -3.093   4.378  10.339  0.00  0.00    +0.051 C 
ENDBRANCH  27  28
ENDBRANCH  24  27
ENDBRANCH  19  21
ENDBRANCH   4  19
TORSDOF 6
