REMARK  Name = ZINC60343215
REMARK  10 active torsions:
REMARK  status: ('A' for Active; 'I' for Inactive)
REMARK    1  A    between atoms: C_5  and  C_7
REMARK    2  A    between atoms: C_7  and  N_8
REMARK    3  A    between atoms: C_9  and  N_13
REMARK    4  A    between atoms: C_14  and  C_16
REMARK    5  A    between atoms: C_16  and  N_17
REMARK    6  A    between atoms: N_17  and  C_18
REMARK    7  A    between atoms: N_17  and  C_26
REMARK    8  A    between atoms: C_18  and  C_19
REMARK    9  A    between atoms: C_23  and  O_25
REMARK   10  A    between atoms: C_29  and  O_32
REMARK                            x       y       z     vdW  Elec       q    Type
REMARK                         _______ _______ _______ _____ _____    ______ ____
ROOT
ATOM      1  N   UNL     1       6.975  -3.154   3.192  0.00  0.00    +0.390 N 
ATOM      2  H   UNL     1       6.625  -2.801   4.070  0.00  0.00    -0.080 HD
ENDROOT
BRANCH   1   3
ATOM      3  C   UNL     1       6.892  -4.621   3.186  0.00  0.00    -0.067 C 
ATOM      4  C   UNL     1       7.393  -5.154   1.842  0.00  0.00    -0.013 C 
ATOM      5  C   UNL     1       7.306  -6.681   1.835  0.00  0.00    +0.030 C 
ATOM      6  C   UNL     1       5.852  -7.111   2.045  0.00  0.00    +0.114 C 
ATOM      7  C   UNL     1       5.352  -6.577   3.388  0.00  0.00    +0.030 C 
ATOM      8  C   UNL     1       5.439  -5.050   3.395  0.00  0.00    -0.013 C 
BRANCH   6   9
ATOM      9  O   UNL     1       5.043  -6.583   0.991  0.00  0.00    -0.392 OA
ATOM     10  H   UNL     1       4.107  -6.816   1.060  0.00  0.00    +0.210 HD
ENDBRANCH   6   9
ENDBRANCH   1   3
BRANCH   1  11
ATOM     11  C   UNL     1       6.169  -2.613   2.090  0.00  0.00    +0.020 C 
BRANCH  11  13
ATOM     12  N   UNL     1       3.776  -2.200   1.620  0.00  0.00    -0.272 N 
ATOM     13  C   UNL     1       4.727  -2.526   2.518  0.00  0.00    +0.202 C 
ATOM     14  O   UNL     1       4.422  -2.749   3.670  0.00  0.00    -0.278 OA
ATOM     15  H   UNL     1       4.020  -2.021   0.698  0.00  0.00    +0.156 HD
BRANCH  12  17
ATOM     16  N   UNL     1       1.377  -1.922   1.204  0.00  0.00    -0.246 N 
ATOM     17  C   UNL     1       2.441  -2.119   2.016  0.00  0.00    +0.123 A 
ATOM     18  C   UNL     1       1.972  -2.225   3.289  0.00  0.00    +0.065 A 
ATOM     19  C   UNL     1       0.582  -2.088   3.247  0.00  0.00    +0.136 A 
ATOM     20  N   UNL     1       0.226  -1.901   2.002  0.00  0.00    -0.178 NA
BRANCH  16  21
ATOM     21  C   UNL     1       1.422  -1.754  -0.250  0.00  0.00    +0.182 C 
BRANCH  21  26
ATOM     22  C   UNL     1       2.034  -5.056  -1.974  0.00  0.00    +0.000 A 
ATOM     23  C   UNL     1       0.744  -5.523  -2.143  0.00  0.00    +0.001 A 
ATOM     24  C   UNL     1      -0.328  -4.771  -1.700  0.00  0.00    +0.020 A 
ATOM     25  C   UNL     1      -0.108  -3.550  -1.087  0.00  0.00    +0.046 A 
ATOM     26  C   UNL     1       1.183  -3.083  -0.917  0.00  0.00    -0.008 A 
ATOM     27  C   UNL     1       2.253  -3.837  -1.361  0.00  0.00    +0.007 A 
ATOM     28 CL   UNL     1      -1.454  -2.604  -0.531  0.00  0.00    -0.083 Cl
ENDBRANCH  21  26
ENDBRANCH  16  21
ENDBRANCH  12  17
ENDBRANCH  11  13
ENDBRANCH   1  11
BRANCH   1  29
ATOM     29  C   UNL     1       8.375  -2.742   3.023  0.00  0.00    -0.042 C 
BRANCH  29  30
ATOM     30  C   UNL     1       9.174  -3.170   4.228  0.00  0.00    -0.060 A 
ATOM     31  C   UNL     1       9.187  -2.380   5.363  0.00  0.00    +0.002 A 
ATOM     32  C   UNL     1       9.919  -2.769   6.470  0.00  0.00    +0.004 A 
ATOM     33  C   UNL     1      10.638  -3.949   6.444  0.00  0.00    +0.045 A 
ATOM     34  C   UNL     1      10.626  -4.742   5.306  0.00  0.00    +0.117 A 
ATOM     35  C   UNL     1       9.886  -4.353   4.199  0.00  0.00    +0.047 A 
BRANCH  34  36
ATOM     36  O   UNL     1      11.333  -5.903   5.278  0.00  0.00    -0.507 OA
ATOM     37  H   UNL     1      10.835  -6.674   5.582  0.00  0.00    +0.292 HD
ENDBRANCH  34  36
ENDBRANCH  29  30
ENDBRANCH   1  29
TORSDOF 10
