REMARK  Name = ZINC39675248
REMARK  9 active torsions:
REMARK  status: ('A' for Active; 'I' for Inactive)
REMARK    1  A    between atoms: C_1  and  C_2
REMARK    2  A    between atoms: C_2  and  C_4
REMARK    3  A    between atoms: C_2  and  N_14
REMARK    4  A    between atoms: C_4  and  C_5
REMARK    5  A    between atoms: C_5  and  C_6
REMARK    6  A    between atoms: C_9  and  O_12
REMARK    7  A    between atoms: O_12  and  C_13
REMARK    8  A    between atoms: C_15  and  C_17
REMARK    9  A    between atoms: C_28  and  C_30
REMARK                            x       y       z     vdW  Elec       q    Type
REMARK                         _______ _______ _______ _____ _____    ______ ____
ROOT
ATOM      1  C   UNL     1       1.307  -1.379   3.954  0.00  0.00    +0.100 C 
ATOM      2  C   UNL     1       2.317  -0.217   4.079  0.00  0.00    +0.121 C 
ATOM      3  N   UNL     1       1.701   0.712   5.055  0.00  0.00    -0.296 N 
ATOM      4  C   UNL     1       1.094  -0.176   6.076  0.00  0.00    +0.115 C 
ATOM      5  C   UNL     1       0.508  -1.351   5.268  0.00  0.00    -0.004 C 
ATOM      6  C   UNL     1      -0.971  -1.108   4.982  0.00  0.00    -0.010 C 
ATOM      7  C   UNL     1      -1.752  -1.141   6.298  0.00  0.00    -0.082 C 
ATOM      8  N   UNL     1      -1.566  -2.444   6.948  0.00  0.00    +0.379 N 
ATOM      9  C   UNL     1      -0.154  -2.630   7.303  0.00  0.00    -0.082 C 
ATOM     10  C   UNL     1       0.695  -2.660   6.029  0.00  0.00    -0.010 C 
ATOM     11  C   UNL     1       1.694   2.059   5.023  0.00  0.00    +0.247 C 
ATOM     12  O   UNL     1       2.128   2.646   4.051  0.00  0.00    -0.270 OA
ATOM     13  H   UNL     1      -2.130  -2.485   7.784  0.00  0.00    -0.086 HD
ATOM     14  H   UNL     1      -1.852  -3.177   6.316  0.00  0.00    -0.086 HD
ENDROOT
BRANCH  11  15
ATOM     15  C   UNL     1       1.158   2.824   6.169  0.00  0.00    +0.040 A 
ATOM     16  C   UNL     1       1.066   2.227   7.427  0.00  0.00    +0.033 A 
ATOM     17  C   UNL     1       0.565   2.946   8.495  0.00  0.00    +0.043 A 
ATOM     18  C   UNL     1       0.155   4.256   8.318  0.00  0.00    +0.040 A 
ATOM     19  C   UNL     1       0.243   4.854   7.073  0.00  0.00    +0.043 A 
ATOM     20  C   UNL     1       0.749   4.147   5.999  0.00  0.00    +0.033 A 
ATOM     21 CL   UNL     1      -0.274   6.497   6.861  0.00  0.00    -0.083 Cl
ATOM     22 CL   UNL     1       0.448   2.204  10.060  0.00  0.00    -0.083 Cl
ENDBRANCH  11  15
BRANCH   1  24
ATOM     23  N   UNL     1      -0.208  -2.204   2.181  0.00  0.00    -0.312 N 
ATOM     24  C   UNL     1       0.392  -1.155   2.778  0.00  0.00    +0.218 C 
ATOM     25  O   UNL     1       0.194  -0.030   2.370  0.00  0.00    -0.275 OA
ATOM     26  H   UNL     1      -0.050  -3.103   2.507  0.00  0.00    +0.149 HD
BRANCH  23  28
ATOM     27  C   UNL     1      -0.270  -1.914  -0.247  0.00  0.00    +0.028 C 
ATOM     28  C   UNL     1      -1.098  -1.985   1.038  0.00  0.00    +0.070 C 
BRANCH  28  29
ATOM     29  C   UNL     1      -2.094  -3.142   0.939  0.00  0.00    +0.026 C 
BRANCH  29  30
ATOM     30  C   UNL     1      -3.005  -3.137   2.168  0.00  0.00    +0.037 C 
BRANCH  30  31
ATOM     31  C   UNL     1      -3.986  -4.277   2.071  0.00  0.00    -0.047 A 
ATOM     32  C   UNL     1      -5.205  -4.086   1.446  0.00  0.00    +0.007 A 
ATOM     33  C   UNL     1      -6.107  -5.129   1.356  0.00  0.00    +0.046 A 
ATOM     34  C   UNL     1      -5.788  -6.368   1.892  0.00  0.00    +0.120 A 
ATOM     35  C   UNL     1      -4.564  -6.557   2.518  0.00  0.00    +0.046 A 
ATOM     36  C   UNL     1      -3.664  -5.512   2.601  0.00  0.00    +0.007 A 
BRANCH  34  37
ATOM     37  O   UNL     1      -6.673  -7.396   1.805  0.00  0.00    -0.495 OA
ATOM     38  C   UNL     1      -6.278  -8.643   2.380  0.00  0.00    +0.277 C 
ENDBRANCH  34  37
ENDBRANCH  30  31
ENDBRANCH  29  30
ENDBRANCH  28  29
ENDBRANCH  23  28
ENDBRANCH   1  24
TORSDOF 7
