REMARK  Name = ZINC45831180
REMARK  12 active torsions:
REMARK  status: ('A' for Active; 'I' for Inactive)
REMARK    1  A    between atoms: C_1  and  C_2
REMARK    2  A    between atoms: C_2  and  C_3
REMARK    3  A    between atoms: C_2  and  N_4
REMARK    4  A    between atoms: N_4  and  S_5
REMARK    5  A    between atoms: S_5  and  C_8
REMARK    6  A    between atoms: C_11  and  C_14
REMARK    7  A    between atoms: N_16  and  C_17
REMARK    8  A    between atoms: C_17  and  C_18
REMARK    9  A    between atoms: C_18  and  C_20
REMARK   10  A    between atoms: C_18  and  N_26
REMARK   11  A    between atoms: N_26  and  C_27
REMARK   12  A    between atoms: N_26  and  C_28
REMARK                            x       y       z     vdW  Elec       q    Type
REMARK                         _______ _______ _______ _____ _____    ______ ____
ROOT
ATOM      1  C   UNL     1       0.967  -6.568   1.659  0.00  0.00    +0.244 C 
ATOM      2  O   UNL     1       2.128  -6.708   1.325  0.00  0.00    -0.270 OA
ATOM      3  N   UNL     1       0.478  -7.263   2.704  0.00  0.00    -0.313 N 
ATOM      4  H   UNL     1      -0.448  -7.151   2.970  0.00  0.00    +0.149 HD
ENDROOT
BRANCH   1   8
ATOM      5  C   UNL     1      -1.546  -3.887  -0.473  0.00  0.00    +0.105 A 
ATOM      6  C   UNL     1      -0.225  -4.044  -0.855  0.00  0.00    +0.029 A 
ATOM      7  C   UNL     1       0.597  -4.913  -0.167  0.00  0.00    +0.015 A 
ATOM      8  C   UNL     1       0.093  -5.634   0.917  0.00  0.00    +0.037 A 
ATOM      9  C   UNL     1      -1.240  -5.471   1.297  0.00  0.00    +0.015 A 
ATOM     10  C   UNL     1      -2.050  -4.595   0.603  0.00  0.00    +0.029 A 
BRANCH   5  11
ATOM     11  S   UNL     1      -2.588  -2.776  -1.358  0.00  0.00    +0.059 S 
ATOM     12  O   UNL     1      -3.923  -3.212  -1.141  0.00  0.00    -0.153 OA
ATOM     13  O   UNL     1      -2.031  -2.644  -2.658  0.00  0.00    -0.153 OA
BRANCH  11  14
ATOM     14  N   UNL     1      -2.451  -1.294  -0.632  0.00  0.00    -0.187 NA
ATOM     15  H   UNL     1      -3.218  -0.897  -0.191  0.00  0.00    +0.148 HD
BRANCH  14  17
ATOM     16  C   UNL     1      -1.426   0.923  -0.765  0.00  0.00    +0.025 C 
ATOM     17  C   UNL     1      -1.171  -0.582  -0.657  0.00  0.00    +0.070 C 
ATOM     18  C   UNL     1      -0.398  -0.877   0.630  0.00  0.00    +0.025 C 
ENDBRANCH  14  17
ENDBRANCH  11  14
ENDBRANCH   5  11
ENDBRANCH   1   8
BRANCH   3  19
ATOM     19  C   UNL     1       1.344  -8.187   3.439  0.00  0.00    +0.089 C 
BRANCH  19  20
ATOM     20  C   UNL     1       0.595  -8.728   4.659  0.00  0.00    -0.049 C 
BRANCH  20  21
ATOM     21  C   UNL     1       0.412  -7.607   5.684  0.00  0.00    -0.023 C 
ATOM     22  C   UNL     1      -0.436  -6.490   5.072  0.00  0.00    +0.002 C 
ATOM     23  C   UNL     1      -0.619  -5.369   6.097  0.00  0.00    +0.000 C 
ATOM     24  C   UNL     1       0.750  -4.811   6.492  0.00  0.00    +0.000 C 
ATOM     25  C   UNL     1       1.599  -5.928   7.104  0.00  0.00    +0.000 C 
ATOM     26  C   UNL     1       1.781  -7.049   6.079  0.00  0.00    +0.002 C 
ENDBRANCH  20  21
BRANCH  20  27
ATOM     27  N   UNL     1      -0.721  -9.230   4.242  0.00  0.00    +0.379 N 
ATOM     28  C   UNL     1      -0.550 -10.231   3.181  0.00  0.00    -0.096 C 
ATOM     29  C   UNL     1      -1.397  -9.845   5.392  0.00  0.00    -0.096 C 
ATOM     30  H   UNL     1      -1.278  -8.463   3.895  0.00  0.00    -0.082 HD
ENDBRANCH  20  27
ENDBRANCH  19  20
ENDBRANCH   3  19
TORSDOF 8
