REMARK  Name = ZINC14879085
REMARK  10 active torsions:
REMARK  status: ('A' for Active; 'I' for Inactive)
REMARK    1  A    between atoms: C_1  and  C_2
REMARK    2  A    between atoms: C_3  and  C_8
REMARK    3  A    between atoms: N_5  and  C_7
REMARK    4  A    between atoms: C_8  and  N_61
REMARK    5  A    between atoms: C_9  and  C_10
REMARK    6  A    between atoms: C_9  and  N_61
REMARK    7  A    between atoms: C_15  and  S_33
REMARK    8  A    between atoms: N_18  and  C_21
REMARK    9  A    between atoms: C_21  and  C_22
REMARK   10  A    between atoms: S_33  and  C_34
REMARK                            x       y       z     vdW  Elec       q    Type
REMARK                         _______ _______ _______ _____ _____    ______ ____
ROOT
ATOM      1  C   UNL     1      -1.192   1.746   0.017  0.00  0.00    +0.001 A 
ATOM      2  C   UNL     1      -0.013   1.076   0.008  0.00  0.00    +0.017 A 
ATOM      3  C   UNL     1       1.201   1.810   0.000  0.00  0.00    -0.001 A 
ATOM      4  C   UNL     1       2.438   1.151  -0.015  0.00  0.00    +0.011 A 
ATOM      5  C   UNL     1       3.593   1.875  -0.023  0.00  0.00    +0.015 A 
ATOM      6  C   UNL     1       3.555   3.272  -0.015  0.00  0.00    +0.010 A 
ATOM      7  C   UNL     1       2.340   3.942   0.000  0.00  0.00    +0.041 A 
ATOM      8  C   UNL     1       1.156   3.218   0.008  0.00  0.00    +0.053 A 
ATOM      9  N   UNL     1      -0.064   3.864   0.022  0.00  0.00    -0.304 N 
ATOM     10  C   UNL     1      -1.209   3.156   0.029  0.00  0.00    +0.253 A 
ATOM     11  O   UNL     1      -2.278   3.743   0.042  0.00  0.00    -0.267 OA
ENDROOT
BRANCH   6  12
ATOM     12  S   UNL     1       5.059   4.188  -0.025  0.00  0.00    -0.129 S 
ATOM     13  C   UNL     1       6.350   2.913  -0.043  0.00  0.00    +0.090 C 
ENDBRANCH   6  12
BRANCH   1  14
ATOM     14  C   UNL     1      -2.490   0.980   0.019  0.00  0.00    -0.041 C 
BRANCH  14  15
ATOM     15  N   UNL     1      -2.961   0.832   1.409  0.00  0.00    +0.385 N 
ATOM     16  H   UNL     1      -2.255   0.323   1.954  0.00  0.00    -0.085 HD
ATOM     17  H   UNL     1      -3.104   1.762   1.819  0.00  0.00    -0.085 HD
BRANCH  15  18
ATOM     18  C   UNL     1      -4.232   0.084   1.441  0.00  0.00    -0.043 C 
BRANCH  18  21
ATOM     19  C   UNL     1      -5.716   2.308   3.143  0.00  0.00    +0.068 C 
ATOM     20  C   UNL     1      -5.344   0.929   3.622  0.00  0.00    +0.061 A 
ATOM     21  C   UNL     1      -4.689  -0.052   2.871  0.00  0.00    -0.024 A 
ATOM     22  C   UNL     1      -4.543  -1.147   3.652  0.00  0.00    +0.110 A 
ATOM     23  N   UNL     1      -5.079  -0.865   4.859  0.00  0.00    -0.274 N 
ATOM     24  N   UNL     1      -5.578   0.443   4.814  0.00  0.00    -0.177 NA
ATOM     25  C   UNL     1      -5.133  -1.770   6.010  0.00  0.00    +0.172 C 
ENDBRANCH  18  21
ENDBRANCH  15  18
ENDBRANCH  14  15
ENDBRANCH   1  14
BRANCH   9  26
ATOM     26  C   UNL     1      -0.113   5.328   0.029  0.00  0.00    +0.173 C 
BRANCH  26  27
ATOM     27  C   UNL     1      -0.144   5.844  -1.411  0.00  0.00    +0.230 C 
ATOM     28  C   UNL     1      -0.195   7.378  -1.409  0.00  0.00    +0.275 C 
ATOM     29  O   UNL     1      -0.209   7.827  -2.769  0.00  0.00    -0.485 OA
ATOM     30  C   UNL     1       0.690   7.251  -3.612  0.00  0.00    +0.162 A 
ATOM     31  C   UNL     1       0.984   7.867  -4.819  0.00  0.00    +0.049 A 
ATOM     32  C   UNL     1       1.892   7.292  -5.688  0.00  0.00    +0.004 A 
ATOM     33  C   UNL     1       2.511   6.101  -5.356  0.00  0.00    +0.004 A 
ATOM     34  C   UNL     1       2.224   5.482  -4.154  0.00  0.00    +0.049 A 
ATOM     35  C   UNL     1       1.314   6.054  -3.278  0.00  0.00    +0.163 A 
ATOM     36  O   UNL     1       1.046   5.436  -2.095  0.00  0.00    -0.480 OA
ENDBRANCH  26  27
ENDBRANCH   9  26
TORSDOF 7
