REMARK  Name = ZINC09408497
REMARK  10 active torsions:
REMARK  status: ('A' for Active; 'I' for Inactive)
REMARK    1  A    between atoms: C_1  and  C_2
REMARK    2  A    between atoms: C_5  and  N_9
REMARK    3  A    between atoms: C_7  and  C_8
REMARK    4  A    between atoms: C_12  and  C_30
REMARK    5  A    between atoms: C_13  and  C_17
REMARK    6  A    between atoms: C_14  and  C_16
REMARK    7  A    between atoms: C_17  and  C_18
REMARK    8  A    between atoms: C_18  and  C_19
REMARK    9  A    between atoms: C_24  and  C_27
REMARK   10  A    between atoms: C_31  and  C_33
REMARK                            x       y       z     vdW  Elec       q    Type
REMARK                         _______ _______ _______ _____ _____    ______ ____
ROOT
ATOM      1  N   UNL     1      -2.287   2.247   2.659  0.00  0.00    -0.214 N 
ATOM      2  C   UNL     1      -1.130   2.284   3.394  0.00  0.00    +0.164 A 
ATOM      3  C   UNL     1      -0.095   1.860   2.535  0.00  0.00    +0.045 A 
ATOM      4  C   UNL     1       1.215   1.798   3.022  0.00  0.00    -0.033 A 
ATOM      5  C   UNL     1       1.439   2.155   4.326  0.00  0.00    -0.022 A 
ATOM      6  C   UNL     1       0.375   2.564   5.118  0.00  0.00    +0.044 A 
ATOM      7  N   UNL     1      -0.853   2.618   4.648  0.00  0.00    -0.232 NA
ATOM      8  C   UNL     1       0.631   2.955   6.550  0.00  0.00    +0.066 C 
ATOM      9  C   UNL     1       2.350   1.349   2.137  0.00  0.00    +0.045 C 
ATOM     10  C   UNL     1      -0.718   1.572   1.248  0.00  0.00    +0.070 A 
ATOM     11  N   UNL     1      -1.993   1.815   1.361  0.00  0.00    -0.169 NA
ATOM     12  C   UNL     1      -0.013   1.086   0.008  0.00  0.00    +0.068 C 
ENDROOT
BRANCH   1  17
ATOM     13  C   UNL     1      -7.443   3.643   4.571  0.00  0.00    +0.044 C 
ATOM     14  C   UNL     1      -6.074   3.272   4.063  0.00  0.00    -0.047 A 
ATOM     15  C   UNL     1      -5.168   2.656   4.907  0.00  0.00    +0.006 A 
ATOM     16  C   UNL     1      -3.913   2.315   4.445  0.00  0.00    +0.028 A 
ATOM     17  C   UNL     1      -3.559   2.592   3.131  0.00  0.00    +0.068 A 
ATOM     18  C   UNL     1      -4.468   3.216   2.287  0.00  0.00    +0.031 A 
ATOM     19  C   UNL     1      -5.725   3.549   2.754  0.00  0.00    -0.046 A 
ATOM     20  C   UNL     1      -6.715   4.221   1.837  0.00  0.00    +0.044 C 
ENDBRANCH   1  17
BRANCH   5  21
ATOM     21  C   UNL     1       2.832   2.106   4.897  0.00  0.00    +0.046 C 
BRANCH  21  22
ATOM     22  C   UNL     1       3.087   0.725   5.503  0.00  0.00    +0.100 C 
BRANCH  22  23
ATOM     23  C   UNL     1       4.481   0.675   6.074  0.00  0.00    +0.216 C 
ATOM     24  O   UNL     1       5.200   1.650   6.003  0.00  0.00    -0.276 OA
ATOM     25  N   UNL     1       4.929  -0.451   6.663  0.00  0.00    -0.301 N 
ATOM     26  C   UNL     1       4.067  -1.637   6.761  0.00  0.00    +0.108 C 
ATOM     27  C   UNL     1       4.003  -2.086   8.220  0.00  0.00    +0.032 C 
ATOM     28  C   UNL     1       5.424  -2.294   8.750  0.00  0.00    +0.078 C 
ATOM     29  C   UNL     1       6.194  -0.974   8.683  0.00  0.00    +0.032 C 
ATOM     30  C   UNL     1       6.285  -0.514   7.224  0.00  0.00    +0.108 C 
BRANCH  28  31
ATOM     31  C   UNL     1       5.362  -2.767  10.180  0.00  0.00    +0.214 C 
ATOM     32  O   UNL     1       5.882  -2.112  11.058  0.00  0.00    -0.276 OA
ATOM     33  N   UNL     1       4.728  -3.917  10.483  0.00  0.00    -0.329 N 
ATOM     34  H   UNL     1       4.312  -4.441   9.780  0.00  0.00    +0.145 HD
ATOM     35  H   UNL     1       4.688  -4.221  11.403  0.00  0.00    +0.145 HD
ENDBRANCH  28  31
ENDBRANCH  22  23
ENDBRANCH  21  22
ENDBRANCH   5  21
TORSDOF 5
