REMARK  Name = ZINC21223743
REMARK  8 active torsions:
REMARK  status: ('A' for Active; 'I' for Inactive)
REMARK    1  A    between atoms: C_1  and  C_2
REMARK    2  A    between atoms: C_2  and  C_3
REMARK    3  A    between atoms: C_3  and  O_4
REMARK    4  A    between atoms: O_4  and  C_5
REMARK    5  A    between atoms: C_6  and  C_13
REMARK    6  A    between atoms: C_10  and  O_11
REMARK    7  A    between atoms: O_11  and  C_12
REMARK    8  A    between atoms: C_18  and  C_23
REMARK                            x       y       z     vdW  Elec       q    Type
REMARK                         _______ _______ _______ _____ _____    ______ ____
ROOT
ATOM      1  C   UNL     1       1.619  -4.129  -2.751  0.00  0.00    +0.140 C 
ATOM      2  C   UNL     1       0.407  -4.667  -3.472  0.00  0.00    +0.037 C 
ATOM      3  C   UNL     1       0.356  -5.034  -4.764  0.00  0.00    +0.017 C 
ATOM      4  C   UNL     1      -0.931  -5.574  -5.364  0.00  0.00    +0.059 C 
ATOM      5  C   UNL     1      -2.136  -4.926  -4.684  0.00  0.00    +0.032 C 
ATOM      6  C   UNL     1      -2.061  -5.256  -3.188  0.00  0.00    +0.088 C 
ATOM      7  C   UNL     1      -0.746  -4.768  -2.658  0.00  0.00    +0.163 C 
ATOM      8  O   UNL     1      -0.668  -4.448  -1.488  0.00  0.00    -0.292 OA
ATOM      9  N   UNL     1       1.406  -4.978  -5.624  0.00  0.00    -0.316 N 
ATOM     10  C   UNL     1       2.264  -3.893  -5.764  0.00  0.00    +0.052 A 
ATOM     11  C   UNL     1       2.339  -3.154  -6.931  0.00  0.00    +0.025 A 
ATOM     12  C   UNL     1       3.252  -2.116  -7.020  0.00  0.00    +0.002 A 
ATOM     13  C   UNL     1       4.081  -1.824  -5.952  0.00  0.00    +0.002 A 
ATOM     14  C   UNL     1       3.994  -2.551  -4.778  0.00  0.00    +0.025 A 
ATOM     15  C   UNL     1       3.066  -3.576  -4.679  0.00  0.00    +0.049 A 
ATOM     16  N   UNL     1       2.862  -4.260  -3.481  0.00  0.00    -0.331 N 
ATOM     17  H   UNL     1       1.628  -5.835  -6.277  0.00  0.00    +0.152 HD
ATOM     18  H   UNL     1       3.663  -4.907  -3.092  0.00  0.00    +0.147 HD
ENDROOT
BRANCH   5  19
ATOM     19  C   UNL     1      -3.410  -5.479  -5.268  0.00  0.00    -0.043 A 
ATOM     20  C   UNL     1      -3.673  -6.835  -5.192  0.00  0.00    +0.007 A 
ATOM     21  C   UNL     1      -4.843  -7.343  -5.722  0.00  0.00    +0.038 A 
ATOM     22  C   UNL     1      -5.748  -6.496  -6.339  0.00  0.00    +0.123 A 
ATOM     23  C   UNL     1      -5.482  -5.139  -6.419  0.00  0.00    +0.038 A 
ATOM     24  C   UNL     1      -4.313  -4.633  -5.883  0.00  0.00    +0.007 A 
ATOM     25  F   UNL     1      -6.891  -6.992  -6.862  0.00  0.00    -0.205 F 
ENDBRANCH   5  19
BRANCH   1  27
ATOM     26  C   UNL     1       2.171  -2.021  -1.513  0.00  0.00    +0.167 A 
ATOM     27  C   UNL     1       1.390  -2.669  -2.457  0.00  0.00    +0.023 A 
ATOM     28  C   UNL     1       0.405  -1.974  -3.134  0.00  0.00    +0.009 A 
ATOM     29  C   UNL     1       0.193  -0.634  -2.866  0.00  0.00    +0.004 A 
ATOM     30  C   UNL     1       0.964   0.016  -1.921  0.00  0.00    +0.049 A 
ATOM     31  C   UNL     1       1.953  -0.674  -1.240  0.00  0.00    +0.162 A 
BRANCH  31  32
ATOM     32  O   UNL     1       2.713  -0.036  -0.310  0.00  0.00    -0.491 OA
ATOM     33  C   UNL     1       2.437   1.348  -0.086  0.00  0.00    +0.277 C 
ENDBRANCH  31  32
BRANCH  26  34
ATOM     34  O   UNL     1       3.144  -2.702  -0.850  0.00  0.00    -0.488 OA
BRANCH  34  35
ATOM     35  C   UNL     1       2.801  -3.246   0.426  0.00  0.00    +0.229 C 
BRANCH  35  37
ATOM     36  C   UNL     1       3.662  -4.507   2.404  0.00  0.00    +0.007 C 
ATOM     37  C   UNL     1       4.029  -3.925   1.037  0.00  0.00    +0.038 C 
ENDBRANCH  35  37
ENDBRANCH  34  35
ENDBRANCH  26  34
ENDBRANCH   1  27
TORSDOF 6
