REMARK  Name = ZINC53364902
REMARK  10 active torsions:
REMARK  status: ('A' for Active; 'I' for Inactive)
REMARK    1  A    between atoms: C_1  and  C_2
REMARK    2  A    between atoms: C_2  and  O_3
REMARK    3  A    between atoms: O_3  and  C_4
REMARK    4  A    between atoms: C_9  and  C_10
REMARK    5  A    between atoms: C_13  and  C_25
REMARK    6  A    between atoms: C_16  and  C_18
REMARK    7  A    between atoms: C_29  and  O_32
REMARK    8  A    between atoms: C_30  and  O_31
REMARK    9  A    between atoms: O_32  and  C_33
REMARK   10  A    between atoms: C_33  and  C_34
REMARK                            x       y       z     vdW  Elec       q    Type
REMARK                         _______ _______ _______ _____ _____    ______ ____
ROOT
ATOM      1  C   UNL     1       2.055  -1.434   3.442  0.00  0.00    +0.207 C 
ATOM      2  N   UNL     1       3.144  -2.131   4.138  0.00  0.00    -0.284 NA
ATOM      3  C   UNL     1       4.284  -2.332   3.228  0.00  0.00    +0.095 C 
ATOM      4  C   UNL     1       4.886  -0.961   2.905  0.00  0.00    +0.079 C 
ATOM      5  C   UNL     1       3.786  -0.004   2.538  0.00  0.00    +0.047 C 
ATOM      6  N   UNL     1       2.552  -0.230   2.787  0.00  0.00    -0.264 NA
ATOM      7  H   UNL     1       3.426  -1.626   4.965  0.00  0.00    +0.125 HD
ENDROOT
BRANCH   5   8
ATOM      8  C   UNL     1       4.147   1.255   1.859  0.00  0.00    -0.004 A 
ATOM      9  C   UNL     1       5.483   1.535   1.565  0.00  0.00    +0.011 A 
ATOM     10  C   UNL     1       5.814   2.714   0.930  0.00  0.00    +0.016 A 
ATOM     11  C   UNL     1       4.825   3.619   0.584  0.00  0.00    +0.018 A 
ATOM     12  C   UNL     1       3.498   3.348   0.873  0.00  0.00    +0.016 A 
ATOM     13  C   UNL     1       3.154   2.170   1.502  0.00  0.00    +0.011 A 
ATOM     14 BR   UNL     1       5.288   5.232  -0.286  0.00  0.00    -0.050 Br
ENDBRANCH   5   8
BRANCH   1  20
ATOM     15  C   UNL     1       0.802  -1.824   1.306  0.00  0.00    +0.127 A 
ATOM     16  C   UNL     1       0.260  -2.673   0.351  0.00  0.00    +0.046 A 
ATOM     17  C   UNL     1       0.372  -4.041   0.501  0.00  0.00    +0.004 A 
ATOM     18  C   UNL     1       1.024  -4.566   1.602  0.00  0.00    +0.001 A 
ATOM     19  C   UNL     1       1.565  -3.723   2.555  0.00  0.00    +0.010 A 
ATOM     20  C   UNL     1       1.460  -2.353   2.406  0.00  0.00    +0.033 A 
BRANCH  15  21
ATOM     21  O   UNL     1       0.693  -0.477   1.160  0.00  0.00    -0.492 OA
BRANCH  21  23
ATOM     22  C   UNL     1      -0.019   1.526   0.010  0.00  0.00    +0.048 C 
ATOM     23  C   UNL     1       0.002  -0.004   0.002  0.00  0.00    +0.225 C 
ENDBRANCH  21  23
ENDBRANCH  15  21
ENDBRANCH   1  20
BRANCH   3  24
ATOM     24  C   UNL     1       5.320  -3.200   3.894  0.00  0.00    +0.015 A 
ATOM     25  C   UNL     1       5.325  -3.337   5.270  0.00  0.00    +0.009 A 
ATOM     26  C   UNL     1       6.275  -4.132   5.885  0.00  0.00    +0.004 A 
ATOM     27  C   UNL     1       7.223  -4.793   5.126  0.00  0.00    +0.049 A 
ATOM     28  C   UNL     1       7.224  -4.659   3.747  0.00  0.00    +0.162 A 
ATOM     29  C   UNL     1       6.264  -3.864   3.128  0.00  0.00    +0.163 A 
BRANCH  29  30
ATOM     30  O   UNL     1       6.257  -3.734   1.774  0.00  0.00    -0.503 OA
ATOM     31  H   UNL     1       6.796  -3.001   1.446  0.00  0.00    +0.292 HD
ENDBRANCH  29  30
BRANCH  28  32
ATOM     32  O   UNL     1       8.156  -5.309   3.000  0.00  0.00    -0.489 OA
BRANCH  32  33
ATOM     33  C   UNL     1       9.106  -6.112   3.703  0.00  0.00    +0.226 C 
ATOM     34  C   UNL     1      10.067  -6.758   2.703  0.00  0.00    +0.048 C 
ENDBRANCH  32  33
ENDBRANCH  28  32
ENDBRANCH   3  24
TORSDOF 8
