REMARK  Name = ZINC33937381
REMARK  11 active torsions:
REMARK  status: ('A' for Active; 'I' for Inactive)
REMARK    1  A    between atoms: C_1  and  C_2
REMARK    2  A    between atoms: C_2  and  C_3
REMARK    3  A    between atoms: C_3  and  C_5
REMARK    4  A    between atoms: C_3  and  N_17
REMARK    5  A    between atoms: N_9  and  C_10
REMARK    6  A    between atoms: C_10  and  C_11
REMARK    7  A    between atoms: N_17  and  C_18
REMARK    8  A    between atoms: N_17  and  C_33
REMARK    9  A    between atoms: C_18  and  C_19
REMARK   10  A    between atoms: C_23  and  C_32
REMARK   11  A    between atoms: C_25  and  C_31
REMARK                            x       y       z     vdW  Elec       q    Type
REMARK                         _______ _______ _______ _____ _____    ______ ____
ROOT
ATOM      1  N   UNL     1      -2.118  -0.293  -0.568  0.00  0.00    +0.391 N 
ATOM      2  H   UNL     1      -1.788  -0.722  -1.420  0.00  0.00    -0.080 HD
ENDROOT
BRANCH   1   3
ATOM      3  C   UNL     1      -2.538   1.087  -0.846  0.00  0.00    -0.067 C 
ATOM      4  C   UNL     1      -1.384   1.851  -1.497  0.00  0.00    -0.015 C 
ATOM      5  C   UNL     1      -1.823   3.288  -1.786  0.00  0.00    -0.002 C 
ATOM      6  C   UNL     1      -2.214   3.975  -0.476  0.00  0.00    -0.000 C 
ATOM      7  C   UNL     1      -3.368   3.211   0.175  0.00  0.00    -0.002 C 
ATOM      8  C   UNL     1      -2.930   1.774   0.464  0.00  0.00    -0.015 C 
ENDBRANCH   1   3
BRANCH   1   9
ATOM      9  C   UNL     1      -1.036  -0.284   0.426  0.00  0.00    +0.003 C 
BRANCH   9  10
ATOM     10  C   UNL     1      -1.604   0.039   1.784  0.00  0.00    +0.138 A 
ATOM     11  N   UNL     1      -2.830  -0.180   2.191  0.00  0.00    -0.115 NA
ATOM     12  N   UNL     1      -2.925   0.233   3.408  0.00  0.00    -0.023 NA
ATOM     13  N   UNL     1      -1.791   0.709   3.787  0.00  0.00    -0.044 NA
ATOM     14  N   UNL     1      -0.949   0.602   2.816  0.00  0.00    -0.228 N 
BRANCH  14  15
ATOM     15  C   UNL     1       0.456   1.019   2.831  0.00  0.00    +0.178 C 
BRANCH  15  16
ATOM     16  C   UNL     1       0.549   2.509   2.494  0.00  0.00    +0.140 C 
ATOM     17  C   UNL     1       2.023   2.983   2.557  0.00  0.00    +0.035 C 
ATOM     18  C   UNL     1       1.979   4.211   1.607  0.00  0.00    +0.031 C 
ATOM     19  C   UNL     1       0.941   3.771   0.551  0.00  0.00    +0.160 C 
ATOM     20  O   UNL     1       0.136   2.740   1.137  0.00  0.00    -0.375 OA
ENDBRANCH  15  16
ENDBRANCH  14  15
ENDBRANCH   9  10
BRANCH   9  22
ATOM     21  C   UNL     1       0.322  -1.933  -0.872  0.00  0.00    +0.002 C 
ATOM     22  C   UNL     1      -0.369  -1.661   0.466  0.00  0.00    -0.011 C 
ENDBRANCH   9  22
ENDBRANCH   1   9
BRANCH   1  23
ATOM     23  C   UNL     1      -3.258  -1.057  -0.044  0.00  0.00    -0.036 C 
BRANCH  23  24
ATOM     24  C   UNL     1      -4.250  -1.301  -1.152  0.00  0.00    +0.001 A 
ATOM     25  C   UNL     1      -4.192  -2.450  -1.870  0.00  0.00    +0.017 A 
ATOM     26  C   UNL     1      -5.171  -2.657  -2.939  0.00  0.00    -0.001 A 
ATOM     27  C   UNL     1      -5.162  -3.822  -3.713  0.00  0.00    +0.013 A 
ATOM     28  C   UNL     1      -6.089  -3.984  -4.703  0.00  0.00    -0.050 A 
ATOM     29  C   UNL     1      -7.041  -3.004  -4.948  0.00  0.00    +0.008 A 
ATOM     30  C   UNL     1      -7.069  -1.848  -4.198  0.00  0.00    -0.026 A 
ATOM     31  C   UNL     1      -6.135  -1.660  -3.184  0.00  0.00    +0.052 A 
ATOM     32  N   UNL     1      -6.140  -0.514  -2.417  0.00  0.00    -0.322 N 
ATOM     33  H   UNL     1      -6.805   0.171  -2.587  0.00  0.00    +0.169 HD
ATOM     34  C   UNL     1      -5.240  -0.336  -1.434  0.00  0.00    +0.251 A 
ATOM     35  O   UNL     1      -5.278   0.688  -0.774  0.00  0.00    -0.268 OA
ATOM     36  C   UNL     1      -8.107  -0.791  -4.475  0.00  0.00    +0.046 C 
ATOM     37  C   UNL     1      -6.079  -5.240  -5.537  0.00  0.00    +0.044 C 
ENDBRANCH  23  24
ENDBRANCH   1  23
TORSDOF 8
