REMARK  Name = ZINC35981164
REMARK  9 active torsions:
REMARK  status: ('A' for Active; 'I' for Inactive)
REMARK    1  A    between atoms: C_1  and  C_2
REMARK    2  A    between atoms: C_2  and  C_3
REMARK    3  A    between atoms: C_3  and  C_5
REMARK    4  A    between atoms: C_3  and  O_6
REMARK    5  A    between atoms: O_6  and  C_7
REMARK    6  A    between atoms: C_7  and  C_9
REMARK    7  A    between atoms: C_10  and  C_36
REMARK    8  A    between atoms: C_14  and  C_16
REMARK    9  A    between atoms: C_27  and  C_30
REMARK                            x       y       z     vdW  Elec       q    Type
REMARK                         _______ _______ _______ _____ _____    ______ ____
ROOT
ATOM      1  C   UNL     1       4.024   0.687  -2.434  0.00  0.00    +0.065 C 
ATOM      2  C   UNL     1       4.686   0.647  -3.603  0.00  0.00    +0.016 C 
ATOM      3  N   UNL     1       6.037   0.851  -3.641  0.00  0.00    -0.321 N 
ATOM      4  C   UNL     1       6.797   0.705  -2.512  0.00  0.00    +0.016 C 
ATOM      5  C   UNL     1       6.224   0.743  -1.291  0.00  0.00    +0.024 C 
ATOM      6  C   UNL     1       4.738   0.967  -1.144  0.00  0.00    +0.092 C 
ATOM      7  C   UNL     1       6.991   0.579  -0.124  0.00  0.00    +0.162 C 
ATOM      8  O   UNL     1       6.444   0.626   0.961  0.00  0.00    -0.292 OA
ATOM      9  C   UNL     1       8.475   0.345  -0.193  0.00  0.00    +0.088 C 
ATOM     10  C   UNL     1       8.809  -0.355  -1.514  0.00  0.00    +0.032 C 
ATOM     11  C   UNL     1       8.285   0.505  -2.666  0.00  0.00    +0.059 C 
ATOM     12  C   UNL     1       3.933   0.376  -4.880  0.00  0.00    +0.061 C 
ATOM     13  H   UNL     1       6.462   1.100  -4.477  0.00  0.00    +0.152 HD
ENDROOT
BRANCH   6  14
ATOM     14  C   UNL     1       4.486   2.397  -0.739  0.00  0.00    -0.034 A 
ATOM     15  C   UNL     1       4.869   3.430  -1.575  0.00  0.00    +0.006 A 
ATOM     16  C   UNL     1       4.638   4.741  -1.205  0.00  0.00    +0.022 A 
ATOM     17  C   UNL     1       4.024   5.021   0.003  0.00  0.00    +0.059 A 
ATOM     18  C   UNL     1       3.640   3.987   0.839  0.00  0.00    +0.060 A 
ATOM     19  C   UNL     1       3.867   2.675   0.465  0.00  0.00    +0.026 A 
ATOM     20 CL   UNL     1       2.869   4.337   2.355  0.00  0.00    -0.082 Cl
ATOM     21 CL   UNL     1       3.735   6.668   0.468  0.00  0.00    -0.082 Cl
ENDBRANCH   6  14
BRANCH  10  22
ATOM     22  C   UNL     1      10.302  -0.517  -1.638  0.00  0.00    -0.044 A 
ATOM     23  C   UNL     1      11.122   0.596  -1.631  0.00  0.00    +0.004 A 
ATOM     24  C   UNL     1      12.491   0.447  -1.744  0.00  0.00    +0.000 A 
ATOM     25  C   UNL     1      13.042  -0.816  -1.864  0.00  0.00    +0.000 A 
ATOM     26  C   UNL     1      12.222  -1.929  -1.870  0.00  0.00    +0.000 A 
ATOM     27  C   UNL     1      10.853  -1.780  -1.753  0.00  0.00    +0.004 A 
ENDBRANCH  10  22
BRANCH   1  28
ATOM     28  C   UNL     1       2.627   0.467  -2.419  0.00  0.00    +0.338 C 
ATOM     29  O   UNL     1       2.182  -0.590  -2.011  0.00  0.00    -0.245 OA
BRANCH  28  30
ATOM     30  O   UNL     1       1.788   1.428  -2.859  0.00  0.00    -0.458 OA
BRANCH  30  31
ATOM     31  C   UNL     1       0.389   1.137  -2.816  0.00  0.00    +0.173 C 
ATOM     32  C   UNL     1      -0.182   1.579  -1.467  0.00  0.00    +0.052 C 
BRANCH  31  34
ATOM     33  C   UNL     1       0.160   1.357  -5.294  0.00  0.00    +0.007 C 
ATOM     34  C   UNL     1      -0.323   1.888  -3.943  0.00  0.00    +0.041 C 
ENDBRANCH  31  34
ENDBRANCH  30  31
ENDBRANCH  28  30
ENDBRANCH   1  28
TORSDOF 6
