REMARK  Name = ZINC03841029
REMARK  13 active torsions:
REMARK  status: ('A' for Active; 'I' for Inactive)
REMARK    1  A    between atoms: C_1  and  C_2
REMARK    2  A    between atoms: C_2  and  C_3
REMARK    3  A    between atoms: C_3  and  C_4
REMARK    4  A    between atoms: C_4  and  N_5
REMARK    5  A    between atoms: C_14  and  C_36
REMARK    6  A    between atoms: C_15  and  C_17
REMARK    7  A    between atoms: C_17  and  C_18
REMARK    8  A    between atoms: N_20  and  C_21
REMARK    9  A    between atoms: C_21  and  C_22
REMARK   10  A    between atoms: C_29  and  O_35
REMARK   11  A    between atoms: C_31  and  C_32
REMARK   12  A    between atoms: C_31  and  C_33
REMARK   13  A    between atoms: C_33  and  O_34
REMARK                            x       y       z     vdW  Elec       q    Type
REMARK                         _______ _______ _______ _____ _____    ______ ____
ROOT
ATOM      1  N   UNL     1       4.684   3.334  -3.581  0.00  0.00    -0.323 N 
ATOM      2  C   UNL     1       3.655   2.997  -4.446  0.00  0.00    +0.159 A 
ATOM      3  N   UNL     1       2.513   2.394  -4.180  0.00  0.00    -0.229 NA
ATOM      4  C   UNL     1       1.612   2.133  -5.126  0.00  0.00    +0.058 A 
ATOM      5  C   UNL     1       1.938   2.525  -6.383  0.00  0.00    +0.015 A 
ATOM      6  S   UNL     1       3.537   3.258  -6.160  0.00  0.00    -0.057 S 
ATOM      7  C   UNL     1       1.132   2.367  -7.623  0.00  0.00    +0.049 C 
ATOM      8  C   UNL     1      -0.004   1.359  -7.359  0.00  0.00    +0.011 C 
ATOM      9  C   UNL     1      -0.676   1.707  -6.029  0.00  0.00    -0.019 C 
ATOM     10  C   UNL     1       0.285   1.438  -4.863  0.00  0.00    +0.054 C 
ATOM     11  C   UNL     1      -1.912   0.825  -5.817  0.00  0.00    +0.010 C 
ATOM     12  C   UNL     1      -2.896   1.004  -6.971  0.00  0.00    +0.032 C 
ATOM     13  C   UNL     1      -2.209   0.584  -8.274  0.00  0.00    +0.123 C 
ATOM     14  C   UNL     1      -1.006   1.494  -8.510  0.00  0.00    +0.021 C 
ATOM     15  C   UNL     1      -0.325   1.103  -9.823  0.00  0.00    +0.016 C 
ATOM     16  C   UNL     1      -1.081   3.182  -6.030  0.00  0.00    +0.012 C 
ATOM     17  H   UNL     1       4.612   3.125  -2.637  0.00  0.00    +0.148 HD
ENDROOT
BRANCH  13  18
ATOM     18  O   UNL     1      -3.127   0.712  -9.362  0.00  0.00    -0.391 OA
ATOM     19  H   UNL     1      -3.922   0.169  -9.272  0.00  0.00    +0.210 HD
ENDBRANCH  13  18
BRANCH   1  20
ATOM     20  C   UNL     1       5.879   4.008  -4.094  0.00  0.00    +0.103 C 
BRANCH  20  21
ATOM     21  C   UNL     1       6.853   4.266  -2.942  0.00  0.00    +0.018 C 
BRANCH  21  23
ATOM     22  C   UNL     1       9.075   5.227  -2.325  0.00  0.00    +0.004 C 
ATOM     23  C   UNL     1       8.101   4.970  -3.477  0.00  0.00    -0.002 C 
ENDBRANCH  21  23
ENDBRANCH  20  21
ENDBRANCH   1  20
BRANCH  10  24
ATOM     24  C   UNL     1      -0.324   1.976  -3.567  0.00  0.00    +0.106 C 
BRANCH  24  25
ATOM     25  C   UNL     1       0.522   1.543  -2.397  0.00  0.00    +0.214 C 
ATOM     26  O   UNL     1       1.514   0.871  -2.582  0.00  0.00    -0.276 OA
ATOM     27  N   UNL     1       0.176   1.903  -1.145  0.00  0.00    -0.308 N 
ATOM     28  H   UNL     1      -0.617   2.441  -0.997  0.00  0.00    +0.149 HD
BRANCH  27  29
ATOM     29  C   UNL     1       0.999   1.483  -0.008  0.00  0.00    +0.178 C 
BRANCH  29  30
ATOM     30  C   UNL     1       0.399   2.013   1.269  0.00  0.00    +0.122 A 
ATOM     31  C   UNL     1      -0.515   1.383   2.029  0.00  0.00    +0.046 A 
ATOM     32  C   UNL     1      -0.792   2.233   3.124  0.00  0.00    +0.041 A 
ATOM     33  C   UNL     1      -0.037   3.335   2.963  0.00  0.00    +0.195 A 
ATOM     34  O   UNL     1       0.682   3.196   1.838  0.00  0.00    -0.466 OA
ENDBRANCH  29  30
ENDBRANCH  27  29
ENDBRANCH  24  25
ENDBRANCH  10  24
BRANCH  14  35
ATOM     35  C   UNL     1      -1.478   2.946  -8.602  0.00  0.00    +0.165 C 
BRANCH  35  36
ATOM     36  O   UNL     1      -2.285   3.111  -9.770  0.00  0.00    -0.394 OA
ATOM     37  H   UNL     1      -2.620   4.010  -9.893  0.00  0.00    +0.209 HD
ENDBRANCH  35  36
ENDBRANCH  14  35
TORSDOF 10
