REMARK  Name = ZINC03007060
REMARK  13 active torsions:
REMARK  status: ('A' for Active; 'I' for Inactive)
REMARK    1  A    between atoms: C_1  and  C_2
REMARK    2  A    between atoms: C_2  and  C_3
REMARK    3  A    between atoms: C_3  and  N_4
REMARK    4  A    between atoms: N_4  and  C_5
REMARK    5  A    between atoms: N_4  and  S_8
REMARK    6  A    between atoms: C_5  and  C_6
REMARK    7  A    between atoms: C_6  and  C_7
REMARK    8  A    between atoms: S_8  and  C_11
REMARK    9  A    between atoms: C_14  and  C_17
REMARK   10  A    between atoms: N_19  and  C_20
REMARK   11  A    between atoms: C_21  and  C_30
REMARK   12  A    between atoms: C_28  and  C_29
REMARK   13  A    between atoms: C_28  and  N_65
REMARK                            x       y       z     vdW  Elec       q    Type
REMARK                         _______ _______ _______ _____ _____    ______ ____
ROOT
ATOM      1  C   UNL     1       2.216   2.522   3.518  0.00  0.00    +0.249 C 
ATOM      2  O   UNL     1       3.244   3.136   3.307  0.00  0.00    -0.270 OA
ATOM      3  N   UNL     1       1.469   2.083   2.486  0.00  0.00    -0.275 N 
ATOM      4  H   UNL     1       0.649   1.594   2.654  0.00  0.00    +0.156 HD
ENDROOT
BRANCH   3   5
ATOM      5  C   UNL     1       1.873   2.331   1.184  0.00  0.00    +0.085 A 
ATOM      6  C   UNL     1       1.245   1.963   0.001  0.00  0.00    +0.068 A 
ATOM      7  C   UNL     1       1.880   2.355  -1.243  0.00  0.00    -0.027 A 
ATOM      8  C   UNL     1       3.038   3.042  -1.109  0.00  0.00    -0.021 A 
ATOM      9  S   UNL     1       3.286   3.172   0.637  0.00  0.00    -0.079 S 
ATOM     10  C   UNL     1       3.896   3.562  -2.220  0.00  0.00    -0.035 C 
ATOM     11  C   UNL     1       2.017   2.977  -3.634  0.00  0.00    -0.074 C 
ATOM     12  C   UNL     1       1.330   2.047  -2.631  0.00  0.00    +0.018 C 
ATOM     13  N   UNL     1       3.482   2.880  -3.470  0.00  0.00    +0.383 N 
ATOM     14  H   UNL     1       3.747   1.889  -3.413  0.00  0.00    -0.081 HD
BRANCH   6  15
ATOM     15  C   UNL     1      -0.014   1.213   0.009  0.00  0.00    +0.244 C 
ATOM     16  O   UNL     1       0.002  -0.004   0.002  0.00  0.00    -0.270 OA
ATOM     17  N   UNL     1      -1.191   1.871   0.018  0.00  0.00    -0.325 N 
ATOM     18  H   UNL     1      -2.024   1.375   0.019  0.00  0.00    +0.145 HD
ATOM     19  H   UNL     1      -1.204   2.841   0.023  0.00  0.00    +0.145 HD
ENDBRANCH   6  15
BRANCH  13  20
ATOM     20  C   UNL     1       4.163   3.493  -4.631  0.00  0.00    -0.082 C 
ATOM     21  C   UNL     1       3.711   4.943  -4.811  0.00  0.00    -0.017 C 
ENDBRANCH  13  20
ENDBRANCH   3   5
BRANCH   1  25
ATOM     22  C   UNL     1       0.977   1.763   7.509  0.00  0.00    +0.106 A 
ATOM     23  C   UNL     1       2.147   2.462   7.272  0.00  0.00    +0.029 A 
ATOM     24  C   UNL     1       2.555   2.712   5.979  0.00  0.00    +0.015 A 
ATOM     25  C   UNL     1       1.784   2.258   4.907  0.00  0.00    +0.037 A 
ATOM     26  C   UNL     1       0.601   1.559   5.153  0.00  0.00    +0.015 A 
ATOM     27  C   UNL     1       0.208   1.310   6.451  0.00  0.00    +0.029 A 
BRANCH  22  28
ATOM     28  S   UNL     1       0.463   1.448   9.165  0.00  0.00    +0.061 S 
ATOM     29  O   UNL     1      -0.380   0.305   9.118  0.00  0.00    -0.153 OA
ATOM     30  O   UNL     1       1.632   1.500   9.970  0.00  0.00    -0.153 OA
BRANCH  28  31
ATOM     31  N   UNL     1      -0.490   2.720   9.632  0.00  0.00    -0.177 NA
BRANCH  31  32
ATOM     32  C   UNL     1      -1.936   2.674   9.405  0.00  0.00    +0.109 C 
BRANCH  32  34
ATOM     33  C   UNL     1      -4.145   2.113  10.428  0.00  0.00    +0.005 C 
ATOM     34  C   UNL     1      -2.635   2.161  10.666  0.00  0.00    +0.014 C 
ENDBRANCH  32  34
ENDBRANCH  31  32
BRANCH  31  35
ATOM     35  C   UNL     1       0.114   3.890  10.273  0.00  0.00    +0.109 C 
BRANCH  35  36
ATOM     36  C   UNL     1       0.394   4.962   9.217  0.00  0.00    +0.014 C 
ATOM     37  C   UNL     1       1.025   6.185   9.886  0.00  0.00    +0.005 C 
ENDBRANCH  35  36
ENDBRANCH  31  35
ENDBRANCH  28  31
ENDBRANCH  22  28
ENDBRANCH   1  25
TORSDOF 10
