REMARK  Name = ZINC63762699
REMARK  3 active torsions:
REMARK  status: ('A' for Active; 'I' for Inactive)
REMARK    1  A    between atoms: C_10  and  C_11
REMARK    2  A    between atoms: N_14  and  C_17
REMARK    3  A    between atoms: C_17  and  C_18
REMARK                            x       y       z     vdW  Elec       q    Type
REMARK                         _______ _______ _______ _____ _____    ______ ____
ROOT
ATOM      1  C   UNL     1       4.944   0.133  -0.044  0.00  0.00    -0.041 C 
ATOM      2  C   UNL     1       5.322   0.723  -1.160  0.00  0.00    -0.007 C 
ATOM      3  C   UNL     1       6.596   1.508  -1.280  0.00  0.00    +0.112 C 
ATOM      4  N   UNL     1       7.107   1.854   0.052  0.00  0.00    -0.291 NA
ATOM      5  C   UNL     1       7.180   0.652   0.898  0.00  0.00    +0.090 C 
ATOM      6  C   UNL     1       5.751   0.202   1.222  0.00  0.00    +0.051 C 
ENDROOT
BRANCH   1  16
ATOM      7  C   UNL     1      -0.016   1.357   0.009  0.00  0.00    +0.001 A 
ATOM      8  C   UNL     1       1.168   2.090   0.002  0.00  0.00    +0.001 A 
ATOM      9  C   UNL     1       2.379   1.464  -0.013  0.00  0.00    +0.009 A 
ATOM     10  C   UNL     1       2.436   0.064  -0.021  0.00  0.00    -0.010 A 
ATOM     11  C   UNL     1       1.233  -0.683  -0.013  0.00  0.00    -0.017 A 
ATOM     12  C   UNL     1       0.002  -0.004   0.002  0.00  0.00    +0.008 A 
ATOM     13  C   UNL     1       1.289  -2.087  -0.021  0.00  0.00    +0.008 A 
ATOM     14  C   UNL     1       2.494  -2.723  -0.036  0.00  0.00    +0.001 A 
ATOM     15  C   UNL     1       3.685  -2.007  -0.043  0.00  0.00    +0.009 A 
ATOM     16  C   UNL     1       3.676  -0.621  -0.036  0.00  0.00    -0.014 A 
ENDBRANCH   1  16
BRANCH   4  17
ATOM     17  C   UNL     1       8.418   2.512  -0.042  0.00  0.00    +0.161 C 
BRANCH  17  18
ATOM     18  C   UNL     1       8.262   3.846  -0.724  0.00  0.00    +0.150 A 
ATOM     19  N   UNL     1       8.366   3.931  -2.038  0.00  0.00    -0.198 NA
ATOM     20  C   UNL     1       8.229   5.108  -2.645  0.00  0.00    +0.217 A 
ATOM     21  N   UNL     1       7.987   6.199  -1.926  0.00  0.00    -0.181 NA
ATOM     22  C   UNL     1       7.883   6.110  -0.605  0.00  0.00    +0.217 A 
ATOM     23  N   UNL     1       8.016   4.928  -0.006  0.00  0.00    -0.198 NA
ATOM     24  N   UNL     1       7.631   7.240   0.146  0.00  0.00    -0.327 N 
ATOM     25  N   UNL     1       8.339   5.195  -4.017  0.00  0.00    -0.327 N 
ATOM     26  H   UNL     1       7.531   8.100  -0.291  0.00  0.00    +0.145 HD
ATOM     27  H   UNL     1       7.556   7.175   1.111  0.00  0.00    +0.145 HD
ATOM     28  H   UNL     1       8.516   4.398  -4.541  0.00  0.00    +0.145 HD
ATOM     29  H   UNL     1       8.239   6.053  -4.458  0.00  0.00    +0.145 HD
ENDBRANCH  17  18
ENDBRANCH   4  17
TORSDOF 3
