REMARK  Name = ZINC04968429
REMARK  10 active torsions:
REMARK  status: ('A' for Active; 'I' for Inactive)
REMARK    1  A    between atoms: C_1  and  C_2
REMARK    2  A    between atoms: C_9  and  C_13
REMARK    3  A    between atoms: C_9  and  C_14
REMARK    4  A    between atoms: N_16  and  C_17
REMARK    5  A    between atoms: N_16  and  C_23
REMARK    6  A    between atoms: C_17  and  C_18
REMARK    7  A    between atoms: C_23  and  C_24
REMARK    8  A    between atoms: N_26  and  C_27
REMARK    9  A    between atoms: C_27  and  C_28
REMARK   10  A    between atoms: C_27  and  C_29
REMARK                            x       y       z     vdW  Elec       q    Type
REMARK                         _______ _______ _______ _____ _____    ______ ____
ROOT
ATOM      1  C   UNL     1      -1.122   2.042   0.122  0.00  0.00    +0.240 C 
ATOM      2  O   UNL     1      -2.168   1.447  -0.030  0.00  0.00    -0.273 OA
ATOM      3  N   UNL     1       0.029   1.356   0.267  0.00  0.00    -0.286 N 
ENDROOT
BRANCH   1  12
ATOM      4  C   UNL     1       3.876   5.120   2.473  0.00  0.00    +0.044 C 
ATOM      5  C   UNL     1       2.560   4.751   1.837  0.00  0.00    -0.046 C 
ATOM      6  C   UNL     1       2.505   4.425   0.499  0.00  0.00    +0.044 C 
ATOM      7  C   UNL     1       1.271   4.075  -0.068  0.00  0.00    +0.119 C 
ATOM      8  N   UNL     1       1.200   3.802  -1.377  0.00  0.00    -0.165 NA
ATOM      9  C   UNL     1       0.046   3.785  -2.018  0.00  0.00    +0.240 C 
ATOM     10  O   UNL     1       0.014   3.522  -3.206  0.00  0.00    -0.274 OA
ATOM     11  C   UNL     1      -1.234   4.091  -1.279  0.00  0.00    +0.133 C 
ATOM     12  C   UNL     1      -1.110   3.549   0.150  0.00  0.00    +0.122 C 
ATOM     13  N   UNL     1       0.157   4.021   0.725  0.00  0.00    -0.279 N 
ATOM     14  C   UNL     1       0.211   4.386   2.029  0.00  0.00    +0.078 C 
ATOM     15  C   UNL     1       1.387   4.742   2.600  0.00  0.00    +0.019 C 
ATOM     16  C   UNL     1      -2.279   4.056   0.996  0.00  0.00    +0.042 C 
ENDBRANCH   1  12
BRANCH   3  17
ATOM     17  C   UNL     1       0.043  -0.098   0.087  0.00  0.00    +0.150 C 
BRANCH  17  18
ATOM     18  C   UNL     1      -0.100  -0.771   1.428  0.00  0.00    +0.007 A 
ATOM     19  C   UNL     1      -1.228  -1.062   2.122  0.00  0.00    +0.013 A 
ATOM     20  C   UNL     1      -1.118  -1.694   3.346  0.00  0.00    +0.008 A 
ATOM     21  C   UNL     1       0.115  -1.995   3.822  0.00  0.00    +0.045 A 
ATOM     22  S   UNL     1       1.173  -1.386   2.519  0.00  0.00    -0.100 S 
ENDBRANCH  17  18
ENDBRANCH   3  17
BRANCH   3  23
ATOM     23  C   UNL     1       1.268   2.065   0.597  0.00  0.00    +0.203 C 
BRANCH  23  24
ATOM     24  C   UNL     1       2.009   2.399  -0.671  0.00  0.00    +0.231 C 
ATOM     25  O   UNL     1       1.499   2.176  -1.749  0.00  0.00    -0.274 OA
ATOM     26  N   UNL     1       3.240   2.945  -0.609  0.00  0.00    -0.312 N 
ATOM     27  H   UNL     1       3.680   3.052   0.249  0.00  0.00    +0.149 HD
BRANCH  26  28
ATOM     28  C   UNL     1       3.912   3.378  -1.836  0.00  0.00    +0.067 C 
ATOM     29  C   UNL     1       3.560   4.840  -2.122  0.00  0.00    +0.027 C 
ATOM     30  C   UNL     1       5.426   3.244  -1.663  0.00  0.00    +0.027 C 
ENDBRANCH  26  28
ENDBRANCH  23  24
ENDBRANCH   3  23
TORSDOF 6
