REMARK  Name = ZINC13881267
REMARK  8 active torsions:
REMARK  status: ('A' for Active; 'I' for Inactive)
REMARK    1  A    between atoms: C_1  and  C_2
REMARK    2  A    between atoms: C_4  and  C_15
REMARK    3  A    between atoms: C_5  and  C_14
REMARK    4  A    between atoms: N_6  and  C_7
REMARK    5  A    between atoms: C_7  and  C_8
REMARK    6  A    between atoms: C_26  and  S_27
REMARK    7  A    between atoms: S_27  and  C_28
REMARK    8  A    between atoms: C_28  and  C_29
REMARK                            x       y       z     vdW  Elec       q    Type
REMARK                         _______ _______ _______ _____ _____    ______ ____
ROOT
ATOM      1  C   UNL     1       0.043  -3.376  -1.449  0.00  0.00    +0.026 C 
ATOM      2  C   UNL     1      -0.069  -3.278  -2.821  0.00  0.00    +0.078 C 
ATOM      3  C   UNL     1      -0.177  -4.485  -3.689  0.00  0.00    +0.116 C 
ATOM      4  N   UNL     1      -0.767  -5.589  -3.316  0.00  0.00    -0.386 N 
ATOM      5  N   UNL     1       0.421  -4.313  -4.953  0.00  0.00    -0.212 N 
ATOM      6  C   UNL     1       0.575  -3.030  -5.439  0.00  0.00    +0.183 C 
ATOM      7  N   UNL     1       0.310  -1.913  -4.797  0.00  0.00    -0.152 NA
ATOM      8  C   UNL     1      -0.094  -1.967  -3.512  0.00  0.00    +0.273 C 
ATOM      9  O   UNL     1      -0.469  -0.962  -2.930  0.00  0.00    -0.268 OA
ATOM     10  S   UNL     1       1.178  -3.268  -6.974  0.00  0.00    +0.048 S 
ATOM     11  N   UNL     1       1.329  -4.938  -6.954  0.00  0.00    -0.185 NA
ATOM     12  C   UNL     1       0.872  -5.288  -5.784  0.00  0.00    +0.176 C 
ATOM     13  H   UNL     1      -1.163  -5.653  -2.433  0.00  0.00    +0.157 HD
ATOM     14  H   UNL     1      -0.808  -6.345  -3.922  0.00  0.00    +0.157 HD
ENDROOT
BRANCH   1  18
ATOM     15  C   UNL     1       1.790   1.167   0.049  0.00  0.00    +0.063 C 
ATOM     16  C   UNL     1       1.097  -0.170  -0.004  0.00  0.00    +0.017 A 
ATOM     17  C   UNL     1       1.121  -1.018  -1.045  0.00  0.00    +0.030 A 
ATOM     18  C   UNL     1       0.316  -2.182  -0.651  0.00  0.00    -0.003 A 
ATOM     19  C   UNL     1      -0.132  -1.916   0.632  0.00  0.00    +0.023 A 
ATOM     20  N   UNL     1       0.349  -0.714   1.001  0.00  0.00    -0.343 N 
ATOM     21  C   UNL     1      -1.001  -2.816   1.471  0.00  0.00    +0.064 C 
BRANCH  20  22
ATOM     22  C   UNL     1       0.102  -0.077   2.297  0.00  0.00    +0.156 C 
BRANCH  22  23
ATOM     23  C   UNL     1      -1.146   0.764   2.213  0.00  0.00    -0.028 A 
ATOM     24  C   UNL     1      -1.061   2.090   1.832  0.00  0.00    +0.005 A 
ATOM     25  C   UNL     1      -2.206   2.862   1.756  0.00  0.00    +0.000 A 
ATOM     26  C   UNL     1      -3.435   2.307   2.060  0.00  0.00    +0.000 A 
ATOM     27  C   UNL     1      -3.519   0.981   2.440  0.00  0.00    +0.000 A 
ATOM     28  C   UNL     1      -2.375   0.208   2.513  0.00  0.00    +0.005 A 
ENDBRANCH  22  23
ENDBRANCH  20  22
ENDBRANCH   1  18
BRANCH  12  29
ATOM     29  S   UNL     1       0.840  -6.980  -5.293  0.00  0.00    -0.084 S 
BRANCH  29  30
ATOM     30  C   UNL     1       1.532  -7.863  -6.719  0.00  0.00    +0.112 C 
BRANCH  30  31
ATOM     31  C   UNL     1       1.562  -9.341  -6.428  0.00  0.00    -0.037 A 
ATOM     32  C   UNL     1       2.672  -9.905  -5.827  0.00  0.00    +0.004 A 
ATOM     33  C   UNL     1       2.699 -11.261  -5.560  0.00  0.00    +0.000 A 
ATOM     34  C   UNL     1       1.617 -12.053  -5.894  0.00  0.00    +0.000 A 
ATOM     35  C   UNL     1       0.507 -11.489  -6.495  0.00  0.00    +0.000 A 
ATOM     36  C   UNL     1       0.477 -10.133  -6.758  0.00  0.00    +0.004 A 
ENDBRANCH  30  31
ENDBRANCH  29  30
ENDBRANCH  12  29
TORSDOF 6
