REMARK  Name = ZINC04501672
REMARK  3 active torsions:
REMARK  status: ('A' for Active; 'I' for Inactive)
REMARK    1  A    between atoms: C_3  and  C_6
REMARK    2  A    between atoms: C_9  and  C_11
REMARK    3  A    between atoms: C_9  and  O_15
REMARK                            x       y       z     vdW  Elec       q    Type
REMARK                         _______ _______ _______ _____ _____    ______ ____
ROOT
ATOM      1  C   UNL     1      -0.162   4.862  -0.236  0.00  0.00    +0.106 C 
ATOM      2  N   UNL     1      -0.288   6.135  -0.053  0.00  0.00    -0.175 NA
ATOM      3  N   UNL     1       0.895   6.852  -0.222  0.00  0.00    -0.149 N 
ATOM      4  C   UNL     1       1.972   5.916  -0.581  0.00  0.00    +0.257 C 
ATOM      5  C   UNL     1       1.271   4.543  -0.597  0.00  0.00    +0.127 C 
ATOM      6  C   UNL     1       1.033   8.221  -0.079  0.00  0.00    +0.258 C 
ATOM      7  N   UNL     1       2.210   8.662  -0.286  0.00  0.00    -0.143 NA
ATOM      8  N   UNL     1       2.569  10.000  -0.316  0.00  0.00    -0.223 N 
ATOM      9  C   UNL     1       1.980  10.941   0.463  0.00  0.00    +0.093 C 
ATOM     10  C   UNL     1       0.557  11.348   0.227  0.00  0.00    +0.146 C 
ATOM     11  C   UNL     1      -0.374  10.187   0.457  0.00  0.00    +0.143 A 
ATOM     12  N   UNL     1      -0.126   8.883   0.259  0.00  0.00    -0.183 N 
ATOM     13  N   UNL     1      -1.348   8.218   0.518  0.00  0.00    -0.151 NA
ATOM     14  C   UNL     1      -2.203   9.123   0.904  0.00  0.00    +0.245 A 
ATOM     15  N   UNL     1      -1.609  10.311   0.887  0.00  0.00    -0.218 NA
ATOM     16  H   UNL     1       3.274  10.277  -0.922  0.00  0.00    +0.176 HD
ATOM     17  H   UNL     1       3.580  11.300   1.657  0.00  0.00    +0.157 HD
ATOM     18  N   UNL     1       2.610  11.539   1.452  0.00  0.00    -0.389 N 
ATOM     19  H   UNL     1       2.125  12.246   2.017  0.00  0.00    +0.157 HD
ENDROOT
BRANCH   1  22
ATOM     20  C   UNL     1      -3.225   2.919   0.200  0.00  0.00    +0.042 A 
ATOM     21  C   UNL     1      -2.541   4.149   0.208  0.00  0.00    +0.051 A 
ATOM     22  C   UNL     1      -1.243   3.879  -0.117  0.00  0.00    +0.150 A 
ATOM     23  O   UNL     1      -1.130   2.549  -0.311  0.00  0.00    -0.462 OA
ATOM     24  C   UNL     1      -2.325   1.967  -0.117  0.00  0.00    +0.196 A 
ENDBRANCH   1  22
BRANCH   4  25
ATOM     25  C   UNL     1       3.081   5.942   0.473  0.00  0.00    +0.438 C 
ATOM     26  F   UNL     1       4.027   4.953   0.179  0.00  0.00    -0.166 F 
ATOM     27  F   UNL     1       3.701   7.196   0.468  0.00  0.00    -0.166 F 
ATOM     28  F   UNL     1       2.530   5.699   1.736  0.00  0.00    -0.166 F 
ENDBRANCH   4  25
BRANCH   4  29
ATOM     29  O   UNL     1       2.498   6.227  -1.873  0.00  0.00    -0.363 OA
ATOM     30  H   UNL     1       2.950   7.081  -1.919  0.00  0.00    +0.212 HD
ENDBRANCH   4  29
TORSDOF 3
