REMARK  Name = ZINC38678418
REMARK  7 active torsions:
REMARK  status: ('A' for Active; 'I' for Inactive)
REMARK    1  A    between atoms: C_3  and  C_8
REMARK    2  A    between atoms: C_13  and  O_22
REMARK    3  A    between atoms: C_17  and  N_21
REMARK    4  A    between atoms: C_18  and  C_19
REMARK    5  A    between atoms: O_22  and  C_23
REMARK    6  A    between atoms: C_23  and  C_25
REMARK    7  A    between atoms: C_29  and  N_31
REMARK                            x       y       z     vdW  Elec       q    Type
REMARK                         _______ _______ _______ _____ _____    ______ ____
ROOT
ATOM      1  C   UNL     1       3.654   2.243   0.006  0.00  0.00    +0.098 C 
ATOM      2  C   UNL     1       4.459   1.872   1.224  0.00  0.00    +0.008 A 
ATOM      3  C   UNL     1       4.171   2.470   2.438  0.00  0.00    +0.012 A 
ATOM      4  C   UNL     1       4.898   2.142   3.565  0.00  0.00    +0.047 A 
ATOM      5  C   UNL     1       5.923   1.210   3.482  0.00  0.00    +0.135 A 
ATOM      6  C   UNL     1       6.214   0.610   2.268  0.00  0.00    +0.093 A 
ATOM      7  C   UNL     1       5.481   0.940   1.136  0.00  0.00    +0.138 A 
ATOM      8  O   UNL     1       5.778   0.343  -0.045  0.00  0.00    -0.441 OA
ATOM      9  C   UNL     1       5.374   0.901  -1.198  0.00  0.00    +0.199 C 
ATOM     10  C   UNL     1       4.373   1.807  -1.240  0.00  0.00    +0.098 C 
ENDROOT
BRANCH   1  13
ATOM     11  C   UNL     1      -0.080   1.700   0.150  0.00  0.00    +0.003 A 
ATOM     12  C   UNL     1       1.154   2.321   0.091  0.00  0.00    +0.005 A 
ATOM     13  C   UNL     1       2.310   1.564   0.071  0.00  0.00    -0.032 A 
ATOM     14  C   UNL     1       2.234   0.184   0.110  0.00  0.00    +0.043 A 
ATOM     15  C   UNL     1       1.000  -0.439   0.169  0.00  0.00    +0.124 A 
ATOM     16  C   UNL     1      -0.158   0.321   0.189  0.00  0.00    +0.038 A 
ATOM     17  F   UNL     1       0.924  -1.787   0.206  0.00  0.00    -0.205 F 
ENDBRANCH   1  13
BRANCH   9  18
ATOM     18  N   UNL     1       5.996   0.540  -2.367  0.00  0.00    -0.328 N 
ATOM     19  H   UNL     1       6.717  -0.110  -2.353  0.00  0.00    +0.145 HD
ATOM     20  H   UNL     1       5.716   0.934  -3.208  0.00  0.00    +0.145 HD
ENDBRANCH   9  18
BRANCH  10  21
ATOM     21  C   UNL     1       3.988   2.364  -2.502  0.00  0.00    +0.101 C 
ATOM     22  N   UNL     1       3.683   2.806  -3.503  0.00  0.00    -0.191 NA
ENDBRANCH  10  21
BRANCH   5  23
ATOM     23  O   UNL     1       6.641   0.887   4.591  0.00  0.00    -0.422 OA
BRANCH  23  24
ATOM     24  C   UNL     1       6.022   0.190   5.564  0.00  0.00    +0.345 C 
ATOM     25  O   UNL     1       4.891  -0.220   5.392  0.00  0.00    -0.245 OA
BRANCH  24  26
ATOM     26  C   UNL     1       6.718  -0.075   6.839  0.00  0.00    +0.062 A 
ATOM     27  C   UNL     1       8.015   0.400   7.042  0.00  0.00    +0.015 A 
ATOM     28  C   UNL     1       8.659   0.149   8.235  0.00  0.00    +0.003 A 
ATOM     29  C   UNL     1       8.023  -0.572   9.231  0.00  0.00    +0.033 A 
ATOM     30  C   UNL     1       6.738  -1.045   9.037  0.00  0.00    +0.127 A 
ATOM     31  C   UNL     1       6.079  -0.796   7.850  0.00  0.00    +0.047 A 
BRANCH  30  32
ATOM     32  N   UNL     1       6.065  -1.816  10.106  0.00  0.00    +0.056 N 
ATOM     33  O   UNL     1       6.639  -2.031  11.149  0.00  0.00    -0.126 OA
ATOM     34  O   UNL     1       4.942  -2.230   9.938  0.00  0.00    -0.126 OA
ENDBRANCH  30  32
ENDBRANCH  24  26
ENDBRANCH  23  24
ENDBRANCH   5  23
TORSDOF 7
