REMARK  Name = ZINC35556160
REMARK  9 active torsions:
REMARK  status: ('A' for Active; 'I' for Inactive)
REMARK    1  A    between atoms: C_1  and  C_2
REMARK    2  A    between atoms: C_6  and  N_9
REMARK    3  A    between atoms: C_7  and  C_8
REMARK    4  A    between atoms: C_10  and  C_12
REMARK    5  A    between atoms: N_17  and  S_19
REMARK    6  A    between atoms: S_19  and  C_22
REMARK    7  A    between atoms: C_24  and  C_28
REMARK    8  A    between atoms: C_26  and  C_27
REMARK    9  A    between atoms: C_30  and  C_33
REMARK                            x       y       z     vdW  Elec       q    Type
REMARK                         _______ _______ _______ _____ _____    ______ ____
ROOT
ATOM      1  C   UNL     1      -0.217  -4.891   3.571  0.00  0.00    +0.091 C 
ATOM      2  C   UNL     1       1.094  -4.604   4.306  0.00  0.00    +0.015 C 
ATOM      3  C   UNL     1       1.103  -5.341   5.646  0.00  0.00    +0.018 C 
ATOM      4  C   UNL     1       1.009  -6.850   5.395  0.00  0.00    +0.109 C 
ATOM      5  N   UNL     1      -0.173  -7.119   4.566  0.00  0.00    -0.176 NA
ATOM      6  C   UNL     1      -0.327  -6.394   3.297  0.00  0.00    +0.122 C 
ENDROOT
BRANCH   1   8
ATOM      7  N   UNL     1      -0.152  -2.793   2.262  0.00  0.00    -0.285 N 
ATOM      8  C   UNL     1      -0.238  -4.138   2.266  0.00  0.00    +0.222 C 
ATOM      9  O   UNL     1      -0.332  -4.743   1.219  0.00  0.00    -0.275 OA
ATOM     10  H   UNL     1       0.002  -2.314   3.092  0.00  0.00    +0.155 HD
BRANCH   7  16
ATOM     11  C   UNL     1       0.685   1.274  -0.371  0.00  0.00    +0.044 C 
ATOM     12  C   UNL     1       0.111  -0.114  -0.242  0.00  0.00    -0.046 A 
ATOM     13  C   UNL     1      -0.549  -0.690  -1.312  0.00  0.00    +0.004 A 
ATOM     14  C   UNL     1      -1.077  -1.963  -1.199  0.00  0.00    +0.002 A 
ATOM     15  C   UNL     1      -0.947  -2.663  -0.015  0.00  0.00    +0.023 A 
ATOM     16  C   UNL     1      -0.285  -2.087   1.061  0.00  0.00    +0.037 A 
ATOM     17  C   UNL     1       0.248  -0.810   0.942  0.00  0.00    -0.026 A 
ATOM     18  C   UNL     1       0.972  -0.183   2.106  0.00  0.00    +0.046 C 
ENDBRANCH   7  16
ENDBRANCH   1   8
BRANCH   5  19
ATOM     19  S   UNL     1      -1.313  -8.218   5.051  0.00  0.00    +0.062 S 
ATOM     20  O   UNL     1      -1.321  -8.193   6.472  0.00  0.00    -0.153 OA
ATOM     21  O   UNL     1      -2.477  -7.965   4.278  0.00  0.00    -0.153 OA
BRANCH  19  22
ATOM     22  C   UNL     1      -0.732  -9.813   4.579  0.00  0.00    +0.116 A 
ATOM     23  C   UNL     1      -0.399 -10.745   5.536  0.00  0.00    +0.048 A 
ATOM     24  C   UNL     1       0.049 -11.975   5.130  0.00  0.00    +0.062 A 
ATOM     25  S   UNL     1       0.001 -11.815   3.353  0.00  0.00    -0.088 S 
ATOM     26  C   UNL     1      -0.612 -10.141   3.266  0.00  0.00    +0.014 A 
ATOM     27  C   UNL     1      -0.916  -9.305   2.049  0.00  0.00    +0.053 C 
BRANCH  24  28
ATOM     28  C   UNL     1       0.464 -13.131   5.950  0.00  0.00    +0.209 A 
ATOM     29  N   UNL     1       0.901 -14.314   5.477  0.00  0.00    -0.191 NA
ATOM     30  C   UNL     1       1.184 -15.112   6.466  0.00  0.00    +0.231 A 
ATOM     31  O   UNL     1       0.938 -14.471   7.616  0.00  0.00    -0.337 OA
ATOM     32  N   UNL     1       0.474 -13.176   7.262  0.00  0.00    -0.056 NA
BRANCH  30  33
ATOM     33  C   UNL     1       1.700 -16.522   6.338  0.00  0.00    +0.078 C 
ATOM     34  C   UNL     1       1.129 -17.485   7.393  0.00  0.00    +0.013 C 
ATOM     35  C   UNL     1       2.537 -18.096   7.484  0.00  0.00    +0.001 C 
ATOM     36  C   UNL     1       3.072 -16.738   6.999  0.00  0.00    +0.013 C 
ENDBRANCH  30  33
ENDBRANCH  24  28
ENDBRANCH  19  22
ENDBRANCH   5  19
TORSDOF 6
