REMARK  Name = ZINC59891780
REMARK  6 active torsions:
REMARK  status: ('A' for Active; 'I' for Inactive)
REMARK    1  A    between atoms: C_1  and  C_2
REMARK    2  A    between atoms: C_2  and  C_3
REMARK    3  A    between atoms: C_3  and  C_5
REMARK    4  A    between atoms: C_3  and  C_11
REMARK    5  A    between atoms: N_16  and  S_19
REMARK    6  A    between atoms: S_19  and  C_22
REMARK                            x       y       z     vdW  Elec       q    Type
REMARK                         _______ _______ _______ _____ _____    ______ ____
ROOT
ATOM      1  C   UNL     1      -1.538  -2.033   0.127  0.00  0.00    +0.223 C 
ATOM      2  O   UNL     1      -2.029  -2.677  -0.775  0.00  0.00    -0.275 OA
ATOM      3  N   UNL     1      -1.083  -2.657   1.232  0.00  0.00    -0.298 N 
ATOM      4  C   UNL     1      -0.590  -1.883   2.380  0.00  0.00    +0.125 C 
ATOM      5  C   UNL     1      -1.366  -2.313   3.631  0.00  0.00    +0.128 C 
ATOM      6  N   UNL     1      -1.355  -3.780   3.709  0.00  0.00    -0.174 NA
ATOM      7  C   UNL     1      -1.849  -4.554   2.561  0.00  0.00    +0.128 C 
ATOM      8  C   UNL     1      -1.077  -4.125   1.312  0.00  0.00    +0.125 C 
ENDROOT
BRANCH   6   9
ATOM      9  S   UNL     1      -0.797  -4.548   5.066  0.00  0.00    +0.063 S 
ATOM     10  O   UNL     1      -0.390  -5.847   4.659  0.00  0.00    -0.153 OA
ATOM     11  O   UNL     1       0.085  -3.640   5.712  0.00  0.00    -0.153 OA
BRANCH   9  12
ATOM     12  C   UNL     1      -2.173  -4.766   6.144  0.00  0.00    +0.132 A 
ATOM     13  C   UNL     1      -2.710  -5.934   6.530  0.00  0.00    +0.113 A 
ATOM     14  N   UNL     1      -3.766  -5.708   7.371  0.00  0.00    -0.344 N 
ATOM     15  H   UNL     1      -4.311  -6.399   7.779  0.00  0.00    +0.167 HD
ATOM     16  C   UNL     1      -3.942  -4.357   7.553  0.00  0.00    +0.140 A 
ATOM     17  C   UNL     1      -2.947  -3.708   6.797  0.00  0.00    +0.045 A 
ATOM     18  C   UNL     1      -2.882  -2.313   6.799  0.00  0.00    +0.015 A 
ATOM     19  C   UNL     1      -3.809  -1.621   7.557  0.00  0.00    +0.020 A 
ATOM     20  C   UNL     1      -4.759  -2.325   8.280  0.00  0.00    +0.113 A 
ATOM     21  N   UNL     1      -4.807  -3.640   8.258  0.00  0.00    -0.237 NA
ENDBRANCH   9  12
ENDBRANCH   6   9
BRANCH   1  22
ATOM     22  C   UNL     1      -1.435  -0.533   0.014  0.00  0.00    +0.105 C 
BRANCH  22  23
ATOM     23  C   UNL     1      -2.635   0.103   0.667  0.00  0.00    -0.036 A 
ATOM     24  C   UNL     1      -3.907  -0.186   0.208  0.00  0.00    +0.004 A 
ATOM     25  C   UNL     1      -5.007   0.398   0.807  0.00  0.00    +0.000 A 
ATOM     26  C   UNL     1      -4.836   1.269   1.866  0.00  0.00    +0.000 A 
ATOM     27  C   UNL     1      -3.565   1.557   2.326  0.00  0.00    +0.000 A 
ATOM     28  C   UNL     1      -2.465   0.970   1.730  0.00  0.00    +0.004 A 
ENDBRANCH  22  23
BRANCH  22  30
ATOM     29  C   UNL     1      -1.142   1.370  -1.578  0.00  0.00    +0.005 C 
ATOM     30  C   UNL     1      -1.388  -0.136  -1.463  0.00  0.00    +0.014 C 
ENDBRANCH  22  30
ENDBRANCH   1  22
TORSDOF 5
