REMARK  Name = ZINC45495889
REMARK  11 active torsions:
REMARK  status: ('A' for Active; 'I' for Inactive)
REMARK    1  A    between atoms: C_1  and  N_2
REMARK    2  A    between atoms: N_2  and  C_3
REMARK    3  A    between atoms: N_2  and  C_4
REMARK    4  A    between atoms: C_4  and  C_6
REMARK    5  A    between atoms: C_4  and  C_23
REMARK    6  A    between atoms: C_6  and  N_7
REMARK    7  A    between atoms: C_8  and  C_10
REMARK    8  A    between atoms: C_11  and  C_12
REMARK    9  A    between atoms: C_15  and  O_18
REMARK   10  A    between atoms: O_18  and  C_19
REMARK   11  A    between atoms: C_19  and  C_20
REMARK                            x       y       z     vdW  Elec       q    Type
REMARK                         _______ _______ _______ _____ _____    ______ ____
ROOT
ATOM      1  N   UNL     1       0.073  -2.014   0.994  0.00  0.00    -0.313 N 
ATOM      2  C   UNL     1       0.491  -3.276   1.209  0.00  0.00    +0.237 C 
ATOM      3  O   UNL     1       0.136  -4.171   0.464  0.00  0.00    -0.271 OA
ATOM      4  H   UNL     1       0.356  -1.301   1.588  0.00  0.00    +0.149 HD
ENDROOT
BRANCH   2   5
ATOM      5  C   UNL     1       1.373  -3.572   2.338  0.00  0.00    +0.068 C 
ATOM      6  C   UNL     1       1.793  -4.837   2.553  0.00  0.00    +0.013 C 
BRANCH   6   7
ATOM      7  C   UNL     1       2.679  -5.134   3.688  0.00  0.00    -0.025 A 
ATOM      8  C   UNL     1       3.085  -4.109   4.550  0.00  0.00    +0.011 A 
ATOM      9  C   UNL     1       3.915  -4.393   5.611  0.00  0.00    +0.046 A 
ATOM     10  C   UNL     1       4.350  -5.695   5.827  0.00  0.00    +0.121 A 
ATOM     11  C   UNL     1       3.950  -6.717   4.973  0.00  0.00    +0.046 A 
ATOM     12  C   UNL     1       3.115  -6.445   3.913  0.00  0.00    +0.011 A 
BRANCH  10  13
ATOM     13  O   UNL     1       5.168  -5.970   6.874  0.00  0.00    -0.483 OA
BRANCH  13  14
ATOM     14  C   UNL     1       5.578  -7.329   7.039  0.00  0.00    +0.324 C 
BRANCH  14  15
ATOM     15  C   UNL     1       6.476  -7.441   8.244  0.00  0.00    +0.248 C 
ATOM     16  O   UNL     1       6.739  -6.454   8.898  0.00  0.00    -0.272 OA
ATOM     17  N   UNL     1       6.987  -8.637   8.595  0.00  0.00    -0.327 N 
ATOM     18  H   UNL     1       6.776  -9.427   8.072  0.00  0.00    +0.145 HD
ATOM     19  H   UNL     1       7.565  -8.710   9.371  0.00  0.00    +0.145 HD
ENDBRANCH  14  15
ENDBRANCH  13  14
ENDBRANCH  10  13
ENDBRANCH   6   7
ENDBRANCH   2   5
BRANCH   1  20
ATOM     20  C   UNL     1      -0.810  -1.717  -0.136  0.00  0.00    +0.094 C 
BRANCH  20  21
ATOM     21  C   UNL     1      -1.238  -0.249  -0.078  0.00  0.00    -0.020 C 
BRANCH  21  22
ATOM     22  C   UNL     1      -2.079  -0.019   1.150  0.00  0.00    -0.052 A 
ATOM     23  C   UNL     1      -1.526   0.550   2.283  0.00  0.00    +0.009 A 
ATOM     24  C   UNL     1      -2.311   0.743   3.371  0.00  0.00    +0.045 A 
ATOM     25  S   UNL     1      -3.884   0.113   2.809  0.00  0.00    -0.105 S 
ATOM     26  C   UNL     1      -3.391  -0.361   1.160  0.00  0.00    +0.047 A 
ENDBRANCH  21  22
BRANCH  21  28
ATOM     27  C   UNL     1      -2.470   1.477  -1.200  0.00  0.00    -0.096 C 
ATOM     28  N   UNL     1      -2.021   0.081  -1.277  0.00  0.00    +0.382 N 
ATOM     29  C   UNL     1      -1.186  -0.100  -2.472  0.00  0.00    -0.096 C 
ATOM     30  H   UNL     1      -2.824  -0.528  -1.332  0.00  0.00    -0.082 HD
ENDBRANCH  21  28
ENDBRANCH  20  21
ENDBRANCH   1  20
TORSDOF 9
