REMARK  Name = ZINC09627283
REMARK  10 active torsions:
REMARK  status: ('A' for Active; 'I' for Inactive)
REMARK    1  A    between atoms: C_1  and  C_2
REMARK    2  A    between atoms: C_4  and  C_34
REMARK    3  A    between atoms: C_5  and  S_9
REMARK    4  A    between atoms: C_6  and  C_8
REMARK    5  A    between atoms: S_9  and  N_12
REMARK    6  A    between atoms: C_15  and  C_18
REMARK    7  A    between atoms: C_18  and  O_20
REMARK    8  A    between atoms: O_20  and  C_21
REMARK    9  A    between atoms: C_21  and  C_22
REMARK   10  A    between atoms: N_27  and  C_28
REMARK                            x       y       z     vdW  Elec       q    Type
REMARK                         _______ _______ _______ _____ _____    ______ ____
ROOT
ATOM      1  N   UNL     1       0.025  -0.580   0.846  0.00  0.00    -0.177 NA
ATOM      2  C   UNL     1      -1.248  -0.421   0.131  0.00  0.00    +0.110 C 
ATOM      3  C   UNL     1      -1.572   1.073   0.027  0.00  0.00    +0.032 C 
ATOM      4  C   UNL     1      -0.393   1.803  -0.620  0.00  0.00    +0.100 C 
ATOM      5  C   UNL     1       0.853   1.638   0.254  0.00  0.00    +0.032 C 
ATOM      6  C   UNL     1       1.204   0.151   0.361  0.00  0.00    +0.110 C 
ENDROOT
BRANCH   1   7
ATOM      7  S   UNL     1       0.131  -1.563   2.174  0.00  0.00    +0.061 S 
ATOM      8  O   UNL     1       1.235  -1.098   2.938  0.00  0.00    -0.153 OA
ATOM      9  O   UNL     1      -1.181  -1.661   2.712  0.00  0.00    -0.153 OA
BRANCH   7  14
ATOM     10  C   UNL     1       1.599  -7.073   0.200  0.00  0.00    +0.044 C 
ATOM     11  C   UNL     1       1.232  -5.697   0.693  0.00  0.00    -0.050 A 
ATOM     12  C   UNL     1      -0.081  -5.269   0.636  0.00  0.00    +0.008 A 
ATOM     13  C   UNL     1      -0.418  -4.007   1.089  0.00  0.00    -0.024 A 
ATOM     14  C   UNL     1       0.559  -3.172   1.598  0.00  0.00    +0.111 A 
ATOM     15  C   UNL     1       1.874  -3.598   1.650  0.00  0.00    -0.024 A 
ATOM     16  C   UNL     1       2.209  -4.862   1.203  0.00  0.00    +0.008 A 
ATOM     17  C   UNL     1       2.940  -2.686   2.200  0.00  0.00    +0.046 C 
ATOM     18  C   UNL     1      -1.849  -3.541   1.026  0.00  0.00    +0.046 C 
ENDBRANCH   7  14
ENDBRANCH   1   7
BRANCH   4  19
ATOM     19  C   UNL     1      -0.722   3.267  -0.755  0.00  0.00    +0.311 C 
ATOM     20  O   UNL     1      -1.789   3.684  -0.373  0.00  0.00    -0.251 OA
BRANCH  19  21
ATOM     21  O   UNL     1       0.172   4.108  -1.300  0.00  0.00    -0.455 OA
BRANCH  21  22
ATOM     22  C   UNL     1      -0.213   5.505  -1.398  0.00  0.00    +0.328 C 
BRANCH  22  23
ATOM     23  C   UNL     1       0.907   6.291  -2.030  0.00  0.00    +0.258 C 
ATOM     24  O   UNL     1       1.928   5.729  -2.365  0.00  0.00    -0.272 OA
ATOM     25  N   UNL     1       0.774   7.618  -2.224  0.00  0.00    -0.237 N 
ATOM     26  C   UNL     1       1.775   8.320  -2.789  0.00  0.00    +0.306 C 
ATOM     27  O   UNL     1       2.799   7.758  -3.124  0.00  0.00    -0.252 OA
ATOM     28  N   UNL     1       1.642   9.648  -2.982  0.00  0.00    -0.296 N 
ATOM     29  H   UNL     1      -0.043   8.067  -1.956  0.00  0.00    +0.159 HD
ATOM     30  H   UNL     1       0.825  10.097  -2.715  0.00  0.00    +0.151 HD
BRANCH  28  31
ATOM     31  C   UNL     1       2.730  10.412  -3.597  0.00  0.00    +0.074 C 
ATOM     32  C   UNL     1       3.739  10.818  -2.521  0.00  0.00    +0.022 C 
ATOM     33  C   UNL     1       4.876  11.616  -3.162  0.00  0.00    +0.002 C 
ATOM     34  C   UNL     1       4.306  12.871  -3.828  0.00  0.00    +0.000 C 
ATOM     35  C   UNL     1       3.298  12.464  -4.904  0.00  0.00    +0.002 C 
ATOM     36  C   UNL     1       2.161  11.666  -4.262  0.00  0.00    +0.022 C 
ENDBRANCH  28  31
ENDBRANCH  22  23
ENDBRANCH  21  22
ENDBRANCH  19  21
ENDBRANCH   4  19
TORSDOF 7
