REMARK  Name = ZINC20985287
REMARK  12 active torsions:
REMARK  status: ('A' for Active; 'I' for Inactive)
REMARK    1  A    between atoms: C_1  and  C_2
REMARK    2  A    between atoms: C_5  and  C_33
REMARK    3  A    between atoms: C_6  and  N_8
REMARK    4  A    between atoms: C_9  and  C_32
REMARK    5  A    between atoms: C_10  and  C_25
REMARK    6  A    between atoms: C_11  and  C_16
REMARK    7  A    between atoms: C_21  and  N_22
REMARK    8  A    between atoms: C_25  and  O_27
REMARK    9  A    between atoms: O_27  and  C_28
REMARK   10  A    between atoms: C_28  and  C_29
REMARK   11  A    between atoms: C_29  and  O_30
REMARK   12  A    between atoms: O_30  and  C_31
REMARK                            x       y       z     vdW  Elec       q    Type
REMARK                         _______ _______ _______ _____ _____    ______ ____
ROOT
ATOM      1  N   UNL     1       2.297   1.599   0.234  0.00  0.00    -0.255 N 
ATOM      2  C   UNL     1       2.862   1.333  -0.982  0.00  0.00    +0.027 C 
ATOM      3  C   UNL     1       3.981   0.584  -1.081  0.00  0.00    +0.078 C 
ATOM      4  C   UNL     1       4.580   0.037   0.199  0.00  0.00    +0.143 C 
ATOM      5  N   UNL     1       3.892   0.376   1.456  0.00  0.00    -0.315 N 
ATOM      6  C   UNL     1       2.784   1.141   1.394  0.00  0.00    +0.142 C 
ATOM      7  S   UNL     1       1.974   1.542   2.848  0.00  0.00    -0.018 S 
ATOM      8  C   UNL     1       2.229   1.892  -2.230  0.00  0.00    +0.062 C 
ATOM      9  H   UNL     1       4.284   0.006   2.414  0.00  0.00    +0.149 HD
ENDROOT
BRANCH   1  15
ATOM     10  C   UNL     1       0.211   6.040   0.554  0.00  0.00    +0.044 C 
ATOM     11  C   UNL     1       0.101   4.543   0.423  0.00  0.00    -0.049 A 
ATOM     12  C   UNL     1      -1.144   3.946   0.335  0.00  0.00    +0.004 A 
ATOM     13  C   UNL     1      -1.249   2.574   0.208  0.00  0.00    +0.005 A 
ATOM     14  C   UNL     1      -0.111   1.792   0.180  0.00  0.00    -0.029 A 
ATOM     15  C   UNL     1       1.141   2.388   0.268  0.00  0.00    +0.043 A 
ATOM     16  C   UNL     1       1.243   3.767   0.389  0.00  0.00    +0.027 A 
ATOM     17  C   UNL     1      -0.226   0.295   0.047  0.00  0.00    +0.045 C 
ENDBRANCH   1  15
BRANCH   4  18
ATOM     18  C   UNL     1       4.627  -1.465   0.085  0.00  0.00    +0.008 A 
ATOM     19  C   UNL     1       3.753  -2.121  -0.762  0.00  0.00    +0.008 A 
ATOM     20  C   UNL     1       3.799  -3.498  -0.870  0.00  0.00    +0.000 A 
ATOM     21  C   UNL     1       4.712  -4.220  -0.124  0.00  0.00    +0.002 A 
ATOM     22  C   UNL     1       5.582  -3.564   0.727  0.00  0.00    +0.033 A 
ATOM     23  C   UNL     1       5.539  -2.186   0.831  0.00  0.00    +0.131 A 
BRANCH  23  24
ATOM     24  N   UNL     1       6.471  -1.484   1.742  0.00  0.00    +0.057 N 
ATOM     25  O   UNL     1       7.345  -2.107   2.317  0.00  0.00    -0.126 OA
ATOM     26  O   UNL     1       6.362  -0.283   1.917  0.00  0.00    -0.126 OA
ENDBRANCH  23  24
ENDBRANCH   4  18
BRANCH   3  27
ATOM     27  C   UNL     1       4.570   0.313  -2.338  0.00  0.00    +0.339 C 
ATOM     28  O   UNL     1       4.125   0.833  -3.344  0.00  0.00    -0.245 OA
BRANCH  27  29
ATOM     29  O   UNL     1       5.627  -0.522  -2.422  0.00  0.00    -0.459 OA
BRANCH  29  30
ATOM     30  C   UNL     1       6.242  -0.663  -3.705  0.00  0.00    +0.260 C 
BRANCH  30  31
ATOM     31  C   UNL     1       7.486  -1.545  -3.579  0.00  0.00    +0.200 C 
BRANCH  31  32
ATOM     32  O   UNL     1       7.096  -2.870  -3.211  0.00  0.00    -0.380 OA
ATOM     33  C   UNL     1       8.189  -3.779  -3.067  0.00  0.00    +0.194 C 
ENDBRANCH  31  32
ENDBRANCH  30  31
ENDBRANCH  29  30
ENDBRANCH  27  29
ENDBRANCH   3  27
TORSDOF 8
