REMARK  Name = ZINC35929048
REMARK  9 active torsions:
REMARK  status: ('A' for Active; 'I' for Inactive)
REMARK    1  A    between atoms: C_1  and  C_2
REMARK    2  A    between atoms: C_2  and  O_3
REMARK    3  A    between atoms: O_3  and  C_4
REMARK    4  A    between atoms: C_14  and  C_29
REMARK    5  A    between atoms: C_16  and  N_28
REMARK    6  A    between atoms: N_17  and  C_21
REMARK    7  A    between atoms: C_21  and  C_22
REMARK    8  A    between atoms: C_32  and  O_36
REMARK    9  A    between atoms: O_36  and  C_37
REMARK                            x       y       z     vdW  Elec       q    Type
REMARK                         _______ _______ _______ _____ _____    ______ ____
ROOT
ATOM      1  C   UNL     1      -0.994  -1.825   2.264  0.00  0.00    +0.403 C 
ATOM      2  O   UNL     1      -1.748  -2.559   1.657  0.00  0.00    -0.226 OA
ATOM      3  N   UNL     1      -0.058  -2.347   3.082  0.00  0.00    -0.264 N 
ATOM      4  C   UNL     1       0.857  -1.472   3.827  0.00  0.00    +0.130 C 
ATOM      5  C   UNL     1       0.751  -1.808   5.320  0.00  0.00    +0.127 C 
ATOM      6  N   UNL     1       0.874  -3.264   5.483  0.00  0.00    -0.297 N 
ATOM      7  C   UNL     1      -0.042  -4.139   4.738  0.00  0.00    +0.127 C 
ATOM      8  C   UNL     1       0.060  -3.803   3.250  0.00  0.00    +0.130 C 
ATOM      9  C   UNL     1       1.833  -3.800   6.322  0.00  0.00    +0.220 A 
ATOM     10  N   UNL     1       1.905  -5.123   6.430  0.00  0.00    -0.213 NA
ATOM     11  C   UNL     1       2.797  -5.720   7.212  0.00  0.00    +0.091 A 
ATOM     12  C   UNL     1       3.692  -4.910   7.948  0.00  0.00    +0.086 A 
ATOM     13  C   UNL     1       4.730  -5.133   8.844  0.00  0.00    +0.126 A 
ATOM     14  N   UNL     1       5.211  -3.933   9.213  0.00  0.00    -0.244 N 
ATOM     15  N   UNL     1       4.499  -2.914   8.569  0.00  0.00    -0.149 NA
ATOM     16  C   UNL     1       3.577  -3.448   7.799  0.00  0.00    +0.188 A 
ATOM     17  N   UNL     1       2.630  -2.972   6.967  0.00  0.00    -0.193 NA
ENDROOT
BRANCH  11  18
ATOM     18  C   UNL     1       2.852  -7.194   7.312  0.00  0.00    +0.037 A 
ATOM     19  C   UNL     1       2.730  -7.817   8.556  0.00  0.00    +0.016 A 
ATOM     20  C   UNL     1       2.782  -9.190   8.644  0.00  0.00    +0.046 A 
ATOM     21  C   UNL     1       2.956  -9.958   7.498  0.00  0.00    +0.123 A 
ATOM     22  C   UNL     1       3.078  -9.345   6.259  0.00  0.00    +0.084 A 
ATOM     23  C   UNL     1       3.021  -7.969   6.160  0.00  0.00    +0.136 A 
ATOM     24  F   UNL     1       3.133  -7.372   4.953  0.00  0.00    -0.205 F 
BRANCH  21  25
ATOM     25  O   UNL     1       3.007 -11.312   7.592  0.00  0.00    -0.495 OA
ATOM     26  C   UNL     1       3.188 -12.039   6.375  0.00  0.00    +0.277 C 
ENDBRANCH  21  25
ENDBRANCH  11  18
BRANCH  13  27
ATOM     27  N   UNL     1       5.185  -6.364   9.277  0.00  0.00    -0.343 N 
ATOM     28  H   UNL     1       4.854  -7.177   8.863  0.00  0.00    +0.144 HD
ATOM     29  H   UNL     1       5.836  -6.416   9.994  0.00  0.00    +0.144 HD
ENDBRANCH  13  27
BRANCH   1  30
ATOM     30  O   UNL     1      -1.092  -0.490   2.120  0.00  0.00    -0.451 OA
BRANCH  30  32
ATOM     31  C   UNL     1      -2.064   1.523   1.202  0.00  0.00    +0.048 C 
ATOM     32  C   UNL     1      -2.106  -0.006   1.237  0.00  0.00    +0.230 C 
ENDBRANCH  30  32
ENDBRANCH   1  30
BRANCH  14  33
ATOM     33  C   UNL     1       6.317  -3.722  10.150  0.00  0.00    +0.180 C 
BRANCH  33  34
ATOM     34  C   UNL     1       7.619  -3.688   9.392  0.00  0.00    -0.026 A 
ATOM     35  C   UNL     1       8.323  -4.857   9.175  0.00  0.00    +0.005 A 
ATOM     36  C   UNL     1       9.518  -4.826   8.480  0.00  0.00    +0.000 A 
ATOM     37  C   UNL     1      10.007  -3.625   8.001  0.00  0.00    +0.000 A 
ATOM     38  C   UNL     1       9.302  -2.455   8.217  0.00  0.00    +0.000 A 
ATOM     39  C   UNL     1       8.106  -2.488   8.909  0.00  0.00    +0.005 A 
ENDBRANCH  33  34
ENDBRANCH  14  33
TORSDOF 7
