REMARK  Name = ZINC66930366
REMARK  9 active torsions:
REMARK  status: ('A' for Active; 'I' for Inactive)
REMARK    1  A    between atoms: C_1  and  C_2
REMARK    2  A    between atoms: C_3  and  C_13
REMARK    3  A    between atoms: C_4  and  C_12
REMARK    4  A    between atoms: C_9  and  O_11
REMARK    5  A    between atoms: C_13  and  C_14
REMARK    6  A    between atoms: C_14  and  C_15
REMARK    7  A    between atoms: N_17  and  C_18
REMARK    8  A    between atoms: C_18  and  C_19
REMARK    9  A    between atoms: C_19  and  O_29
REMARK                            x       y       z     vdW  Elec       q    Type
REMARK                         _______ _______ _______ _____ _____    ______ ____
ROOT
ATOM      1  C   UNL     1      -4.108   1.290   1.468  0.00  0.00    +0.213 C 
ATOM      2  O   UNL     1      -4.734   1.385   0.434  0.00  0.00    -0.276 OA
ATOM      3  N   UNL     1      -4.666   1.679   2.632  0.00  0.00    -0.312 N 
ATOM      4  H   UNL     1      -4.166   1.603   3.459  0.00  0.00    +0.149 HD
ENDROOT
BRANCH   1   5
ATOM      5  C   UNL     1      -2.706   0.736   1.453  0.00  0.00    +0.100 C 
BRANCH   5   6
ATOM      6  C   UNL     1      -2.317   0.374   0.019  0.00  0.00    +0.048 C 
BRANCH   6   9
ATOM      7  C   UNL     1      -0.033   2.176  -0.117  0.00  0.00    +0.066 C 
ATOM      8  C   UNL     1       0.186   0.686  -0.061  0.00  0.00    +0.045 A 
ATOM      9  C   UNL     1      -0.915  -0.180   0.004  0.00  0.00    -0.005 A 
ATOM     10  C   UNL     1      -0.708  -1.519   0.053  0.00  0.00    +0.047 A 
ATOM     11  N   UNL     1       0.570  -1.995   0.038  0.00  0.00    -0.215 N 
ATOM     12  C   UNL     1       1.623  -1.118  -0.026  0.00  0.00    +0.160 A 
ATOM     13  N   UNL     1       1.406   0.204  -0.079  0.00  0.00    -0.233 NA
ATOM     14  C   UNL     1       2.784  -1.878  -0.025  0.00  0.00    +0.116 A 
ATOM     15  C   UNL     1       2.411  -3.217   0.039  0.00  0.00    +0.234 A 
ATOM     16  N   UNL     1       1.097  -3.291   0.077  0.00  0.00    -0.127 NA
ATOM     17  C   UNL     1      -1.876  -2.469   0.123  0.00  0.00    +0.066 C 
BRANCH  15  18
ATOM     18  O   UNL     1       3.263  -4.275   0.060  0.00  0.00    -0.491 OA
ATOM     19  H   UNL     1       3.534  -4.545   0.948  0.00  0.00    +0.294 HD
ENDBRANCH  15  18
ENDBRANCH   6   9
ENDBRANCH   5   6
ENDBRANCH   1   5
BRANCH   3  20
ATOM     20  C   UNL     1      -6.029   2.217   2.646  0.00  0.00    +0.143 C 
BRANCH  20  21
ATOM     21  C   UNL     1      -6.467   2.456   4.093  0.00  0.00    +0.107 C 
ATOM     22  C   UNL     1      -6.357   1.149   4.875  0.00  0.00    +0.041 C 
ATOM     23  C   UNL     1      -7.001   1.353   6.251  0.00  0.00    +0.008 C 
ATOM     24  C   UNL     1      -8.511   1.486   6.061  0.00  0.00    +0.035 C 
ATOM     25  C   UNL     1      -8.823   2.520   5.011  0.00  0.00    -0.041 A 
ATOM     26  C   UNL     1      -7.886   2.963   4.104  0.00  0.00    -0.011 A 
ATOM     27  C   UNL     1      -8.241   3.914   3.157  0.00  0.00    +0.007 A 
ATOM     28  C   UNL     1      -9.523   4.421   3.119  0.00  0.00    +0.000 A 
ATOM     29  C   UNL     1     -10.463   3.980   4.031  0.00  0.00    +0.000 A 
ATOM     30  C   UNL     1     -10.113   3.033   4.972  0.00  0.00    +0.004 A 
BRANCH  21  31
ATOM     31  O   UNL     1      -5.612   3.434   4.688  0.00  0.00    -0.382 OA
ATOM     32  H   UNL     1      -5.622   4.291   4.239  0.00  0.00    +0.211 HD
ENDBRANCH  21  31
ENDBRANCH  20  21
ENDBRANCH   3  20
TORSDOF 7
