REMARK  Name = ZINC13298910
REMARK  7 active torsions:
REMARK  status: ('A' for Active; 'I' for Inactive)
REMARK    1  A    between atoms: C_1  and  C_2
REMARK    2  A    between atoms: C_5  and  C_34
REMARK    3  A    between atoms: C_10  and  C_12
REMARK    4  A    between atoms: C_12  and  N_62
REMARK    5  A    between atoms: N_15  and  C_18
REMARK    6  A    between atoms: N_21  and  C_26
REMARK    7  A    between atoms: C_29  and  C_32
REMARK                            x       y       z     vdW  Elec       q    Type
REMARK                         _______ _______ _______ _____ _____    ______ ____
ROOT
ATOM      1  C   UNL     1     -10.620   6.485  -1.167  0.00  0.00    -0.059 C 
ATOM      2  C   UNL     1      -9.303   5.707  -1.192  0.00  0.00    +0.086 C 
ATOM      3  N   UNL     1      -8.566   5.956   0.055  0.00  0.00    -0.331 N 
ATOM      4  C   UNL     1      -9.356   5.540   1.222  0.00  0.00    +0.086 C 
ATOM      5  C   UNL     1     -10.674   6.318   1.247  0.00  0.00    -0.059 C 
ATOM      6  N   UNL     1     -11.414   6.042  -0.002  0.00  0.00    +0.387 N 
ATOM      7  H   UNL     1     -11.579   5.031  -0.075  0.00  0.00    -0.081 HD
ENDROOT
BRANCH   3   8
ATOM      8  C   UNL     1      -7.334   5.323   0.038  0.00  0.00    +0.074 A 
ATOM      9  C   UNL     1      -7.256   3.920  -0.097  0.00  0.00    +0.158 A 
ATOM     10  N   UNL     1      -6.097   3.324  -0.118  0.00  0.00    -0.170 NA
ATOM     11  N   UNL     1      -4.909   4.051   0.004  0.00  0.00    -0.195 N 
ATOM     12  C   UNL     1      -4.937   5.392   0.135  0.00  0.00    +0.292 A 
ATOM     13  O   UNL     1      -3.895   6.022   0.236  0.00  0.00    -0.264 OA
ATOM     14  C   UNL     1      -6.170   6.060   0.155  0.00  0.00    +0.129 A 
ATOM     15 CL   UNL     1      -6.233   7.787   0.322  0.00  0.00    -0.076 Cl
BRANCH  11  16
ATOM     16  C   UNL     1      -3.683   3.384  -0.016  0.00  0.00    +0.069 A 
ATOM     17  C   UNL     1      -2.725   3.663   0.953  0.00  0.00    +0.029 A 
ATOM     18  C   UNL     1      -1.515   3.006   0.936  0.00  0.00    +0.017 A 
ATOM     19  C   UNL     1      -1.250   2.057  -0.056  0.00  0.00    +0.063 A 
ATOM     20  C   UNL     1      -2.213   1.783  -1.031  0.00  0.00    +0.017 A 
ATOM     21  C   UNL     1      -3.423   2.440  -1.005  0.00  0.00    +0.029 A 
BRANCH  19  22
ATOM     22  C   UNL     1       0.046   1.352  -0.077  0.00  0.00    +0.387 C 
ATOM     23  O   UNL     1       0.884   1.594   0.768  0.00  0.00    -0.241 OA
ATOM     24  O   UNL     1       0.297   0.434  -1.031  0.00  0.00    -0.241 OA
ENDBRANCH  19  22
ENDBRANCH  11  16
ENDBRANCH   3   8
BRANCH   6  25
ATOM     25  C   UNL     1     -12.717   6.740   0.018  0.00  0.00    +0.019 C 
BRANCH  25  33
ATOM     26  C   UNL     1     -14.327   9.698  -2.058  0.00  0.00    +0.009 C 
ATOM     27  C   UNL     1     -15.601   9.130  -1.429  0.00  0.00    +0.004 C 
ATOM     28  C   UNL     1     -16.564   8.691  -2.534  0.00  0.00    +0.009 C 
ATOM     29  C   UNL     1     -15.886   7.641  -3.417  0.00  0.00    +0.004 C 
ATOM     30  C   UNL     1     -15.534   6.416  -2.567  0.00  0.00    +0.111 C 
ATOM     31  N   UNL     1     -14.727   6.852  -1.420  0.00  0.00    -0.303 N 
ATOM     32  C   UNL     1     -15.249   7.918  -0.554  0.00  0.00    +0.111 C 
ATOM     33  C   UNL     1     -13.533   6.282  -1.163  0.00  0.00    +0.199 C 
ATOM     34  O   UNL     1     -13.116   5.399  -1.883  0.00  0.00    -0.278 OA
ATOM     35  C   UNL     1     -16.837   7.227  -4.541  0.00  0.00    +0.009 C 
ENDBRANCH  25  33
ENDBRANCH   6  25
TORSDOF 5
