REMARK  Name = ZINC14919369
REMARK  7 active torsions:
REMARK  status: ('A' for Active; 'I' for Inactive)
REMARK    1  A    between atoms: C_1  and  C_2
REMARK    2  A    between atoms: C_3  and  N_9
REMARK    3  A    between atoms: C_10  and  C_12
REMARK    4  A    between atoms: C_12  and  C_14
REMARK    5  A    between atoms: C_12  and  N_52
REMARK    6  A    between atoms: N_17  and  S_20
REMARK    7  A    between atoms: S_20  and  C_23
REMARK                            x       y       z     vdW  Elec       q    Type
REMARK                         _______ _______ _______ _____ _____    ______ ____
ROOT
ATOM      1  C   UNL     1       0.549   0.845   2.362  0.00  0.00    -0.060 C 
ATOM      2  C   UNL     1       0.137   1.272   3.774  0.00  0.00    +0.091 C 
ATOM      3  N   UNL     1      -1.220   0.771   4.037  0.00  0.00    -0.180 NA
ATOM      4  C   UNL     1      -2.271   1.057   3.048  0.00  0.00    +0.091 C 
ATOM      5  C   UNL     1      -1.764   0.639   1.664  0.00  0.00    -0.060 C 
ATOM      6  N   UNL     1      -0.476   1.317   1.405  0.00  0.00    +0.389 N 
ATOM      7  H   UNL     1      -0.602   2.329   1.525  0.00  0.00    -0.081 HD
ENDROOT
BRANCH   3   8
ATOM      8  S   UNL     1      -1.557  -0.093   5.409  0.00  0.00    +0.061 S 
ATOM      9  O   UNL     1      -0.573   0.269   6.368  0.00  0.00    -0.153 OA
ATOM     10  O   UNL     1      -2.949   0.057   5.652  0.00  0.00    -0.153 OA
BRANCH   8  11
ATOM     11  C   UNL     1      -1.292  -1.793   5.032  0.00  0.00    +0.106 A 
ATOM     12  C   UNL     1      -2.332  -2.564   4.546  0.00  0.00    +0.030 A 
ATOM     13  C   UNL     1      -2.123  -3.896   4.245  0.00  0.00    +0.022 A 
ATOM     14  C   UNL     1      -0.876  -4.463   4.442  0.00  0.00    +0.041 A 
ATOM     15  C   UNL     1       0.163  -3.693   4.934  0.00  0.00    +0.022 A 
ATOM     16  C   UNL     1      -0.046  -2.359   5.229  0.00  0.00    +0.030 A 
ATOM     17 CL   UNL     1      -0.615  -6.138   4.070  0.00  0.00    -0.084 Cl
ENDBRANCH   8  11
ENDBRANCH   3   8
BRANCH   6  18
ATOM     18  C   UNL     1      -0.034   1.049   0.021  0.00  0.00    +0.017 C 
ATOM     19  C   UNL     1      -0.145  -0.442  -0.301  0.00  0.00    -0.004 C 
BRANCH  18  21
ATOM     20  N   UNL     1      -0.608   1.879  -2.238  0.00  0.00    -0.287 N 
ATOM     21  C   UNL     1      -0.907   1.833  -0.925  0.00  0.00    +0.203 C 
ATOM     22  O   UNL     1      -1.880   2.423  -0.504  0.00  0.00    -0.277 OA
ATOM     23  H   UNL     1       0.129   1.353  -2.586  0.00  0.00    +0.155 HD
BRANCH  20  26
ATOM     24  C   UNL     1       0.729   3.121  -4.422  0.00  0.00    +0.047 C 
ATOM     25  C   UNL     1      -0.746   3.312  -4.178  0.00  0.00    -0.011 A 
ATOM     26  C   UNL     1      -1.359   2.687  -3.099  0.00  0.00    +0.038 A 
ATOM     27  C   UNL     1      -2.716   2.870  -2.874  0.00  0.00    +0.023 A 
ATOM     28  C   UNL     1      -3.456   3.668  -3.726  0.00  0.00    +0.003 A 
ATOM     29  C   UNL     1      -2.845   4.284  -4.802  0.00  0.00    +0.020 A 
ATOM     30  C   UNL     1      -1.492   4.104  -5.030  0.00  0.00    +0.046 A 
ATOM     31 CL   UNL     1      -0.729   4.880  -6.382  0.00  0.00    -0.083 Cl
ENDBRANCH  20  26
ENDBRANCH  18  21
ENDBRANCH   6  18
TORSDOF 5
