REMARK  Name = ZINC64590818
REMARK  11 active torsions:
REMARK  status: ('A' for Active; 'I' for Inactive)
REMARK    1  A    between atoms: C_1  and  C_2
REMARK    2  A    between atoms: C_2  and  C_3
REMARK    3  A    between atoms: C_3  and  N_4
REMARK    4  A    between atoms: N_4  and  C_5
REMARK    5  A    between atoms: N_4  and  C_15
REMARK    6  A    between atoms: C_5  and  C_6
REMARK    7  A    between atoms: C_9  and  C_12
REMARK    8  A    between atoms: C_12  and  C_13
REMARK    9  A    between atoms: C_12  and  C_14
REMARK   10  A    between atoms: C_15  and  C_16
REMARK   11  A    between atoms: C_24  and  C_27
REMARK                            x       y       z     vdW  Elec       q    Type
REMARK                         _______ _______ _______ _____ _____    ______ ____
ROOT
ATOM      1  N   UNL     1      -1.276  -2.085   0.038  0.00  0.00    -0.293 NA
ENDROOT
BRANCH   1   2
ATOM      2  C   UNL     1      -1.571  -0.650  -0.069  0.00  0.00    +0.085 C 
BRANCH   2   4
ATOM      3  C   UNL     1      -2.990   1.210   0.809  0.00  0.00    +0.005 C 
ATOM      4  C   UNL     1      -2.719  -0.294   0.879  0.00  0.00    +0.012 C 
ENDBRANCH   2   4
ENDBRANCH   1   2
BRANCH   1   5
ATOM      5  C   UNL     1      -2.452  -2.892  -0.314  0.00  0.00    +0.120 C 
BRANCH   5   6
ATOM      6  C   UNL     1      -2.775  -2.700  -1.773  0.00  0.00    -0.033 A 
ATOM      7  C   UNL     1      -3.633  -1.689  -2.164  0.00  0.00    +0.005 A 
ATOM      8  C   UNL     1      -3.929  -1.513  -3.502  0.00  0.00    +0.004 A 
ATOM      9  C   UNL     1      -3.367  -2.347  -4.451  0.00  0.00    -0.045 A 
ATOM     10  C   UNL     1      -2.508  -3.357  -4.060  0.00  0.00    +0.004 A 
ATOM     11  C   UNL     1      -2.208  -3.531  -2.722  0.00  0.00    +0.005 A 
BRANCH   9  12
ATOM     12  C   UNL     1      -3.691  -2.155  -5.910  0.00  0.00    +0.013 C 
ATOM     13  C   UNL     1      -2.403  -1.866  -6.684  0.00  0.00    +0.012 C 
ATOM     14  C   UNL     1      -4.341  -3.427  -6.459  0.00  0.00    +0.012 C 
ENDBRANCH   9  12
ENDBRANCH   5   6
ENDBRANCH   1   5
BRANCH   1  15
ATOM     15  C   UNL     1      -0.787  -2.424   1.381  0.00  0.00    +0.138 C 
BRANCH  15  16
ATOM     16  C   UNL     1       0.590  -1.843   1.576  0.00  0.00    +0.037 A 
ATOM     17  C   UNL     1       0.794  -0.854   2.518  0.00  0.00    +0.093 A 
ATOM     18  C   UNL     1       2.082  -0.331   2.682  0.00  0.00    +0.258 A 
ATOM     19  O   UNL     1       2.296   0.544   3.506  0.00  0.00    -0.267 OA
ATOM     20  N   UNL     1       3.084  -0.809   1.913  0.00  0.00    -0.269 N 
ATOM     21  C   UNL     1       4.343  -0.310   2.060  0.00  0.00    +0.096 A 
ATOM     22  C   UNL     1       5.362  -0.772   1.302  0.00  0.00    +0.019 A 
ATOM     23  C   UNL     1       5.133  -1.776   0.350  0.00  0.00    +0.008 A 
ATOM     24  C   UNL     1       3.878  -2.282   0.196  0.00  0.00    -0.009 A 
ATOM     25  C   UNL     1       2.830  -1.789   0.995  0.00  0.00    +0.121 A 
ATOM     26  N   UNL     1       1.603  -2.286   0.848  0.00  0.00    -0.343 N 
ATOM     27  C   UNL     1       3.614  -3.362  -0.822  0.00  0.00    +0.047 C 
ATOM     28  H   UNL     1       1.448  -2.983   0.193  0.00  0.00    +0.167 HD
ENDBRANCH  15  16
ENDBRANCH   1  15
TORSDOF 7
