REMARK  Name = ZINC63350841
REMARK  13 active torsions:
REMARK  status: ('A' for Active; 'I' for Inactive)
REMARK    1  A    between atoms: C_1  and  C_2
REMARK    2  A    between atoms: C_2  and  C_3
REMARK    3  A    between atoms: C_3  and  C_4
REMARK    4  A    between atoms: C_4  and  C_5
REMARK    5  A    between atoms: C_5  and  C_6
REMARK    6  A    between atoms: C_6  and  C_7
REMARK    7  A    between atoms: C_8  and  C_41
REMARK    8  A    between atoms: C_12  and  O_18
REMARK    9  A    between atoms: O_18  and  C_19
REMARK   10  A    between atoms: C_19  and  C_20
REMARK   11  A    between atoms: C_35  and  C_37
REMARK   12  A    between atoms: C_37  and  O_39
REMARK   13  A    between atoms: O_39  and  C_40
REMARK                            x       y       z     vdW  Elec       q    Type
REMARK                         _______ _______ _______ _____ _____    ______ ____
ROOT
ATOM      1  C   UNL     1       8.700  -4.659 -10.442  0.00  0.00    +0.324 C 
ENDROOT
BRANCH   1   2
ATOM      2  C   UNL     1       8.698  -6.025 -11.079  0.00  0.00    +0.254 C 
ATOM      3  O   UNL     1       7.900  -6.284 -11.954  0.00  0.00    -0.272 OA
ATOM      4  N   UNL     1       9.582  -6.958 -10.675  0.00  0.00    -0.283 N 
ATOM      5  C   UNL     1      10.629  -6.598  -9.705  0.00  0.00    +0.137 C 
ATOM      6  C   UNL     1      10.454  -7.491  -8.472  0.00  0.00    +0.124 C 
ATOM      7  C   UNL     1      10.323  -8.920  -8.983  0.00  0.00    -0.035 C 
ATOM      8  C   UNL     1      11.270  -9.624  -8.376  0.00  0.00    -0.001 A 
ATOM      9  C   UNL     1      11.598 -11.058  -8.409  0.00  0.00    +0.010 A 
ATOM     10  C   UNL     1      12.663 -11.447  -7.659  0.00  0.00    +0.001 A 
ATOM     11  C   UNL     1      13.425 -10.563  -6.889  0.00  0.00    +0.002 A 
ATOM     12  C   UNL     1      13.193  -9.230  -6.797  0.00  0.00    +0.026 A 
ATOM     13  C   UNL     1      12.096  -8.702  -7.537  0.00  0.00    +0.043 A 
ATOM     14  N   UNL     1      11.636  -7.465  -7.609  0.00  0.00    -0.376 N 
ATOM     15  C   UNL     1       9.320  -9.313 -10.040  0.00  0.00    +0.067 C 
ATOM     16  C   UNL     1       9.488  -8.324 -11.201  0.00  0.00    +0.189 C 
ATOM     17  H   UNL     1      12.008  -6.679  -7.179  0.00  0.00    +0.160 HD
BRANCH  16  18
ATOM     18  C   UNL     1       8.301  -8.427 -12.123  0.00  0.00    +0.328 C 
ATOM     19  O   UNL     1       7.181  -8.341 -11.677  0.00  0.00    -0.249 OA
BRANCH  18  20
ATOM     20  O   UNL     1       8.487  -8.613 -13.439  0.00  0.00    -0.467 OA
ATOM     21  C   UNL     1       7.316  -8.701 -14.254  0.00  0.00    +0.280 C 
ENDBRANCH  18  20
ENDBRANCH  16  18
ENDBRANCH   1   2
BRANCH   1  22
ATOM     22  O   UNL     1       7.679  -3.855 -11.036  0.00  0.00    -0.483 OA
BRANCH  22  28
ATOM     23  C   UNL     1       6.172   2.144  -9.677  0.00  0.00    +0.041 A 
ATOM     24  C   UNL     1       7.139   1.368  -9.123  0.00  0.00    -0.030 A 
ATOM     25  C   UNL     1       7.292  -0.003  -9.615  0.00  0.00    +0.021 A 
ATOM     26  C   UNL     1       8.268  -0.854  -9.085  0.00  0.00    +0.015 A 
ATOM     27  C   UNL     1       8.389  -2.127  -9.561  0.00  0.00    +0.046 A 
ATOM     28  C   UNL     1       7.546  -2.586 -10.572  0.00  0.00    +0.125 A 
ATOM     29  C   UNL     1       6.574  -1.757 -11.108  0.00  0.00    +0.092 A 
ATOM     30  C   UNL     1       6.437  -0.460 -10.636  0.00  0.00    +0.143 A 
ATOM     31  O   UNL     1       5.496   0.364 -11.143  0.00  0.00    -0.422 OA
ATOM     32  C   UNL     1       5.348   1.619 -10.694  0.00  0.00    +0.341 A 
ATOM     33  O   UNL     1       4.481   2.325 -11.178  0.00  0.00    -0.245 OA
ATOM     34  C   UNL     1       8.030   1.902  -8.032  0.00  0.00    +0.045 C 
BRANCH  23  35
ATOM     35  C   UNL     1       5.977   3.562  -9.203  0.00  0.00    +0.042 C 
BRANCH  35  36
ATOM     36  C   UNL     1       6.748   4.516 -10.117  0.00  0.00    +0.005 C 
BRANCH  36  37
ATOM     37  C   UNL     1       6.550   5.955  -9.636  0.00  0.00    +0.000 C 
BRANCH  37  38
ATOM     38  C   UNL     1       7.321   6.909 -10.550  0.00  0.00    -0.000 C 
BRANCH  38  40
ATOM     39  C   UNL     1       7.893   9.302 -10.983  0.00  0.00    +0.004 C 
ATOM     40  C   UNL     1       7.123   8.348 -10.069  0.00  0.00    -0.003 C 
ENDBRANCH  38  40
ENDBRANCH  37  38
ENDBRANCH  36  37
ENDBRANCH  35  36
ENDBRANCH  23  35
ENDBRANCH  22  28
ENDBRANCH   1  22
TORSDOF 10
