REMARK  Name = ZINC63385600
REMARK  5 active torsions:
REMARK  status: ('A' for Active; 'I' for Inactive)
REMARK    1  A    between atoms: C_7  and  C_10
REMARK    2  A    between atoms: C_10  and  C_11
REMARK    3  A    between atoms: C_11  and  N_12
REMARK    4  A    between atoms: C_13  and  C_15
REMARK    5  A    between atoms: N_20  and  C_22
REMARK                            x       y       z     vdW  Elec       q    Type
REMARK                         _______ _______ _______ _____ _____    ______ ____
ROOT
ATOM      1  N   UNL     1      -0.458  -4.798  -1.460  0.00  0.00    -0.315 N 
ATOM      2  C   UNL     1      -0.811  -5.380  -2.623  0.00  0.00    +0.217 C 
ATOM      3  O   UNL     1      -0.371  -4.957  -3.671  0.00  0.00    -0.275 OA
ATOM      4  H   UNL     1      -0.810  -5.136  -0.622  0.00  0.00    +0.149 HD
ENDROOT
BRANCH   2   5
ATOM      5  C   UNL     1      -1.752  -6.557  -2.622  0.00  0.00    +0.089 C 
ATOM      6  C   UNL     1      -1.139  -7.701  -1.808  0.00  0.00    +0.015 C 
ATOM      7  C   UNL     1      -2.073  -8.913  -1.862  0.00  0.00    +0.016 C 
ATOM      8  C   UNL     1      -2.296  -9.315  -3.321  0.00  0.00    +0.087 C 
ATOM      9  N   UNL     1      -2.884  -8.188  -4.057  0.00  0.00    -0.275 NA
ATOM     10  C   UNL     1      -1.985  -7.027  -4.059  0.00  0.00    +0.099 C 
BRANCH   9  11
ATOM     11  C   UNL     1      -3.240  -8.581  -5.426  0.00  0.00    +0.229 C 
ATOM     12  C   UNL     1      -4.315  -9.638  -5.351  0.00  0.00    +0.126 C 
ATOM     13  N   UNL     1      -5.508  -9.746  -4.861  0.00  0.00    -0.233 NA
ATOM     14  C   UNL     1      -5.984 -10.979  -5.119  0.00  0.00    +0.224 C 
ATOM     15  N   UNL     1      -5.117 -11.702  -5.782  0.00  0.00    -0.215 NA
ATOM     16  C   UNL     1      -4.006 -10.947  -5.989  0.00  0.00    +0.181 C 
ATOM     17  N   UNL     1      -2.849 -11.111  -6.568  0.00  0.00    -0.215 NA
ATOM     18  C   UNL     1      -1.905 -10.166  -6.627  0.00  0.00    +0.220 C 
ATOM     19  N   UNL     1      -2.005  -8.982  -6.128  0.00  0.00    -0.247 NA
ENDBRANCH   9  11
ENDBRANCH   2   5
BRANCH   1  20
ATOM     20  C   UNL     1       0.457  -3.653  -1.462  0.00  0.00    +0.108 C 
BRANCH  20  21
ATOM     21  C   UNL     1       0.691  -3.186  -0.024  0.00  0.00    +0.052 C 
BRANCH  21  28
ATOM     22  C   UNL     1      -0.016   1.348   0.009  0.00  0.00    +0.001 A 
ATOM     23  C   UNL     1       1.166   2.101   0.002  0.00  0.00    +0.002 A 
ATOM     24  C   UNL     1       2.391   1.535  -0.013  0.00  0.00    +0.026 A 
ATOM     25  C   UNL     1       2.529   0.120  -0.022  0.00  0.00    +0.043 A 
ATOM     26  N   UNL     1       3.587  -0.654  -0.037  0.00  0.00    -0.380 N 
ATOM     27  C   UNL     1       3.143  -2.053  -0.041  0.00  0.00    +0.144 C 
ATOM     28  C   UNL     1       1.631  -2.008  -0.025  0.00  0.00    -0.040 C 
ATOM     29  C   UNL     1       1.295  -0.698  -0.014  0.00  0.00    -0.001 A 
ATOM     30  C   UNL     1       0.002  -0.004   0.002  0.00  0.00    +0.010 A 
ATOM     31  H   UNL     1       4.509  -0.353  -0.045  0.00  0.00    +0.160 HD
ENDBRANCH  21  28
ENDBRANCH  20  21
ENDBRANCH   1  20
TORSDOF 5
