REMARK  Name = ZINC40819209
REMARK  8 active torsions:
REMARK  status: ('A' for Active; 'I' for Inactive)
REMARK    1  A    between atoms: C_1  and  C_2
REMARK    2  A    between atoms: C_2  and  C_3
REMARK    3  A    between atoms: C_2  and  C_4
REMARK    4  A    between atoms: C_4  and  C_5
REMARK    5  A    between atoms: C_5  and  C_7
REMARK    6  A    between atoms: C_5  and  N_16
REMARK    7  A    between atoms: C_17  and  C_19
REMARK    8  A    between atoms: N_27  and  C_28
REMARK                            x       y       z     vdW  Elec       q    Type
REMARK                         _______ _______ _______ _____ _____    ______ ____
ROOT
ATOM      1  N   UNL     1      -1.486  -0.795  -2.419  0.00  0.00    -0.300 N 
ATOM      2  C   UNL     1      -0.396  -0.244  -2.988  0.00  0.00    +0.263 C 
ATOM      3  O   UNL     1      -0.004   0.848  -2.622  0.00  0.00    -0.269 OA
ATOM      4  H   UNL     1      -1.845  -1.628  -2.764  0.00  0.00    +0.150 HD
ENDROOT
BRANCH   2   5
ATOM      5  C   UNL     1       0.321  -0.963  -4.050  0.00  0.00    +0.124 A 
ATOM      6  C   UNL     1       1.345  -1.838  -3.856  0.00  0.00    +0.079 A 
ATOM      7  C   UNL     1       1.754  -2.313  -5.175  0.00  0.00    +0.019 A 
ATOM      8  C   UNL     1       2.734  -3.206  -5.621  0.00  0.00    +0.011 A 
ATOM      9  C   UNL     1       2.874  -3.448  -6.957  0.00  0.00    +0.001 A 
ATOM     10  C   UNL     1       2.051  -2.814  -7.879  0.00  0.00    +0.002 A 
ATOM     11  C   UNL     1       1.080  -1.931  -7.465  0.00  0.00    +0.026 A 
ATOM     12  C   UNL     1       0.917  -1.667  -6.107  0.00  0.00    +0.051 A 
ATOM     13  N   UNL     1       0.056  -0.861  -5.403  0.00  0.00    -0.338 N 
ATOM     14  C   UNL     1      -0.985  -0.018  -5.997  0.00  0.00    +0.149 C 
ATOM     15 CL   UNL     1       2.034  -2.301  -2.331  0.00  0.00    -0.081 Cl
ENDBRANCH   2   5
BRANCH   1  16
ATOM     16  C   UNL     1      -2.131  -0.135  -1.282  0.00  0.00    +0.142 C 
BRANCH  16  17
ATOM     17  C   UNL     1      -3.580  -0.543  -1.219  0.00  0.00    +0.159 A 
ATOM     18  N   UNL     1      -4.048  -1.757  -1.347  0.00  0.00    -0.130 NA
ATOM     19  N   UNL     1      -5.330  -1.755  -1.241  0.00  0.00    -0.108 NA
ATOM     20  C   UNL     1      -5.757  -0.519  -1.036  0.00  0.00    +0.256 A 
ATOM     21  N   UNL     1      -4.642   0.282  -1.013  0.00  0.00    -0.269 N 
ATOM     22  C   UNL     1      -4.769   1.625  -0.811  0.00  0.00    +0.097 A 
ATOM     23  C   UNL     1      -6.007   2.149  -0.634  0.00  0.00    +0.038 A 
ATOM     24  C   UNL     1      -7.123   1.299  -0.661  0.00  0.00    +0.116 A 
ATOM     25  N   UNL     1      -6.974   0.011  -0.863  0.00  0.00    -0.219 NA
ENDBRANCH  16  17
BRANCH  16  26
ATOM     26  C   UNL     1      -1.428  -0.548   0.013  0.00  0.00    +0.033 C 
BRANCH  26  28
ATOM     27  C   UNL     1      -0.005   1.506   0.020  0.00  0.00    +0.007 C 
ATOM     28  C   UNL     1       0.009  -0.024   0.003  0.00  0.00    -0.015 C 
ATOM     29  C   UNL     1       0.749  -0.541   1.238  0.00  0.00    +0.007 C 
ENDBRANCH  26  28
ENDBRANCH  16  26
ENDBRANCH   1  16
TORSDOF 5
