REMARK  Name = ZINC23261864
REMARK  5 active torsions:
REMARK  status: ('A' for Active; 'I' for Inactive)
REMARK    1  A    between atoms: C_1  and  N_2
REMARK    2  A    between atoms: N_2  and  C_3
REMARK    3  A    between atoms: C_14  and  C_16
REMARK    4  A    between atoms: C_16  and  S_17
REMARK    5  A    between atoms: S_17  and  C_18
REMARK                            x       y       z     vdW  Elec       q    Type
REMARK                         _______ _______ _______ _____ _____    ______ ____
ROOT
ATOM      1  S   UNL     1      -0.020  -1.080  -3.852  0.00  0.00    -0.078 S 
ENDROOT
BRANCH   1   2
ATOM      2  C   UNL     1      -0.048   0.047  -5.206  0.00  0.00    +0.170 A 
ATOM      3  N   UNL     1      -0.048  -0.434  -6.483  0.00  0.00    -0.301 N 
ATOM      4  H   UNL     1      -0.026  -1.519  -6.661  0.00  0.00    +0.171 HD
ATOM      5  C   UNL     1      -0.074   0.396  -7.542  0.00  0.00    +0.261 A 
ATOM      6  O   UNL     1      -0.079  -0.050  -8.677  0.00  0.00    -0.267 OA
ATOM      7  C   UNL     1      -0.092   1.809  -7.318  0.00  0.00    +0.075 A 
ATOM      8  C   UNL     1      -0.117   2.884  -8.311  0.00  0.00    -0.023 A 
ATOM      9  C   UNL     1      -0.131   4.149  -7.843  0.00  0.00    -0.004 A 
ATOM     10  S   UNL     1      -0.111   3.987  -6.078  0.00  0.00    -0.073 S 
ATOM     11  C   UNL     1      -0.085   2.216  -5.973  0.00  0.00    +0.117 A 
ATOM     12  N   UNL     1      -0.063   1.344  -4.972  0.00  0.00    -0.216 NA
ATOM     13  C   UNL     1      -0.157   5.413  -8.647  0.00  0.00    +0.043 C 
ATOM     14  C   UNL     1       0.207   5.073 -10.099  0.00  0.00    +0.005 C 
ATOM     15  C   UNL     1      -0.617   3.860 -10.541  0.00  0.00    +0.005 C 
ATOM     16  C   UNL     1      -0.129   2.607  -9.812  0.00  0.00    +0.037 C 
ENDBRANCH   1   2
BRANCH   1  17
ATOM     17  C   UNL     1      -0.023   0.089  -2.470  0.00  0.00    +0.173 C 
BRANCH  17  20
ATOM     18  C   UNL     1      -0.018   1.461   0.010  0.00  0.00    +0.132 C 
ATOM     19  N   UNL     1       0.002  -0.004   0.002  0.00  0.00    -0.297 N 
ATOM     20  C   UNL     1       0.000  -0.672  -1.169  0.00  0.00    +0.226 C 
ATOM     21  O   UNL     1       0.017  -1.884  -1.175  0.00  0.00    -0.275 OA
BRANCH  19  22
ATOM     22  C   UNL     1       0.024  -0.743   1.267  0.00  0.00    +0.106 C 
ATOM     23  C   UNL     1      -1.235  -0.413   2.065  0.00  0.00    +0.027 C 
ATOM     24  C   UNL     1      -1.093  -1.019   3.466  0.00  0.00    +0.007 C 
ATOM     25  C   UNL     1      -0.020  -0.237   4.222  0.00  0.00    +0.035 C 
ATOM     26  C   UNL     1       1.239  -0.138   3.401  0.00  0.00    -0.042 A 
ATOM     27  C   UNL     1       1.258  -0.363   2.043  0.00  0.00    -0.024 A 
ATOM     28  C   UNL     1       2.451  -0.242   1.342  0.00  0.00    +0.006 A 
ATOM     29  C   UNL     1       3.617   0.099   1.996  0.00  0.00    +0.000 A 
ATOM     30  C   UNL     1       3.599   0.320   3.361  0.00  0.00    +0.000 A 
ATOM     31  C   UNL     1       2.414   0.202   4.058  0.00  0.00    +0.004 A 
ENDBRANCH  19  22
ENDBRANCH  17  20
ENDBRANCH   1  17
TORSDOF 4
