REMARK  Name = ZINC19500586
REMARK  10 active torsions:
REMARK  status: ('A' for Active; 'I' for Inactive)
REMARK    1  A    between atoms: C_1  and  C_2
REMARK    2  A    between atoms: C_2  and  C_3
REMARK    3  A    between atoms: C_3  and  C_5
REMARK    4  A    between atoms: C_3  and  N_15
REMARK    5  A    between atoms: N_9  and  C_10
REMARK    6  A    between atoms: N_15  and  C_16
REMARK    7  A    between atoms: N_15  and  C_22
REMARK    8  A    between atoms: C_16  and  C_17
REMARK    9  A    between atoms: C_22  and  C_23
REMARK   10  A    between atoms: C_27  and  C_35
REMARK                            x       y       z     vdW  Elec       q    Type
REMARK                         _______ _______ _______ _____ _____    ______ ____
ROOT
ATOM      1  N   UNL     1       1.965  -0.818   2.254  0.00  0.00    +0.392 N 
ATOM      2  H   UNL     1       2.425  -1.260   1.472  0.00  0.00    -0.080 HD
ENDROOT
BRANCH   1   3
ATOM      3  C   UNL     1       0.509  -0.897   2.075  0.00  0.00    +0.003 C 
BRANCH   3   4
ATOM      4  C   UNL     1      -0.176  -0.160   3.197  0.00  0.00    +0.138 A 
ATOM      5  N   UNL     1       0.251  -0.042   4.430  0.00  0.00    -0.115 NA
ATOM      6  N   UNL     1      -0.611   0.659   5.084  0.00  0.00    -0.023 NA
ATOM      7  N   UNL     1      -1.576   0.991   4.299  0.00  0.00    -0.044 NA
ATOM      8  N   UNL     1      -1.341   0.509   3.125  0.00  0.00    -0.228 N 
BRANCH   8   9
ATOM      9  C   UNL     1      -2.187   0.659   1.938  0.00  0.00    +0.111 C 
ATOM     10  C   UNL     1      -2.490   2.151   1.691  0.00  0.00    +0.027 C 
ATOM     11  C   UNL     1      -3.955   2.163   1.186  0.00  0.00    +0.002 C 
ATOM     12  C   UNL     1      -4.622   1.062   2.048  0.00  0.00    +0.002 C 
ATOM     13  C   UNL     1      -3.542  -0.033   2.165  0.00  0.00    +0.027 C 
ENDBRANCH   8   9
ENDBRANCH   3   4
BRANCH   3  15
ATOM     14  C   UNL     1       0.708  -3.094   0.901  0.00  0.00    +0.002 C 
ATOM     15  C   UNL     1       0.072  -2.363   2.086  0.00  0.00    -0.011 C 
ENDBRANCH   3  15
ENDBRANCH   1   3
BRANCH   1  16
ATOM     16  C   UNL     1       2.374   0.591   2.330  0.00  0.00    -0.034 C 
BRANCH  16  17
ATOM     17  C   UNL     1       2.111   1.262   1.007  0.00  0.00    -0.027 A 
ATOM     18  C   UNL     1       1.040   1.998   0.621  0.00  0.00    +0.009 A 
ATOM     19  C   UNL     1       1.013   2.524  -0.657  0.00  0.00    +0.008 A 
ATOM     20  C   UNL     1       2.058   2.288  -1.487  0.00  0.00    +0.045 A 
ATOM     21  S   UNL     1       3.132   1.301  -0.457  0.00  0.00    -0.103 S 
ENDBRANCH  16  17
ENDBRANCH   1  16
BRANCH   1  22
ATOM     22  C   UNL     1       2.343  -1.506   3.496  0.00  0.00    -0.036 C 
BRANCH  22  23
ATOM     23  C   UNL     1       3.845  -1.561   3.603  0.00  0.00    +0.001 A 
ATOM     24  C   UNL     1       4.507  -0.622   4.323  0.00  0.00    +0.017 A 
ATOM     25  C   UNL     1       5.966  -0.705   4.407  0.00  0.00    -0.001 A 
ATOM     26  C   UNL     1       6.704   0.234   5.135  0.00  0.00    +0.013 A 
ATOM     27  C   UNL     1       8.064   0.129   5.194  0.00  0.00    -0.050 A 
ATOM     28  C   UNL     1       8.722  -0.902   4.537  0.00  0.00    +0.005 A 
ATOM     29  C   UNL     1       8.016  -1.839   3.813  0.00  0.00    +0.026 A 
ATOM     30  C   UNL     1       6.630  -1.752   3.739  0.00  0.00    +0.049 A 
ATOM     31  N   UNL     1       5.898  -2.675   3.023  0.00  0.00    -0.322 N 
ATOM     32  H   UNL     1       6.357  -3.396   2.564  0.00  0.00    +0.169 HD
ATOM     33  C   UNL     1       4.558  -2.594   2.956  0.00  0.00    +0.251 A 
ATOM     34  O   UNL     1       3.943  -3.431   2.318  0.00  0.00    -0.268 OA
ATOM     35  C   UNL     1       8.859   1.141   5.979  0.00  0.00    +0.044 C 
ENDBRANCH  22  23
ENDBRANCH   1  22
TORSDOF 8
