REMARK  Name = ZINC36047790
REMARK  7 active torsions:
REMARK  status: ('A' for Active; 'I' for Inactive)
REMARK    1  A    between atoms: C_1  and  C_2
REMARK    2  A    between atoms: C_2  and  C_3
REMARK    3  A    between atoms: C_2  and  C_4
REMARK    4  A    between atoms: C_4  and  C_5
REMARK    5  A    between atoms: N_9  and  C_13
REMARK    6  A    between atoms: C_13  and  N_14
REMARK    7  A    between atoms: C_18  and  C_21
REMARK                            x       y       z     vdW  Elec       q    Type
REMARK                         _______ _______ _______ _____ _____    ______ ____
ROOT
ATOM      1  N   UNL     1      -4.220  -5.425   0.654  0.00  0.00    +0.391 N 
ATOM      2  C   UNL     1      -4.077  -5.369  -0.806  0.00  0.00    -0.077 C 
ATOM      3  C   UNL     1      -3.893  -6.784  -1.359  0.00  0.00    -0.018 C 
ATOM      4  C   UNL     1      -5.116  -7.631  -0.996  0.00  0.00    +0.009 C 
ATOM      5  C   UNL     1      -5.299  -7.621   0.524  0.00  0.00    +0.059 C 
ATOM      6  C   UNL     1      -5.430  -6.175   1.007  0.00  0.00    -0.064 C 
ATOM      7  H   UNL     1      -3.413  -5.883   1.051  0.00  0.00    -0.079 HD
ENDROOT
BRANCH   5   8
ATOM      8  C   UNL     1      -6.543  -8.389   0.886  0.00  0.00    +0.217 C 
ATOM      9  O   UNL     1      -7.508  -8.362   0.152  0.00  0.00    -0.275 OA
ATOM     10  N   UNL     1      -6.584  -9.107   2.026  0.00  0.00    -0.297 N 
ATOM     11  C   UNL     1      -5.473  -9.063   2.990  0.00  0.00    +0.136 C 
ATOM     12  C   UNL     1      -6.050  -8.776   4.381  0.00  0.00    +0.179 C 
ATOM     13  O   UNL     1      -7.094  -9.712   4.659  0.00  0.00    -0.377 OA
ATOM     14  C   UNL     1      -8.208  -9.627   3.767  0.00  0.00    +0.179 C 
ATOM     15  C   UNL     1      -7.745  -9.954   2.347  0.00  0.00    +0.136 C 
ENDBRANCH   5   8
BRANCH   1  16
ATOM     16  C   UNL     1      -4.317  -4.060   1.188  0.00  0.00    +0.043 C 
BRANCH  16  20
ATOM     17  C   UNL     1      -1.406  -2.077   0.010  0.00  0.00    +0.161 C 
ATOM     18  C   UNL     1      -2.808  -2.624  -0.169  0.00  0.00    +0.242 C 
ATOM     19  O   UNL     1      -3.548  -2.448  -1.114  0.00  0.00    -0.273 OA
ATOM     20  N   UNL     1      -3.062  -3.347   0.939  0.00  0.00    -0.241 N 
ATOM     21  C   UNL     1      -2.026  -3.333   1.785  0.00  0.00    +0.307 C 
ATOM     22  O   UNL     1      -2.017  -3.914   2.853  0.00  0.00    -0.252 OA
ATOM     23  N   UNL     1      -0.990  -2.605   1.321  0.00  0.00    -0.288 N 
ATOM     24  H   UNL     1      -0.139  -2.457   1.762  0.00  0.00    +0.151 HD
BRANCH  17  25
ATOM     25  C   UNL     1      -1.423  -0.547   0.027  0.00  0.00    +0.034 C 
BRANCH  25  27
ATOM     26  C   UNL     1       0.851  -0.411  -0.998  0.00  0.00    +0.007 C 
ATOM     27  C   UNL     1       0.002  -0.023   0.214  0.00  0.00    -0.015 C 
ATOM     28  C   UNL     1      -0.028   1.501   0.348  0.00  0.00    +0.007 C 
ENDBRANCH  25  27
ENDBRANCH  17  25
ENDBRANCH  16  20
ENDBRANCH   1  16
TORSDOF 5
