REMARK  Name = ZINC28058191
REMARK  7 active torsions:
REMARK  status: ('A' for Active; 'I' for Inactive)
REMARK    1  A    between atoms: C_1  and  C_2
REMARK    2  A    between atoms: C_2  and  C_3
REMARK    3  A    between atoms: C_6  and  C_9
REMARK    4  A    between atoms: C_15  and  C_20
REMARK    5  A    between atoms: C_27  and  C_29
REMARK    6  A    between atoms: C_34  and  O_35
REMARK    7  A    between atoms: O_35  and  C_36
REMARK                            x       y       z     vdW  Elec       q    Type
REMARK                         _______ _______ _______ _____ _____    ______ ____
ROOT
ATOM      1  C   UNL     1       2.518   3.751   0.255  0.00  0.00    +0.234 C 
ATOM      2  C   UNL     1       1.282   2.882   0.224  0.00  0.00    +0.026 C 
ATOM      3  C   UNL     1       1.399   1.596  -0.114  0.00  0.00    +0.050 C 
ATOM      4  C   UNL     1       2.741   1.080  -0.473  0.00  0.00    +0.038 A 
ATOM      5  C   UNL     1       3.012  -0.282  -0.505  0.00  0.00    +0.016 A 
ATOM      6  C   UNL     1       4.279  -0.716  -0.848  0.00  0.00    -0.050 A 
ATOM      7  C   UNL     1       5.271   0.197  -1.158  0.00  0.00    +0.007 A 
ATOM      8  C   UNL     1       5.010   1.556  -1.128  0.00  0.00    +0.046 A 
ATOM      9  C   UNL     1       3.748   2.004  -0.785  0.00  0.00    +0.131 A 
ATOM     10  O   UNL     1       3.453   3.328  -0.738  0.00  0.00    -0.479 OA
ATOM     11  C   UNL     1       4.580  -2.192  -0.884  0.00  0.00    +0.044 C 
ATOM     12  N   UNL     1       0.299   0.731  -0.156  0.00  0.00    -0.282 N 
ATOM     13  C   UNL     1      -0.961   1.305  -0.124  0.00  0.00    +0.240 A 
ATOM     14  N   UNL     1      -2.138   0.809  -0.379  0.00  0.00    -0.092 NA
ATOM     15  N   UNL     1      -3.044   1.714  -0.231  0.00  0.00    -0.021 NA
ATOM     16  N   UNL     1      -2.507   2.834   0.140  0.00  0.00    -0.042 NA
ATOM     17  N   UNL     1      -1.134   2.608   0.221  0.00  0.00    -0.201 N 
ATOM     18  C   UNL     1      -0.045   3.504   0.584  0.00  0.00    +0.177 C 
ATOM     19  H   UNL     1       0.457  -0.357  -0.211  0.00  0.00    +0.155 HD
ENDROOT
BRANCH   1  23
ATOM     20  C   UNL     1       4.337   3.475   4.110  0.00  0.00    -0.048 A 
ATOM     21  C   UNL     1       4.446   2.425   3.217  0.00  0.00    +0.004 A 
ATOM     22  C   UNL     1       3.857   2.514   1.970  0.00  0.00    +0.008 A 
ATOM     23  C   UNL     1       3.160   3.653   1.615  0.00  0.00    -0.003 A 
ATOM     24  C   UNL     1       3.056   4.706   2.505  0.00  0.00    +0.008 A 
ATOM     25  C   UNL     1       3.640   4.614   3.754  0.00  0.00    +0.004 A 
BRANCH  20  27
ATOM     26  C   UNL     1       6.407   3.920   5.400  0.00  0.00    +0.009 C 
ATOM     27  C   UNL     1       4.979   3.377   5.470  0.00  0.00    +0.032 C 
ENDBRANCH  20  27
ENDBRANCH   1  23
BRANCH  18  28
ATOM     28  C   UNL     1      -0.087   3.768   2.067  0.00  0.00    +0.023 A 
ATOM     29  C   UNL     1       0.039   2.720   2.959  0.00  0.00    +0.009 A 
ATOM     30  C   UNL     1       0.005   2.962   4.320  0.00  0.00    +0.001 A 
ATOM     31  C   UNL     1      -0.166   4.250   4.792  0.00  0.00    +0.004 A 
ATOM     32  C   UNL     1      -0.298   5.300   3.904  0.00  0.00    +0.046 A 
ATOM     33  C   UNL     1      -0.259   5.061   2.538  0.00  0.00    +0.126 A 
BRANCH  33  34
ATOM     34  O   UNL     1      -0.388   6.092   1.662  0.00  0.00    -0.495 OA
ATOM     35  C   UNL     1      -0.562   7.397   2.218  0.00  0.00    +0.277 C 
ENDBRANCH  33  34
ENDBRANCH  18  28
TORSDOF 4
