REMARK  Name = ZINC14163700
REMARK  4 active torsions:
REMARK  status: ('A' for Active; 'I' for Inactive)
REMARK    1  A    between atoms: C_1  and  C_2
REMARK    2  A    between atoms: C_3  and  C_27
REMARK    3  A    between atoms: C_7  and  C_19
REMARK    4  A    between atoms: C_13  and  C_18
REMARK                            x       y       z     vdW  Elec       q    Type
REMARK                         _______ _______ _______ _____ _____    ______ ____
ROOT
ATOM      1  C   UNL     1       4.766   2.503   0.297  0.00  0.00    +0.068 C 
ATOM      2  C   UNL     1       3.271   2.454   0.113  0.00  0.00    +0.070 A 
ATOM      3  C   UNL     1       2.459   1.308   0.249  0.00  0.00    +0.044 A 
ATOM      4  C   UNL     1       1.167   1.697   0.000  0.00  0.00    +0.130 A 
ATOM      5  N   UNL     1       1.185   3.027  -0.283  0.00  0.00    -0.238 N 
ATOM      6  N   UNL     1       2.504   3.468  -0.202  0.00  0.00    -0.173 NA
ATOM      7  C   UNL     1      -0.021   3.783  -0.611  0.00  0.00    +0.174 C 
ATOM      8  C   UNL     1      -1.252   2.980  -0.249  0.00  0.00    +0.041 C 
ATOM      9  C   UNL     1      -1.197   1.658   0.017  0.00  0.00    +0.018 C 
ATOM     10  N   UNL     1      -0.011   0.966   0.007  0.00  0.00    -0.302 N 
ATOM     11  C   UNL     1      -2.450   0.880   0.339  0.00  0.00    +0.055 C 
ATOM     12  C   UNL     1      -3.453   1.791   1.051  0.00  0.00    -0.001 C 
ATOM     13  C   UNL     1      -3.759   2.979   0.133  0.00  0.00    +0.083 C 
ATOM     14  C   UNL     1      -2.474   3.674  -0.203  0.00  0.00    +0.163 C 
ATOM     15  O   UNL     1      -2.492   4.863  -0.454  0.00  0.00    -0.292 OA
ATOM     16  C   UNL     1      -4.740   1.016   1.338  0.00  0.00    +0.008 C 
ATOM     17  H   UNL     1       0.002  -0.004   0.002  0.00  0.00    +0.153 HD
ENDROOT
BRANCH   7  18
ATOM     18  C   UNL     1      -0.037   4.083  -2.087  0.00  0.00    -0.013 A 
ATOM     19  C   UNL     1      -0.024   3.048  -3.003  0.00  0.00    +0.044 A 
ATOM     20  C   UNL     1      -0.044   3.323  -4.360  0.00  0.00    +0.126 A 
ATOM     21  C   UNL     1      -0.065   4.636  -4.799  0.00  0.00    +0.076 A 
ATOM     22  C   UNL     1      -0.072   5.672  -3.881  0.00  0.00    +0.126 A 
ATOM     23  C   UNL     1      -0.058   5.394  -2.525  0.00  0.00    +0.044 A 
ATOM     24  F   UNL     1      -0.092   6.953  -4.308  0.00  0.00    -0.205 F 
ATOM     25  F   UNL     1      -0.037   2.311  -5.255  0.00  0.00    -0.205 F 
ENDBRANCH   7  18
BRANCH   3  26
ATOM     26  C   UNL     1       2.916  -0.060   0.595  0.00  0.00    -0.013 A 
ATOM     27  C   UNL     1       2.518  -0.647   1.796  0.00  0.00    +0.010 A 
ATOM     28  C   UNL     1       2.942  -1.922   2.111  0.00  0.00    +0.020 A 
ATOM     29  C   UNL     1       3.769  -2.614   1.243  0.00  0.00    +0.041 A 
ATOM     30  C   UNL     1       4.171  -2.033   0.052  0.00  0.00    +0.020 A 
ATOM     31  C   UNL     1       3.748  -0.761  -0.275  0.00  0.00    +0.010 A 
ATOM     32 CL   UNL     1       4.303  -4.215   1.649  0.00  0.00    -0.084 Cl
ENDBRANCH   3  26
TORSDOF 2
