REMARK  Name = ZINC48360833
REMARK  5 active torsions:
REMARK  status: ('A' for Active; 'I' for Inactive)
REMARK    1  A    between atoms: C_4  and  C_7
REMARK    2  A    between atoms: C_7  and  C_9
REMARK    3  A    between atoms: C_7  and  N_20
REMARK    4  A    between atoms: C_18  and  O_19
REMARK    5  A    between atoms: C_21  and  C_23
REMARK                            x       y       z     vdW  Elec       q    Type
REMARK                         _______ _______ _______ _____ _____    ______ ____
ROOT
ATOM      1  C   UNL     1       3.710  -0.447  -0.374  0.00  0.00    +0.138 C 
ENDROOT
BRANCH   1   2
ATOM      2  C   UNL     1       3.964  -0.843   1.057  0.00  0.00    +0.026 A 
ATOM      3  C   UNL     1       4.861  -0.104   1.846  0.00  0.00    -0.009 A 
ATOM      4  C   UNL     1       5.539   1.013   1.327  0.00  0.00    +0.009 A 
ATOM      5  C   UNL     1       6.401   1.706   2.120  0.00  0.00    +0.001 A 
ATOM      6  C   UNL     1       6.624   1.324   3.442  0.00  0.00    +0.001 A 
ATOM      7  C   UNL     1       5.986   0.248   3.978  0.00  0.00    +0.008 A 
ATOM      8  C   UNL     1       5.088  -0.492   3.191  0.00  0.00    -0.017 A 
ATOM      9  C   UNL     1       4.411  -1.608   3.712  0.00  0.00    +0.012 A 
ATOM     10  C   UNL     1       3.548  -2.303   2.922  0.00  0.00    +0.046 A 
ATOM     11  C   UNL     1       3.319  -1.920   1.597  0.00  0.00    +0.123 A 
BRANCH  11  12
ATOM     12  O   UNL     1       2.447  -2.630   0.835  0.00  0.00    -0.506 OA
ATOM     13  H   UNL     1       2.832  -3.420   0.429  0.00  0.00    +0.292 HD
ENDBRANCH  11  12
ENDBRANCH   1   2
BRANCH   1  17
ATOM     14  C   UNL     1      -0.131   1.397  -0.682  0.00  0.00    +0.000 A 
ATOM     15  C   UNL     1       1.008   2.178  -0.631  0.00  0.00    +0.000 A 
ATOM     16  C   UNL     1       2.251   1.581  -0.531  0.00  0.00    +0.006 A 
ATOM     17  C   UNL     1       2.355   0.204  -0.482  0.00  0.00    -0.023 A 
ATOM     18  C   UNL     1       1.215  -0.577  -0.532  0.00  0.00    +0.006 A 
ATOM     19  C   UNL     1      -0.028   0.019  -0.634  0.00  0.00    +0.000 A 
ENDBRANCH   1  17
BRANCH   1  20
ATOM     20  N   UNL     1       3.748  -1.639  -1.225  0.00  0.00    -0.299 N 
ATOM     21  C   UNL     1       4.117  -1.532  -2.517  0.00  0.00    +0.265 C 
ATOM     22  O   UNL     1       4.330  -0.438  -3.000  0.00  0.00    -0.268 OA
ATOM     23  H   UNL     1       3.509  -2.504  -0.859  0.00  0.00    +0.150 HD
BRANCH  21  24
ATOM     24  C   UNL     1       4.263  -2.749  -3.347  0.00  0.00    +0.146 A 
ATOM     25  C   UNL     1       3.910  -3.991  -2.822  0.00  0.00    +0.034 A 
ATOM     26  C   UNL     1       4.052  -5.120  -3.611  0.00  0.00    +0.004 A 
ATOM     27  C   UNL     1       4.543  -4.970  -4.900  0.00  0.00    +0.021 A 
ATOM     28  C   UNL     1       4.875  -3.707  -5.358  0.00  0.00    +0.134 A 
ATOM     29  N   UNL     1       4.726  -2.648  -4.589  0.00  0.00    -0.135 N 
ATOM     30  O   UNL     1       5.071  -1.372  -5.096  0.00  0.00    -0.164 OA
ENDBRANCH  21  24
ENDBRANCH   1  20
TORSDOF 5
