REMARK  Name = ZINC21223932
REMARK  8 active torsions:
REMARK  status: ('A' for Active; 'I' for Inactive)
REMARK    1  A    between atoms: C_1  and  C_2
REMARK    2  A    between atoms: C_2  and  O_3
REMARK    3  A    between atoms: O_3  and  C_4
REMARK    4  A    between atoms: C_5  and  C_12
REMARK    5  A    between atoms: C_9  and  O_10
REMARK    6  A    between atoms: O_10  and  C_11
REMARK    7  A    between atoms: C_17  and  C_22
REMARK    8  A    between atoms: C_25  and  C_28
REMARK                            x       y       z     vdW  Elec       q    Type
REMARK                         _______ _______ _______ _____ _____    ______ ____
ROOT
ATOM      1  C   UNL     1       1.130  -2.152  -0.765  0.00  0.00    +0.140 C 
ATOM      2  C   UNL     1       1.023  -0.648  -0.677  0.00  0.00    +0.037 C 
ATOM      3  C   UNL     1       0.055   0.038  -0.048  0.00  0.00    +0.017 C 
ATOM      4  C   UNL     1       0.058   1.558  -0.059  0.00  0.00    +0.059 C 
ATOM      5  C   UNL     1       1.496   2.075  -0.078  0.00  0.00    +0.032 C 
ATOM      6  C   UNL     1       2.169   1.534  -1.345  0.00  0.00    +0.088 C 
ATOM      7  C   UNL     1       2.070   0.038  -1.337  0.00  0.00    +0.163 C 
ATOM      8  O   UNL     1       2.919  -0.608  -1.918  0.00  0.00    -0.292 OA
ATOM      9  N   UNL     1      -0.979  -0.521   0.629  0.00  0.00    -0.316 N 
ATOM     10  C   UNL     1      -1.767  -1.563   0.153  0.00  0.00    +0.052 A 
ATOM     11  C   UNL     1      -3.127  -1.421  -0.058  0.00  0.00    +0.025 A 
ATOM     12  C   UNL     1      -3.875  -2.526  -0.429  0.00  0.00    +0.002 A 
ATOM     13  C   UNL     1      -3.267  -3.758  -0.586  0.00  0.00    +0.002 A 
ATOM     14  C   UNL     1      -1.903  -3.897  -0.396  0.00  0.00    +0.025 A 
ATOM     15  C   UNL     1      -1.149  -2.789  -0.041  0.00  0.00    +0.049 A 
ATOM     16  N   UNL     1       0.233  -2.869   0.117  0.00  0.00    -0.331 N 
ATOM     17  H   UNL     1      -1.245  -0.152   1.631  0.00  0.00    +0.152 HD
ATOM     18  H   UNL     1       0.640  -3.489   0.930  0.00  0.00    +0.147 HD
ENDROOT
BRANCH   5  19
ATOM     19  C   UNL     1       1.496   3.582  -0.103  0.00  0.00    -0.043 A 
ATOM     20  C   UNL     1       0.895   4.256  -1.149  0.00  0.00    +0.004 A 
ATOM     21  C   UNL     1       0.892   5.638  -1.170  0.00  0.00    +0.003 A 
ATOM     22  C   UNL     1       1.498   6.346  -0.149  0.00  0.00    -0.050 A 
ATOM     23  C   UNL     1       2.103   5.672   0.895  0.00  0.00    +0.003 A 
ATOM     24  C   UNL     1       2.103   4.290   0.918  0.00  0.00    +0.004 A 
ATOM     25  C   UNL     1       1.498   7.853  -0.173  0.00  0.00    +0.044 C 
ENDBRANCH   5  19
BRANCH   1  27
ATOM     26  C   UNL     1       1.262  -3.805  -2.644  0.00  0.00    +0.167 A 
ATOM     27  C   UNL     1       0.835  -2.570  -2.183  0.00  0.00    +0.023 A 
ATOM     28  C   UNL     1       0.134  -1.724  -3.021  0.00  0.00    +0.009 A 
ATOM     29  C   UNL     1      -0.134  -2.102  -4.324  0.00  0.00    +0.004 A 
ATOM     30  C   UNL     1       0.289  -3.333  -4.790  0.00  0.00    +0.049 A 
ATOM     31  C   UNL     1       0.988  -4.188  -3.953  0.00  0.00    +0.162 A 
BRANCH  31  32
ATOM     32  O   UNL     1       1.404  -5.399  -4.410  0.00  0.00    -0.491 OA
ATOM     33  C   UNL     1       1.087  -5.726  -5.765  0.00  0.00    +0.277 C 
ENDBRANCH  31  32
BRANCH  26  34
ATOM     34  O   UNL     1       1.946  -4.641  -1.818  0.00  0.00    -0.488 OA
BRANCH  34  36
ATOM     35  C   UNL     1       2.102  -6.409  -0.177  0.00  0.00    +0.048 C 
ATOM     36  C   UNL     1       1.190  -5.646  -1.140  0.00  0.00    +0.226 C 
ENDBRANCH  34  36
ENDBRANCH  26  34
ENDBRANCH   1  27
TORSDOF 5
