REMARK  Name = ZINC04616538
REMARK  8 active torsions:
REMARK  status: ('A' for Active; 'I' for Inactive)
REMARK    1  A    between atoms: C_1  and  C_2
REMARK    2  A    between atoms: C_2  and  C_3
REMARK    3  A    between atoms: C_3  and  C_4
REMARK    4  A    between atoms: C_4  and  N_5
REMARK    5  A    between atoms: C_6  and  N_64
REMARK    6  A    between atoms: C_8  and  C_13
REMARK    7  A    between atoms: C_9  and  C_12
REMARK    8  A    between atoms: C_14  and  N_64
REMARK                            x       y       z     vdW  Elec       q    Type
REMARK                         _______ _______ _______ _____ _____    ______ ____
ROOT
ATOM      1  N   UNL     1       3.839   1.227   4.917  0.00  0.00    +0.396 N 
ATOM      2  H   UNL     1       3.704   2.115   5.415  0.00  0.00    -0.082 HD
ATOM      3  H   UNL     1       3.736   0.446   5.575  0.00  0.00    -0.082 HD
ENDROOT
BRANCH   1   4
ATOM      4  C   UNL     1       2.823   1.107   3.854  0.00  0.00    -0.069 C 
ATOM      5  C   UNL     1       2.454   2.500   3.341  0.00  0.00    -0.016 C 
ATOM      6  C   UNL     1       2.916   2.647   1.889  0.00  0.00    -0.002 C 
ATOM      7  C   UNL     1       1.738   3.095   1.022  0.00  0.00    -0.000 C 
ATOM      8  C   UNL     1       1.582   2.138  -0.161  0.00  0.00    -0.000 C 
ATOM      9  C   UNL     1       0.144   1.618  -0.211  0.00  0.00    -0.000 C 
ATOM     10  C   UNL     1       0.155   0.088  -0.246  0.00  0.00    -0.000 C 
ATOM     11  C   UNL     1      -0.733  -0.454   0.875  0.00  0.00    -0.000 C 
ATOM     12  C   UNL     1       0.062  -1.452   1.719  0.00  0.00    -0.000 C 
ATOM     13  C   UNL     1      -0.017  -1.050   3.193  0.00  0.00    -0.000 C 
ATOM     14  C   UNL     1       1.396  -0.943   3.769  0.00  0.00    -0.002 C 
ATOM     15  C   UNL     1       1.577   0.427   4.426  0.00  0.00    -0.016 C 
ENDBRANCH   1   4
BRANCH   1  17
ATOM     16  N   UNL     1       5.846   2.502   4.508  0.00  0.00    -0.308 N 
ATOM     17  C   UNL     1       5.194   1.197   4.335  0.00  0.00    +0.046 C 
ATOM     18  C   UNL     1       6.054   0.203   5.082  0.00  0.00    -0.062 C 
ATOM     19  C   UNL     1       7.067   0.884   5.609  0.00  0.00    +0.010 C 
ATOM     20  C   UNL     1       6.946   2.303   5.261  0.00  0.00    +0.241 C 
ATOM     21  O   UNL     1       7.725   3.173   5.600  0.00  0.00    -0.270 OA
ATOM     22  C   UNL     1       8.173   0.286   6.440  0.00  0.00    +0.049 C 
ATOM     23  C   UNL     1       5.810  -1.279   5.205  0.00  0.00    +0.039 C 
BRANCH  16  24
ATOM     24  C   UNL     1       5.384   3.781   3.964  0.00  0.00    +0.106 C 
BRANCH  24  25
ATOM     25  C   UNL     1       4.590   4.534   5.034  0.00  0.00    +0.019 C 
BRANCH  25  27
ATOM     26  C   UNL     1       3.408   6.668   5.574  0.00  0.00    +0.004 C 
ATOM     27  C   UNL     1       4.202   5.916   4.504  0.00  0.00    -0.002 C 
ENDBRANCH  25  27
ENDBRANCH  24  25
ENDBRANCH  16  24
ENDBRANCH   1  17
TORSDOF 5
