REMARK  Name = ZINC13404794
REMARK  7 active torsions:
REMARK  status: ('A' for Active; 'I' for Inactive)
REMARK    1  A    between atoms: N_9  and  C_32
REMARK    2  A    between atoms: C_10  and  S_12
REMARK    3  A    between atoms: S_12  and  C_13
REMARK    4  A    between atoms: C_13  and  C_14
REMARK    5  A    between atoms: C_17  and  C_27
REMARK    6  A    between atoms: C_20  and  C_22
REMARK    7  A    between atoms: C_32  and  C_33
REMARK                            x       y       z     vdW  Elec       q    Type
REMARK                         _______ _______ _______ _____ _____    ______ ____
ROOT
ATOM      1  C   UNL     1      -1.331   2.079   0.020  0.00  0.00    +0.175 C 
ENDROOT
BRANCH   1   2
ATOM      2  C   UNL     1      -0.016   1.344   0.009  0.00  0.00    +0.246 C 
ATOM      3  O   UNL     1       1.026   1.964   0.003  0.00  0.00    -0.273 OA
ATOM      4  N   UNL     1       0.002  -0.004   0.002  0.00  0.00    -0.181 N 
ATOM      5  C   UNL     1       1.210  -0.843  -0.020  0.00  0.00    +0.173 C 
ATOM      6  C   UNL     1       0.654  -2.281  -0.018  0.00  0.00    +0.090 C 
ATOM      7  C   UNL     1      -0.846  -2.091  -0.002  0.00  0.00    +0.075 C 
ATOM      8  N   UNL     1      -1.120  -0.830   0.008  0.00  0.00    -0.180 NA
BRANCH   7   9
ATOM      9  C   UNL     1      -1.836  -3.173   0.001  0.00  0.00    +0.035 A 
ATOM     10  C   UNL     1      -3.217  -3.092   0.021  0.00  0.00    +0.017 A 
ATOM     11  C   UNL     1      -3.941  -4.261   0.016  0.00  0.00    +0.008 A 
ATOM     12  C   UNL     1      -3.284  -5.450   0.003  0.00  0.00    +0.046 A 
ATOM     13  S   UNL     1      -1.573  -4.939  -0.010  0.00  0.00    -0.095 S 
ENDBRANCH   7   9
BRANCH   5  14
ATOM     14  C   UNL     1       2.048  -0.599   1.209  0.00  0.00    +0.128 A 
ATOM     15  C   UNL     1       3.391  -0.551   1.249  0.00  0.00    +0.046 A 
ATOM     16  C   UNL     1       3.753  -0.301   2.593  0.00  0.00    +0.041 A 
ATOM     17  C   UNL     1       2.608  -0.212   3.294  0.00  0.00    +0.195 A 
ATOM     18  O   UNL     1       1.579  -0.387   2.450  0.00  0.00    -0.466 OA
ENDBRANCH   5  14
ENDBRANCH   1   2
BRANCH   1  19
ATOM     19  S   UNL     1      -1.025   3.863   0.028  0.00  0.00    -0.078 S 
BRANCH  19  29
ATOM     20  C   UNL     1      -7.588   4.831   0.065  0.00  0.00    +0.001 A 
ATOM     21  C   UNL     1      -7.290   3.474   0.056  0.00  0.00    +0.002 A 
ATOM     22  C   UNL     1      -5.995   3.039   0.047  0.00  0.00    +0.028 A 
ATOM     23  C   UNL     1      -4.952   3.971   0.048  0.00  0.00    +0.079 A 
ATOM     24  C   UNL     1      -5.260   5.350   0.057  0.00  0.00    +0.065 A 
ATOM     25  C   UNL     1      -6.591   5.766   0.066  0.00  0.00    +0.015 A 
ATOM     26  C   UNL     1      -4.147   6.310   0.057  0.00  0.00    +0.263 A 
ATOM     27  O   UNL     1      -4.348   7.510   0.065  0.00  0.00    -0.267 OA
ATOM     28  N   UNL     1      -2.890   5.808   0.053  0.00  0.00    -0.276 N 
ATOM     29  C   UNL     1      -2.683   4.458   0.039  0.00  0.00    +0.173 A 
ATOM     30  N   UNL     1      -3.660   3.585   0.039  0.00  0.00    -0.223 NA
BRANCH  28  31
ATOM     31  C   UNL     1      -1.743   6.720   0.058  0.00  0.00    +0.252 C 
BRANCH  31  32
ATOM     32  C   UNL     1      -1.355   7.047  -1.361  0.00  0.00    +0.375 C 
ATOM     33  O   UNL     1      -1.973   6.567  -2.282  0.00  0.00    -0.244 OA
ATOM     34  O   UNL     1      -0.323   7.870  -1.602  0.00  0.00    -0.244 OA
ENDBRANCH  31  32
ENDBRANCH  28  31
ENDBRANCH  19  29
ENDBRANCH   1  19
TORSDOF 7
