REMARK  Name = ZINC66563386
REMARK  9 active torsions:
REMARK  status: ('A' for Active; 'I' for Inactive)
REMARK    1  A    between atoms: C_1  and  C_2
REMARK    2  A    between atoms: C_2  and  N_3
REMARK    3  A    between atoms: N_3  and  C_4
REMARK    4  A    between atoms: C_4  and  C_5
REMARK    5  A    between atoms: N_7  and  C_8
REMARK    6  A    between atoms: C_8  and  C_9
REMARK    7  A    between atoms: C_14  and  C_16
REMARK    8  A    between atoms: C_16  and  N_17
REMARK    9  A    between atoms: C_22  and  C_24
REMARK                            x       y       z     vdW  Elec       q    Type
REMARK                         _______ _______ _______ _____ _____    ______ ____
ROOT
ATOM      1  N   UNL     1       0.514   0.459   0.468  0.00  0.00    -0.294 N 
ATOM      2  C   UNL     1       1.785   0.051   0.652  0.00  0.00    +0.199 C 
ATOM      3  O   UNL     1       2.165  -0.269   1.758  0.00  0.00    -0.278 OA
ENDROOT
BRANCH   1   5
ATOM      4  C   UNL     1       0.296   2.342  -1.078  0.00  0.00    +0.024 C 
ATOM      5  C   UNL     1       0.055   0.845  -0.869  0.00  0.00    +0.105 C 
ENDBRANCH   1   5
BRANCH   1   6
ATOM      6  C   UNL     1      -0.409   0.516   1.604  0.00  0.00    +0.203 C 
BRANCH   6   7
ATOM      7  C   UNL     1      -1.119  -0.806   1.741  0.00  0.00    +0.231 C 
ATOM      8  O   UNL     1      -0.878  -1.707   0.966  0.00  0.00    -0.274 OA
ATOM      9  N   UNL     1      -2.022  -0.986   2.725  0.00  0.00    -0.309 N 
ATOM     10  H   UNL     1      -2.215  -0.266   3.345  0.00  0.00    +0.149 HD
BRANCH   9  11
ATOM     11  C   UNL     1      -2.713  -2.271   2.858  0.00  0.00    +0.146 C 
BRANCH  11  12
ATOM     12  C   UNL     1      -3.663  -2.212   4.027  0.00  0.00    +0.007 A 
ATOM     13  C   UNL     1      -4.966  -1.840   4.050  0.00  0.00    +0.013 A 
ATOM     14  C   UNL     1      -5.649  -1.865   5.252  0.00  0.00    +0.008 A 
ATOM     15  C   UNL     1      -4.995  -2.261   6.371  0.00  0.00    +0.045 A 
ATOM     16  S   UNL     1      -3.365  -2.622   5.739  0.00  0.00    -0.100 S 
ENDBRANCH  11  12
ENDBRANCH   9  11
ENDBRANCH   6   7
ENDBRANCH   1   6
BRANCH   2  17
ATOM     17  C   UNL     1       2.735  -0.008  -0.517  0.00  0.00    +0.020 C 
BRANCH  17  18
ATOM     18  N   UNL     1       4.048  -0.480  -0.058  0.00  0.00    +0.393 N 
ATOM     19  C   UNL     1       4.643   0.524   0.832  0.00  0.00    -0.077 C 
ATOM     20  C   UNL     1       5.974   0.002   1.378  0.00  0.00    -0.019 C 
ATOM     21  C   UNL     1       6.925  -0.275   0.209  0.00  0.00    -0.003 C 
ATOM     22  C   UNL     1       6.263  -1.266  -0.751  0.00  0.00    -0.006 C 
ATOM     23  C   UNL     1       4.921  -0.698  -1.218  0.00  0.00    +0.020 C 
ATOM     24  H   UNL     1       3.935  -1.348   0.445  0.00  0.00    -0.080 HD
BRANCH  23  25
ATOM     25  C   UNL     1       4.265  -1.670  -2.164  0.00  0.00    +0.197 C 
ATOM     26  O   UNL     1       3.502  -2.511  -1.737  0.00  0.00    -0.278 OA
ATOM     27  N   UNL     1       4.527  -1.606  -3.484  0.00  0.00    -0.331 N 
ATOM     28  H   UNL     1       5.137  -0.934  -3.826  0.00  0.00    +0.145 HD
ATOM     29  H   UNL     1       4.105  -2.232  -4.093  0.00  0.00    +0.145 HD
ENDBRANCH  23  25
ENDBRANCH  17  18
ENDBRANCH   2  17
TORSDOF 8
