REMARK  Name = ZINC46593286
REMARK  9 active torsions:
REMARK  status: ('A' for Active; 'I' for Inactive)
REMARK    1  A    between atoms: C_1  and  C_2
REMARK    2  A    between atoms: N_8  and  C_9
REMARK    3  A    between atoms: C_9  and  C_11
REMARK    4  A    between atoms: C_9  and  C_12
REMARK    5  A    between atoms: C_12  and  N_13
REMARK    6  A    between atoms: C_14  and  C_16
REMARK    7  A    between atoms: C_16  and  N_17
REMARK    8  A    between atoms: N_20  and  C_21
REMARK    9  A    between atoms: C_21  and  C_22
REMARK                            x       y       z     vdW  Elec       q    Type
REMARK                         _______ _______ _______ _____ _____    ______ ____
ROOT
ATOM      1  N   UNL     1       2.684  -2.167   2.422  0.00  0.00    -0.316 N 
ATOM      2  C   UNL     1       3.115  -2.985   3.403  0.00  0.00    +0.230 C 
ATOM      3  O   UNL     1       3.675  -2.524   4.375  0.00  0.00    -0.274 OA
ATOM      4  H   UNL     1       2.236  -2.535   1.645  0.00  0.00    +0.149 HD
ENDROOT
BRANCH   1   5
ATOM      5  C   UNL     1       2.893  -0.721   2.530  0.00  0.00    +0.089 C 
BRANCH   5   6
ATOM      6  C   UNL     1       2.158  -0.013   1.391  0.00  0.00    -0.054 C 
ATOM      7  C   UNL     1       2.533   1.471   1.385  0.00  0.00    -0.012 C 
BRANCH   6  14
ATOM      8  C   UNL     1       0.766  -2.018   0.002  0.00  0.00    -0.013 C 
ATOM      9  C   UNL     1       0.321  -1.553   1.390  0.00  0.00    -0.071 C 
ATOM     10  C   UNL     1      -1.198  -1.688   1.509  0.00  0.00    -0.016 C 
ATOM     11  C   UNL     1      -1.639  -1.223   2.900  0.00  0.00    -0.003 C 
ATOM     12  C   UNL     1      -1.165   0.217   3.120  0.00  0.00    -0.019 C 
ATOM     13  C   UNL     1       0.353   0.281   2.941  0.00  0.00    -0.078 C 
ATOM     14  N   UNL     1       0.708  -0.151   1.583  0.00  0.00    +0.384 N 
ATOM     15  H   UNL     1       0.225   0.426   0.911  0.00  0.00    -0.081 HD
ENDBRANCH   6  14
ENDBRANCH   5   6
ENDBRANCH   1   5
BRANCH   2  16
ATOM     16  C   UNL     1       2.901  -4.472   3.292  0.00  0.00    +0.201 C 
BRANCH  16  17
ATOM     17  N   UNL     1       3.454  -5.135   4.475  0.00  0.00    -0.291 N 
ATOM     18  C   UNL     1       3.377  -6.476   4.595  0.00  0.00    +0.300 C 
ATOM     19  O   UNL     1       2.847  -7.134   3.721  0.00  0.00    -0.253 OA
ATOM     20  N   UNL     1       3.886  -7.085   5.683  0.00  0.00    -0.295 N 
ATOM     21  H   UNL     1       3.877  -4.610   5.172  0.00  0.00    +0.151 HD
ATOM     22  H   UNL     1       4.308  -6.560   6.381  0.00  0.00    +0.151 HD
BRANCH  20  23
ATOM     23  C   UNL     1       3.801  -8.542   5.813  0.00  0.00    +0.141 C 
BRANCH  23  24
ATOM     24  C   UNL     1       4.440  -8.969   7.110  0.00  0.00    -0.030 A 
ATOM     25  C   UNL     1       5.789  -9.269   7.150  0.00  0.00    +0.008 A 
ATOM     26  C   UNL     1       6.375  -9.660   8.339  0.00  0.00    +0.038 A 
ATOM     27  C   UNL     1       5.612  -9.750   9.490  0.00  0.00    +0.123 A 
ATOM     28  C   UNL     1       4.261  -9.449   9.449  0.00  0.00    +0.038 A 
ATOM     29  C   UNL     1       3.677  -9.053   8.260  0.00  0.00    +0.008 A 
ATOM     30  F   UNL     1       6.184 -10.132  10.653  0.00  0.00    -0.205 F 
ENDBRANCH  23  24
ENDBRANCH  20  23
ENDBRANCH  16  17
ENDBRANCH   2  16
TORSDOF 7
