REMARK  Name = ZINC31823113
REMARK  7 active torsions:
REMARK  status: ('A' for Active; 'I' for Inactive)
REMARK    1  A    between atoms: C_1  and  C_2
REMARK    2  A    between atoms: C_2  and  N_3
REMARK    3  A    between atoms: C_16  and  C_17
REMARK    4  A    between atoms: C_17  and  S_18
REMARK    5  A    between atoms: S_18  and  C_19
REMARK    6  A    between atoms: C_23  and  C_29
REMARK    7  A    between atoms: C_24  and  C_28
REMARK                            x       y       z     vdW  Elec       q    Type
REMARK                         _______ _______ _______ _____ _____    ______ ____
ROOT
ATOM      1  N   UNL     1       0.714  -0.741  -1.701  0.00  0.00    -0.277 N 
ATOM      2  C   UNL     1       0.181  -1.044  -2.904  0.00  0.00    +0.263 A 
ATOM      3  O   UNL     1      -1.016  -0.946  -3.092  0.00  0.00    -0.267 OA
ATOM      4  C   UNL     1       1.076  -1.495  -3.985  0.00  0.00    +0.063 A 
ATOM      5  C   UNL     1       0.581  -1.821  -5.246  0.00  0.00    +0.015 A 
ATOM      6  C   UNL     1       1.451  -2.239  -6.232  0.00  0.00    +0.001 A 
ATOM      7  C   UNL     1       2.809  -2.335  -5.973  0.00  0.00    +0.002 A 
ATOM      8  C   UNL     1       3.311  -2.016  -4.727  0.00  0.00    +0.027 A 
ATOM      9  C   UNL     1       2.452  -1.593  -3.724  0.00  0.00    +0.063 A 
ATOM     10  N   UNL     1       2.926  -1.263  -2.460  0.00  0.00    -0.264 N 
ATOM     11  C   UNL     1       2.074  -0.843  -1.480  0.00  0.00    +0.239 A 
ATOM     12  N   UNL     1       2.809  -0.603  -0.416  0.00  0.00    -0.110 NA
ATOM     13  N   UNL     1       4.046  -0.840  -0.676  0.00  0.00    -0.131 NA
ATOM     14  C   UNL     1       4.174  -1.254  -1.907  0.00  0.00    +0.150 A 
ENDROOT
BRANCH   1  16
ATOM     15  C   UNL     1      -0.294   1.232  -0.666  0.00  0.00    +0.027 C 
ATOM     16  C   UNL     1      -0.162  -0.291  -0.617  0.00  0.00    +0.125 C 
ENDBRANCH   1  16
BRANCH  14  17
ATOM     17  C   UNL     1       5.460  -1.634  -2.594  0.00  0.00    +0.154 C 
BRANCH  17  18
ATOM     18  S   UNL     1       6.127  -0.192  -3.470  0.00  0.00    -0.078 S 
BRANCH  18  19
ATOM     19  C   UNL     1       7.609  -0.791  -4.210  0.00  0.00    +0.191 A 
ATOM     20  N   UNL     1       7.959  -2.060  -4.034  0.00  0.00    -0.207 NA
ATOM     21  C   UNL     1       9.059  -2.566  -4.565  0.00  0.00    +0.129 A 
ATOM     22  C   UNL     1       9.901  -1.731  -5.351  0.00  0.00    +0.050 A 
ATOM     23  C   UNL     1      11.146  -2.046  -6.032  0.00  0.00    -0.028 A 
ATOM     24  C   UNL     1      11.775  -1.086  -6.724  0.00  0.00    -0.008 A 
ATOM     25  S   UNL     1      10.725   0.338  -6.510  0.00  0.00    -0.073 S 
ATOM     26  C   UNL     1       9.468  -0.395  -5.495  0.00  0.00    +0.115 A 
ATOM     27  N   UNL     1       8.352   0.032  -4.937  0.00  0.00    -0.215 NA
ATOM     28  C   UNL     1      13.064  -1.187  -7.499  0.00  0.00    +0.052 C 
ATOM     29  C   UNL     1      11.723  -3.437  -5.960  0.00  0.00    +0.045 C 
ATOM     30  N   UNL     1       9.389  -3.893  -4.357  0.00  0.00    -0.343 N 
ATOM     31  H   UNL     1       9.045  -4.363  -3.582  0.00  0.00    +0.144 HD
ATOM     32  H   UNL     1       9.963  -4.354  -4.988  0.00  0.00    +0.144 HD
ENDBRANCH  18  19
ENDBRANCH  17  18
ENDBRANCH  14  17
TORSDOF 4
