REMARK  Name = ZINC59092748
REMARK  12 active torsions:
REMARK  status: ('A' for Active; 'I' for Inactive)
REMARK    1  A    between atoms: C_1  and  C_2
REMARK    2  A    between atoms: C_7  and  N_8
REMARK    3  A    between atoms: N_8  and  C_9
REMARK    4  A    between atoms: C_9  and  N_11
REMARK    5  A    between atoms: N_11  and  C_12
REMARK    6  A    between atoms: N_11  and  C_19
REMARK    7  A    between atoms: C_12  and  C_13
REMARK    8  A    between atoms: C_16  and  C_18
REMARK    9  A    between atoms: C_21  and  C_27
REMARK   10  A    between atoms: C_21  and  C_28
REMARK   11  A    between atoms: C_23  and  C_25
REMARK   12  A    between atoms: C_23  and  C_26
REMARK                            x       y       z     vdW  Elec       q    Type
REMARK                         _______ _______ _______ _____ _____    ______ ____
ROOT
ATOM      1  N   UNL     1      -0.156   0.017   4.754  0.00  0.00    -0.302 N 
ENDROOT
BRANCH   1   2
ATOM      2  C   UNL     1      -0.268   1.481   4.745  0.00  0.00    +0.073 C 
ATOM      3  C   UNL     1       0.999   2.079   4.131  0.00  0.00    +0.009 C 
ATOM      4  C   UNL     1       0.892   3.603   4.104  0.00  0.00    -0.072 C 
ATOM      5  N   UNL     1      -0.319   4.056   3.435  0.00  0.00    +0.386 N 
ATOM      6  C   UNL     1      -1.571   3.409   3.794  0.00  0.00    -0.072 C 
ATOM      7  C   UNL     1      -1.460   1.890   3.880  0.00  0.00    +0.009 C 
ATOM      8  C   UNL     1      -2.142   3.965   5.101  0.00  0.00    -0.010 C 
ATOM      9  C   UNL     1      -2.596   3.731   2.681  0.00  0.00    -0.010 C 
ATOM     10  C   UNL     1       2.098   4.133   3.294  0.00  0.00    -0.010 C 
ATOM     11  C   UNL     1       1.014   4.167   5.519  0.00  0.00    -0.010 C 
ATOM     12  H   UNL     1      -0.418   5.061   3.596  0.00  0.00    -0.084 HD
ATOM     13  H   UNL     1      -0.184   3.958   2.426  0.00  0.00    -0.084 HD
ENDBRANCH   1   2
BRANCH   1  14
ATOM     14  C   UNL     1      -0.135  -0.664   3.591  0.00  0.00    +0.138 C 
ATOM     15  S   UNL     1      -0.054  -2.374   3.602  0.00  0.00    -0.018 S 
BRANCH  14  16
ATOM     16  N   UNL     1      -0.178   0.001   2.420  0.00  0.00    -0.296 N 
ATOM     17  H   UNL     1      -0.105   0.968   2.408  0.00  0.00    +0.154 HD
BRANCH  16  24
ATOM     18  C   UNL     1      -2.442   0.578   0.797  0.00  0.00    +0.045 C 
ATOM     19  C   UNL     1      -1.418  -0.453   0.398  0.00  0.00    -0.029 A 
ATOM     20  C   UNL     1      -1.561  -1.147  -0.788  0.00  0.00    +0.006 A 
ATOM     21  C   UNL     1      -0.622  -2.092  -1.155  0.00  0.00    +0.020 A 
ATOM     22  C   UNL     1       0.463  -2.349  -0.335  0.00  0.00    +0.043 A 
ATOM     23  C   UNL     1       0.612  -1.658   0.853  0.00  0.00    +0.043 A 
ATOM     24  C   UNL     1      -0.327  -0.703   1.220  0.00  0.00    +0.037 A 
ATOM     25 CL   UNL     1       1.639  -3.538  -0.800  0.00  0.00    -0.083 Cl
ENDBRANCH  16  24
ENDBRANCH  14  16
ENDBRANCH   1  14
BRANCH   1  26
ATOM     26  C   UNL     1      -0.066  -0.703   6.027  0.00  0.00    +0.181 C 
BRANCH  26  27
ATOM     27  C   UNL     1       1.381  -0.841   6.425  0.00  0.00    +0.122 A 
ATOM     28  C   UNL     1       2.077   0.030   7.176  0.00  0.00    +0.046 A 
ATOM     29  C   UNL     1       3.386  -0.489   7.301  0.00  0.00    +0.045 A 
ATOM     30  C   UNL     1       3.411  -1.648   6.617  0.00  0.00    +0.102 A 
ATOM     31  O   UNL     1       2.193  -1.859   6.093  0.00  0.00    -0.463 OA
ATOM     32  C   UNL     1       4.604  -2.557   6.469  0.00  0.00    +0.086 C 
ENDBRANCH  26  27
ENDBRANCH   1  26
TORSDOF 6
