REMARK  Name = ZINC15477308
REMARK  9 active torsions:
REMARK  status: ('A' for Active; 'I' for Inactive)
REMARK    1  A    between atoms: C_1  and  N_2
REMARK    2  A    between atoms: N_2  and  C_3
REMARK    3  A    between atoms: N_2  and  S_9
REMARK    4  A    between atoms: S_9  and  C_12
REMARK    5  A    between atoms: C_16  and  C_18
REMARK    6  A    between atoms: N_20  and  C_21
REMARK    7  A    between atoms: C_21  and  C_22
REMARK    8  A    between atoms: C_22  and  C_24
REMARK    9  A    between atoms: C_22  and  N_62
REMARK                            x       y       z     vdW  Elec       q    Type
REMARK                         _______ _______ _______ _____ _____    ______ ____
ROOT
ATOM      1  C   UNL     1      -4.318   3.630   2.759  0.00  0.00    +0.244 C 
ATOM      2  O   UNL     1      -5.089   4.498   2.403  0.00  0.00    -0.270 OA
ATOM      3  N   UNL     1      -4.753   2.620   3.539  0.00  0.00    -0.312 N 
ATOM      4  H   UNL     1      -4.137   1.927   3.824  0.00  0.00    +0.149 HD
ENDROOT
BRANCH   1   9
ATOM      5  C   UNL     1      -1.125   4.766   1.140  0.00  0.00    +0.109 A 
ATOM      6  C   UNL     1      -0.250   3.772   1.543  0.00  0.00    +0.029 A 
ATOM      7  C   UNL     1      -0.694   2.734   2.344  0.00  0.00    +0.003 A 
ATOM      8  C   UNL     1      -2.013   2.684   2.745  0.00  0.00    +0.013 A 
ATOM      9  C   UNL     1      -2.902   3.680   2.338  0.00  0.00    +0.039 A 
ATOM     10  C   UNL     1      -2.446   4.727   1.534  0.00  0.00    +0.041 A 
BRANCH   5  11
ATOM     11  S   UNL     1      -0.550   6.083   0.121  0.00  0.00    +0.074 S 
ATOM     12  O   UNL     1      -1.508   7.127   0.227  0.00  0.00    -0.150 OA
ATOM     13  O   UNL     1       0.822   6.273   0.439  0.00  0.00    -0.150 OA
BRANCH  11  15
ATOM     14  C   UNL     1       0.557   4.870  -2.029  0.00  0.00    +0.157 C 
ATOM     15  N   UNL     1      -0.603   5.549  -1.446  0.00  0.00    -0.206 N 
BRANCH  15  16
ATOM     16  C   UNL     1      -1.755   5.745  -2.211  0.00  0.00    +0.051 A 
ATOM     17  C   UNL     1      -2.956   5.163  -1.824  0.00  0.00    +0.025 A 
ATOM     18  C   UNL     1      -4.093   5.363  -2.581  0.00  0.00    +0.002 A 
ATOM     19  C   UNL     1      -4.036   6.132  -3.729  0.00  0.00    +0.000 A 
ATOM     20  C   UNL     1      -2.841   6.708  -4.120  0.00  0.00    +0.002 A 
ATOM     21  C   UNL     1      -1.701   6.517  -3.365  0.00  0.00    +0.025 A 
ENDBRANCH  15  16
ENDBRANCH  11  15
ENDBRANCH   5  11
ENDBRANCH   1   9
BRANCH   3  22
ATOM     22  C   UNL     1      -6.156   2.570   3.957  0.00  0.00    +0.097 C 
BRANCH  22  23
ATOM     23  C   UNL     1      -6.385   1.333   4.829  0.00  0.00    +0.016 C 
BRANCH  23  29
ATOM     24  C   UNL     1      -6.641   0.018   2.813  0.00  0.00    -0.078 C 
ATOM     25  C   UNL     1      -6.058  -1.156   2.022  0.00  0.00    -0.019 C 
ATOM     26  C   UNL     1      -6.226  -2.445   2.833  0.00  0.00    -0.004 C 
ATOM     27  C   UNL     1      -5.536  -2.279   4.189  0.00  0.00    -0.019 C 
ATOM     28  C   UNL     1      -6.134  -1.073   4.917  0.00  0.00    -0.078 C 
ATOM     29  N   UNL     1      -5.918   0.138   4.097  0.00  0.00    +0.387 N 
ATOM     30  H   UNL     1      -4.914   0.235   3.906  0.00  0.00    -0.081 HD
ENDBRANCH  23  29
BRANCH  23  31
ATOM     31  C   UNL     1      -7.851   1.214   5.157  0.00  0.00    +0.093 A 
ATOM     32  C   UNL     1      -8.410   1.447   6.358  0.00  0.00    +0.043 A 
ATOM     33  C   UNL     1      -9.797   1.218   6.216  0.00  0.00    +0.041 A 
ATOM     34  C   UNL     1     -10.004   0.858   4.936  0.00  0.00    +0.195 A 
ATOM     35  O   UNL     1      -8.822   0.864   4.298  0.00  0.00    -0.469 OA
ENDBRANCH  23  31
ENDBRANCH  22  23
ENDBRANCH   3  22
TORSDOF 8
