REMARK  Name = ZINC20411428
REMARK  8 active torsions:
REMARK  status: ('A' for Active; 'I' for Inactive)
REMARK    1  A    between atoms: C_1  and  C_2
REMARK    2  A    between atoms: C_8  and  C_44
REMARK    3  A    between atoms: C_9  and  O_43
REMARK    4  A    between atoms: C_19  and  C_21
REMARK    5  A    between atoms: C_21  and  N_22
REMARK    6  A    between atoms: N_25  and  C_28
REMARK    7  A    between atoms: C_28  and  C_30
REMARK    8  A    between atoms: C_28  and  C_36
REMARK                            x       y       z     vdW  Elec       q    Type
REMARK                         _______ _______ _______ _____ _____    ______ ____
ROOT
ATOM      1  N   UNL     1       2.514  -2.896   2.355  0.00  0.00    +0.382 N 
ATOM      2  C   UNL     1       3.339  -3.678   3.286  0.00  0.00    -0.063 C 
ATOM      3  C   UNL     1       4.069  -4.780   2.514  0.00  0.00    +0.067 C 
ATOM      4  N   UNL     1       4.897  -4.172   1.463  0.00  0.00    -0.295 NA
ATOM      5  C   UNL     1       4.071  -3.391   0.532  0.00  0.00    +0.067 C 
ATOM      6  C   UNL     1       3.341  -2.288   1.304  0.00  0.00    -0.063 C 
ATOM      7  H   UNL     1       1.802  -3.583   1.873  0.00  0.00    -0.082 HD
ENDROOT
BRANCH   1   8
ATOM      8  C   UNL     1       1.738  -1.874   3.071  0.00  0.00    -0.064 C 
BRANCH   8  23
ATOM      9  C   UNL     1       0.752   3.434   0.302  0.00  0.00    +0.008 C 
ATOM     10  C   UNL     1      -0.565   3.065   0.989  0.00  0.00    -0.001 C 
ATOM     11  C   UNL     1      -1.717   3.630   0.160  0.00  0.00    +0.008 C 
ATOM     12  C   UNL     1      -3.035   3.321   0.875  0.00  0.00    +0.027 C 
ATOM     13  C   UNL     1      -3.126   1.836   1.080  0.00  0.00    -0.027 C 
ATOM     14  C   UNL     1      -2.080   1.074   1.202  0.00  0.00    -0.061 C 
ATOM     15  C   UNL     1      -0.657   1.547   1.115  0.00  0.00    +0.018 C 
ATOM     16  C   UNL     1       0.101   1.099   2.360  0.00  0.00    +0.132 C 
ATOM     17  C   UNL     1      -0.199  -0.273   2.874  0.00  0.00    +0.071 C 
ATOM     18  C   UNL     1      -1.661  -0.736   2.831  0.00  0.00    +0.187 C 
ATOM     19  C   UNL     1      -2.303  -0.400   1.480  0.00  0.00    +0.076 C 
ATOM     20  O   UNL     1      -1.529  -2.205   2.870  0.00  0.00    -0.460 OA
ATOM     21  C   UNL     1      -0.470  -2.536   2.102  0.00  0.00    +0.309 C 
ATOM     22  O   UNL     1      -0.357  -3.546   1.449  0.00  0.00    -0.251 OA
ATOM     23  C   UNL     1       0.560  -1.421   2.197  0.00  0.00    +0.090 C 
ATOM     24  C   UNL     1      -0.004   0.940  -0.131  0.00  0.00    +0.018 C 
BRANCH  16  25
ATOM     25  O   UNL     1       1.510   1.187   2.105  0.00  0.00    -0.391 OA
ATOM     26  H   UNL     1       2.229   0.904   2.888  0.00  0.00    +0.210 HD
ENDBRANCH  16  25
ENDBRANCH   8  23
ENDBRANCH   1   8
BRANCH   4  27
ATOM     27  C   UNL     1       5.673  -5.194   0.748  0.00  0.00    +0.117 C 
BRANCH  27  28
ATOM     28  C   UNL     1       6.312  -6.128   1.743  0.00  0.00    -0.026 A 
ATOM     29  C   UNL     1       6.855  -5.626   2.911  0.00  0.00    +0.007 A 
ATOM     30  C   UNL     1       7.436  -6.483   3.827  0.00  0.00    +0.020 A 
ATOM     31  C   UNL     1       7.484  -7.841   3.570  0.00  0.00    +0.041 A 
ATOM     32  C   UNL     1       6.946  -8.342   2.398  0.00  0.00    +0.020 A 
ATOM     33  C   UNL     1       6.359  -7.485   1.485  0.00  0.00    +0.007 A 
ATOM     34 CL   UNL     1       8.220  -8.917   4.716  0.00  0.00    -0.084 Cl
ENDBRANCH  27  28
BRANCH  27  35
ATOM     35  C   UNL     1       6.744  -4.527  -0.075  0.00  0.00    -0.026 A 
ATOM     36  C   UNL     1       7.435  -3.444   0.437  0.00  0.00    +0.005 A 
ATOM     37  C   UNL     1       8.422  -2.835  -0.316  0.00  0.00    +0.000 A 
ATOM     38  C   UNL     1       8.710  -3.302  -1.584  0.00  0.00    +0.000 A 
ATOM     39  C   UNL     1       8.016  -4.381  -2.098  0.00  0.00    +0.000 A 
ATOM     40  C   UNL     1       7.033  -4.994  -1.344  0.00  0.00    +0.005 A 
ENDBRANCH  27  35
ENDBRANCH   4  27
TORSDOF 6
