REMARK  Name = ZINC08781256
REMARK  10 active torsions:
REMARK  status: ('A' for Active; 'I' for Inactive)
REMARK    1  A    between atoms: C_1  and  O_2
REMARK    2  A    between atoms: O_2  and  C_3
REMARK    3  A    between atoms: C_6  and  C_22
REMARK    4  A    between atoms: C_8  and  C_9
REMARK    5  A    between atoms: C_9  and  S_10
REMARK    6  A    between atoms: S_10  and  C_11
REMARK    7  A    between atoms: N_23  and  N_24
REMARK    8  A    between atoms: N_24  and  C_25
REMARK    9  A    between atoms: C_25  and  N_27
REMARK   10  A    between atoms: N_27  and  C_28
REMARK                            x       y       z     vdW  Elec       q    Type
REMARK                         _______ _______ _______ _____ _____    ______ ____
ROOT
ATOM      1  C   UNL     1       0.952  -0.434  -1.135  0.00  0.00    +0.124 A 
ATOM      2  C   UNL     1       2.163   0.244  -1.164  0.00  0.00    +0.046 A 
ATOM      3  C   UNL     1       2.225   1.566  -0.779  0.00  0.00    +0.013 A 
ATOM      4  C   UNL     1       1.065   2.224  -0.359  0.00  0.00    -0.005 A 
ATOM      5  C   UNL     1      -0.151   1.537  -0.331  0.00  0.00    +0.017 A 
ATOM      6  C   UNL     1      -0.203   0.215  -0.719  0.00  0.00    +0.005 A 
ENDROOT
BRANCH   1   8
ATOM      7  C   UNL     1       2.121  -2.344  -1.933  0.00  0.00    +0.277 C 
ATOM      8  O   UNL     1       0.896  -1.737  -1.516  0.00  0.00    -0.495 OA
ENDBRANCH   1   8
BRANCH   4   9
ATOM      9  C   UNL     1       1.125   3.638   0.054  0.00  0.00    +0.138 C 
ATOM     10  N   UNL     1       2.256   4.274   0.028  0.00  0.00    -0.188 NA
BRANCH  10  11
ATOM     11  N   UNL     1       2.314   5.617   0.420  0.00  0.00    -0.218 N 
ATOM     12  H   UNL     1       1.508   6.072   0.711  0.00  0.00    +0.176 HD
BRANCH  11  13
ATOM     13  C   UNL     1       3.488   6.278   0.393  0.00  0.00    +0.154 C 
ATOM     14  S   UNL     1       3.558   7.920   0.872  0.00  0.00    -0.017 S 
BRANCH  13  15
ATOM     15  N   UNL     1       4.608   5.646  -0.012  0.00  0.00    -0.296 N 
ATOM     16  H   UNL     1       4.580   4.700  -0.225  0.00  0.00    +0.154 HD
BRANCH  15  17
ATOM     17  C   UNL     1       5.809   6.354  -0.125  0.00  0.00    +0.033 A 
ATOM     18  C   UNL     1       6.611   6.188  -1.247  0.00  0.00    +0.023 A 
ATOM     19  C   UNL     1       7.794   6.892  -1.358  0.00  0.00    +0.002 A 
ATOM     20  C   UNL     1       8.185   7.754  -0.349  0.00  0.00    +0.000 A 
ATOM     21  C   UNL     1       7.391   7.917   0.771  0.00  0.00    +0.002 A 
ATOM     22  C   UNL     1       6.204   7.220   0.886  0.00  0.00    +0.023 A 
ENDBRANCH  15  17
ENDBRANCH  13  15
ENDBRANCH  11  13
ENDBRANCH  10  11
ENDBRANCH   4   9
BRANCH   6  23
ATOM     23  C   UNL     1      -1.514  -0.527  -0.690  0.00  0.00    +0.116 C 
BRANCH  23  24
ATOM     24  S   UNL     1      -2.348  -0.341  -2.285  0.00  0.00    -0.086 S 
BRANCH  24  25
ATOM     25  C   UNL     1      -3.808  -1.278  -1.978  0.00  0.00    +0.151 C 
ATOM     26  N   UNL     1      -4.067  -1.888  -0.835  0.00  0.00    -0.254 NA
ATOM     27  C   UNL     1      -5.372  -2.504  -0.967  0.00  0.00    +0.155 C 
ATOM     28  C   UNL     1      -5.664  -3.820  -0.338  0.00  0.00    +0.002 C 
ATOM     29  C   UNL     1      -6.705  -4.488  -0.880  0.00  0.00    -0.002 C 
ATOM     30  C   UNL     1      -7.458  -3.883  -1.998  0.00  0.00    -0.003 C 
ATOM     31  C   UNL     1      -6.846  -3.017  -2.831  0.00  0.00    -0.003 C 
ATOM     32  C   UNL     1      -5.416  -2.739  -2.511  0.00  0.00    +0.124 C 
ATOM     33  N   UNL     1      -4.830  -1.459  -2.914  0.00  0.00    -0.315 N 
ATOM     34  H   UNL     1      -5.087  -0.880  -3.649  0.00  0.00    +0.149 HD
ENDBRANCH  24  25
ENDBRANCH  23  24
ENDBRANCH   6  23
TORSDOF 9
