REMARK  Name = ZINC39686512
REMARK  8 active torsions:
REMARK  status: ('A' for Active; 'I' for Inactive)
REMARK    1  A    between atoms: C_1  and  C_2
REMARK    2  A    between atoms: C_2  and  C_4
REMARK    3  A    between atoms: C_2  and  N_13
REMARK    4  A    between atoms: C_4  and  C_5
REMARK    5  A    between atoms: C_10  and  O_11
REMARK    6  A    between atoms: O_11  and  C_12
REMARK    7  A    between atoms: C_14  and  C_16
REMARK    8  A    between atoms: C_27  and  C_29
REMARK                            x       y       z     vdW  Elec       q    Type
REMARK                         _______ _______ _______ _____ _____    ______ ____
ROOT
ATOM      1  C   UNL     1       1.277  -1.375   3.950  0.00  0.00    +0.100 C 
ATOM      2  C   UNL     1       2.295  -0.218   4.067  0.00  0.00    +0.121 C 
ATOM      3  N   UNL     1       1.694   0.712   5.052  0.00  0.00    -0.296 N 
ATOM      4  C   UNL     1       1.092  -0.175   6.076  0.00  0.00    +0.115 C 
ATOM      5  C   UNL     1       0.492  -1.345   5.272  0.00  0.00    -0.004 C 
ATOM      6  C   UNL     1      -0.989  -1.093   5.002  0.00  0.00    -0.010 C 
ATOM      7  C   UNL     1      -1.757  -1.125   6.326  0.00  0.00    -0.082 C 
ATOM      8  N   UNL     1      -1.571  -2.430   6.971  0.00  0.00    +0.379 N 
ATOM      9  C   UNL     1      -0.157  -2.625   7.311  0.00  0.00    -0.082 C 
ATOM     10  C   UNL     1       0.679  -2.657   6.028  0.00  0.00    -0.010 C 
ATOM     11  C   UNL     1       1.694   2.059   5.023  0.00  0.00    +0.247 C 
ATOM     12  O   UNL     1       2.135   2.646   4.053  0.00  0.00    -0.270 OA
ATOM     13  H   UNL     1      -2.127  -2.471   7.812  0.00  0.00    -0.086 HD
ATOM     14  H   UNL     1      -1.867  -3.160   6.340  0.00  0.00    -0.086 HD
ENDROOT
BRANCH  11  15
ATOM     15  C   UNL     1       1.158   2.824   6.169  0.00  0.00    +0.037 A 
ATOM     16  C   UNL     1       1.066   2.227   7.428  0.00  0.00    +0.013 A 
ATOM     17  C   UNL     1       0.566   2.946   8.493  0.00  0.00    +0.001 A 
ATOM     18  C   UNL     1       0.156   4.255   8.317  0.00  0.00    +0.000 A 
ATOM     19  C   UNL     1       0.244   4.853   7.072  0.00  0.00    +0.001 A 
ATOM     20  C   UNL     1       0.749   4.147   5.999  0.00  0.00    +0.013 A 
ENDBRANCH  11  15
BRANCH   1  22
ATOM     21  N   UNL     1      -0.142  -2.190   2.095  0.00  0.00    -0.312 N 
ATOM     22  C   UNL     1       0.350  -1.142   2.784  0.00  0.00    +0.218 C 
ATOM     23  O   UNL     1       0.048  -0.011   2.466  0.00  0.00    -0.275 OA
ATOM     24  H   UNL     1       0.101  -3.095   2.349  0.00  0.00    +0.149 HD
BRANCH  21  26
ATOM     25  C   UNL     1      -0.218  -1.708  -0.302  0.00  0.00    +0.028 C 
ATOM     26  C   UNL     1      -1.042  -1.964   0.962  0.00  0.00    +0.074 C 
BRANCH  26  27
ATOM     27  C   UNL     1      -1.922  -3.199   0.755  0.00  0.00    +0.060 C 
BRANCH  27  28
ATOM     28  C   UNL     1      -2.822  -3.380   1.950  0.00  0.00    -0.004 A 
ATOM     29  C   UNL     1      -2.445  -4.221   2.979  0.00  0.00    +0.007 A 
ATOM     30  C   UNL     1      -3.271  -4.388   4.075  0.00  0.00    +0.000 A 
ATOM     31  C   UNL     1      -4.476  -3.713   4.145  0.00  0.00    +0.004 A 
ATOM     32  C   UNL     1      -4.857  -2.870   3.119  0.00  0.00    +0.046 A 
ATOM     33  C   UNL     1      -4.028  -2.697   2.020  0.00  0.00    +0.123 A 
BRANCH  33  34
ATOM     34  O   UNL     1      -4.398  -1.864   1.012  0.00  0.00    -0.495 OA
ATOM     35  C   UNL     1      -5.652  -1.194   1.153  0.00  0.00    +0.277 C 
ENDBRANCH  33  34
ENDBRANCH  27  28
ENDBRANCH  26  27
ENDBRANCH  21  26
ENDBRANCH   1  22
TORSDOF 6
