REMARK  Name = ZINC09137731
REMARK  7 active torsions:
REMARK  status: ('A' for Active; 'I' for Inactive)
REMARK    1  A    between atoms: C_1  and  N_2
REMARK    2  A    between atoms: C_10  and  C_12
REMARK    3  A    between atoms: C_12  and  C_14
REMARK    4  A    between atoms: C_12  and  N_61
REMARK    5  A    between atoms: C_14  and  N_15
REMARK    6  A    between atoms: C_16  and  C_18
REMARK    7  A    between atoms: C_23  and  N_24
REMARK                            x       y       z     vdW  Elec       q    Type
REMARK                         _______ _______ _______ _____ _____    ______ ____
ROOT
ATOM      1  C   UNL     1      -0.304   2.052   3.279  0.00  0.00    -0.020 C 
ENDROOT
BRANCH   1  11
ATOM      2  C   UNL     1       5.160   1.169   6.326  0.00  0.00    +0.129 C 
ATOM      3  N   UNL     1       4.430   0.061   5.695  0.00  0.00    -0.333 N 
ATOM      4  C   UNL     1       4.232  -1.041   6.638  0.00  0.00    +0.105 C 
ATOM      5  C   UNL     1       3.445  -2.154   5.935  0.00  0.00    +0.024 C 
ATOM      6  C   UNL     1       2.026  -1.638   5.681  0.00  0.00    +0.038 C 
ATOM      7  C   UNL     1       2.088  -0.256   5.082  0.00  0.00    -0.026 A 
ATOM      8  C   UNL     1       3.241   0.509   5.120  0.00  0.00    +0.033 A 
ATOM      9  C   UNL     1       3.235   1.786   4.558  0.00  0.00    +0.023 A 
ATOM     10  C   UNL     1       2.095   2.280   3.961  0.00  0.00    +0.004 A 
ATOM     11  C   UNL     1       0.945   1.513   3.927  0.00  0.00    -0.059 A 
ATOM     12  C   UNL     1       0.945   0.249   4.485  0.00  0.00    +0.007 A 
ENDBRANCH   1  11
BRANCH   1  18
ATOM     13  C   UNL     1      -0.522   3.663   5.072  0.00  0.00    -0.078 C 
ATOM     14  C   UNL     1      -0.535   5.160   5.392  0.00  0.00    -0.019 C 
ATOM     15  C   UNL     1      -1.747   5.811   4.718  0.00  0.00    -0.004 C 
ATOM     16  C   UNL     1      -1.680   5.556   3.210  0.00  0.00    -0.019 C 
ATOM     17  C   UNL     1      -1.634   4.048   2.953  0.00  0.00    -0.078 C 
ATOM     18  N   UNL     1      -0.433   3.487   3.607  0.00  0.00    +0.385 N 
ATOM     19  H   UNL     1       0.397   3.983   3.262  0.00  0.00    -0.081 HD
ENDBRANCH   1  18
BRANCH   1  20
ATOM     20  C   UNL     1      -0.197   1.898   1.760  0.00  0.00    +0.094 C 
BRANCH  20  21
ATOM     21  N   UNL     1      -0.122   0.476   1.418  0.00  0.00    -0.313 N 
ATOM     22  C   UNL     1      -0.110   0.093   0.125  0.00  0.00    +0.246 C 
ATOM     23  O   UNL     1      -0.162   0.929  -0.756  0.00  0.00    -0.270 OA
ATOM     24  H   UNL     1      -0.080  -0.191   2.121  0.00  0.00    +0.149 HD
BRANCH  22  25
ATOM     25  C   UNL     1      -0.034  -1.342  -0.221  0.00  0.00    +0.067 A 
ATOM     26  C   UNL     1      -0.108  -2.310   0.783  0.00  0.00    +0.015 A 
ATOM     27  C   UNL     1      -0.042  -3.647   0.453  0.00  0.00    +0.001 A 
ATOM     28  C   UNL     1       0.108  -4.031  -0.868  0.00  0.00    +0.002 A 
ATOM     29  C   UNL     1       0.187  -3.077  -1.867  0.00  0.00    +0.033 A 
ATOM     30  C   UNL     1       0.117  -1.735  -1.551  0.00  0.00    +0.138 A 
BRANCH  30  31
ATOM     31  N   UNL     1       0.203  -0.716  -2.621  0.00  0.00    +0.057 N 
ATOM     32  O   UNL     1      -0.494  -0.817  -3.615  0.00  0.00    -0.126 OA
ATOM     33  O   UNL     1       0.969   0.224  -2.507  0.00  0.00    -0.126 OA
ENDBRANCH  30  31
ENDBRANCH  22  25
ENDBRANCH  20  21
ENDBRANCH   1  20
TORSDOF 6
