REMARK  Name = ZINC00667472
REMARK  8 active torsions:
REMARK  status: ('A' for Active; 'I' for Inactive)
REMARK    1  A    between atoms: C_1  and  N_2
REMARK    2  A    between atoms: C_3  and  C_22
REMARK    3  A    between atoms: C_6  and  S_7
REMARK    4  A    between atoms: S_7  and  C_8
REMARK    5  A    between atoms: C_8  and  C_9
REMARK    6  A    between atoms: N_11  and  N_12
REMARK    7  A    between atoms: C_13  and  C_14
REMARK    8  A    between atoms: C_19  and  O_20
REMARK                            x       y       z     vdW  Elec       q    Type
REMARK                         _______ _______ _______ _____ _____    ______ ____
ROOT
ATOM      1  C   UNL     1       3.091   8.017   0.700  0.00  0.00    +0.174 C 
ENDROOT
BRANCH   1   2
ATOM      2  C   UNL     1       2.955   6.545   0.989  0.00  0.00    +0.242 C 
ATOM      3  O   UNL     1       3.945   5.852   1.088  0.00  0.00    -0.273 OA
ATOM      4  N   UNL     1       1.732   5.998   1.136  0.00  0.00    -0.206 N 
ATOM      5  H   UNL     1       0.940   6.552   1.057  0.00  0.00    +0.177 HD
BRANCH   4   6
ATOM      6  N   UNL     1       1.605   4.628   1.405  0.00  0.00    -0.188 NA
ATOM      7  C   UNL     1       0.427   4.101   1.547  0.00  0.00    +0.142 C 
BRANCH   7   8
ATOM      8  C   UNL     1       0.294   2.661   1.830  0.00  0.00    +0.037 A 
ATOM      9  C   UNL     1      -0.972   2.090   1.984  0.00  0.00    +0.033 A 
ATOM     10  C   UNL     1      -1.090   0.741   2.248  0.00  0.00    +0.042 A 
ATOM     11  C   UNL     1       0.042  -0.050   2.361  0.00  0.00    +0.023 A 
ATOM     12  C   UNL     1       1.300   0.504   2.212  0.00  0.00    +0.047 A 
ATOM     13  C   UNL     1       1.435   1.857   1.946  0.00  0.00    +0.126 A 
ATOM     14 CL   UNL     1      -2.663   0.032   2.439  0.00  0.00    -0.084 Cl
BRANCH  13  15
ATOM     15  O   UNL     1       2.671   2.402   1.799  0.00  0.00    -0.506 OA
ATOM     16  H   UNL     1       2.999   2.393   0.890  0.00  0.00    +0.292 HD
ENDBRANCH  13  15
ENDBRANCH   7   8
ENDBRANCH   4   6
ENDBRANCH   1   2
BRANCH   1  17
ATOM     17  S   UNL     1       4.844   8.444   0.556  0.00  0.00    -0.077 S 
BRANCH  17  23
ATOM     18  C   UNL     1       7.180  10.725   0.036  0.00  0.00    +0.153 C 
ATOM     19  N   UNL     1       5.749  11.037   0.025  0.00  0.00    -0.305 N 
ATOM     20  C   UNL     1       5.168  12.265  -0.193  0.00  0.00    +0.165 A 
ATOM     21  N   UNL     1       3.869  12.096  -0.115  0.00  0.00    -0.128 NA
ATOM     22  N   UNL     1       3.601  10.862   0.127  0.00  0.00    -0.122 NA
ATOM     23  C   UNL     1       4.713  10.170   0.228  0.00  0.00    +0.192 A 
BRANCH  20  24
ATOM     24  C   UNL     1       5.874  13.536  -0.463  0.00  0.00    +0.019 A 
ATOM     25  C   UNL     1       5.228  14.755  -0.250  0.00  0.00    +0.013 A 
ATOM     26  C   UNL     1       5.894  15.937  -0.498  0.00  0.00    +0.021 A 
ATOM     27  C   UNL     1       7.196  15.916  -0.968  0.00  0.00    +0.041 A 
ATOM     28  C   UNL     1       7.840  14.710  -1.186  0.00  0.00    +0.021 A 
ATOM     29  C   UNL     1       7.187  13.521  -0.936  0.00  0.00    +0.013 A 
ATOM     30 CL   UNL     1       8.025  17.408  -1.286  0.00  0.00    -0.084 Cl
ENDBRANCH  20  24
ENDBRANCH  17  23
ENDBRANCH   1  17
TORSDOF 7
