REMARK  Name = ZINC35483439
REMARK  13 active torsions:
REMARK  status: ('A' for Active; 'I' for Inactive)
REMARK    1  A    between atoms: C_1  and  C_2
REMARK    2  A    between atoms: C_2  and  C_3
REMARK    3  A    between atoms: C_3  and  C_4
REMARK    4  A    between atoms: C_4  and  N_5
REMARK    5  A    between atoms: N_5  and  C_6
REMARK    6  A    between atoms: N_5  and  C_10
REMARK    7  A    between atoms: C_6  and  C_7
REMARK    8  A    between atoms: C_7  and  C_8
REMARK    9  A    between atoms: C_8  and  C_9
REMARK   10  A    between atoms: C_10  and  C_11
REMARK   11  A    between atoms: C_11  and  C_12
REMARK   12  A    between atoms: C_12  and  N_13
REMARK   13  A    between atoms: C_14  and  C_29
REMARK                            x       y       z     vdW  Elec       q    Type
REMARK                         _______ _______ _______ _____ _____    ______ ____
ROOT
ATOM      1  N   UNL     1       3.120  -6.545   4.938  0.00  0.00    -0.283 N 
ATOM      2  C   UNL     1       4.562  -6.656   5.213  0.00  0.00    +0.151 C 
ATOM      3  C   UNL     1       4.671  -7.173   6.610  0.00  0.00    +0.073 A 
ATOM      4  C   UNL     1       5.843  -7.494   7.432  0.00  0.00    +0.199 A 
ATOM      5  O   UNL     1       6.982  -7.206   7.112  0.00  0.00    -0.287 OA
ATOM      6  C   UNL     1       5.507  -8.204   8.693  0.00  0.00    +0.064 A 
ATOM      7  C   UNL     1       6.516  -8.753   9.484  0.00  0.00    +0.015 A 
ATOM      8  C   UNL     1       6.190  -9.409  10.639  0.00  0.00    +0.001 A 
ATOM      9  C   UNL     1       4.862  -9.528  11.024  0.00  0.00    +0.004 A 
ATOM     10  C   UNL     1       3.854  -8.992  10.255  0.00  0.00    +0.047 A 
ATOM     11  C   UNL     1       4.160  -8.316   9.074  0.00  0.00    +0.139 A 
ATOM     12  O   UNL     1       3.155  -7.787   8.339  0.00  0.00    -0.450 OA
ATOM     13  C   UNL     1       3.405  -7.337   7.094  0.00  0.00    +0.199 A 
ATOM     14  C   UNL     1       2.453  -6.939   6.042  0.00  0.00    +0.283 C 
ATOM     15  O   UNL     1       1.243  -6.965   6.152  0.00  0.00    -0.267 OA
ENDROOT
BRANCH   2  16
ATOM     16  C   UNL     1       5.202  -7.620   4.249  0.00  0.00    +0.015 A 
ATOM     17  C   UNL     1       6.404  -7.535   3.628  0.00  0.00    +0.013 A 
ATOM     18  C   UNL     1       6.791  -8.551   2.774  0.00  0.00    +0.008 A 
ATOM     19  C   UNL     1       5.957  -9.603   2.583  0.00  0.00    +0.045 A 
ATOM     20  S   UNL     1       4.578  -9.176   3.633  0.00  0.00    -0.099 S 
ENDBRANCH   2  16
BRANCH   1  21
ATOM     21  C   UNL     1       2.516  -6.080   3.687  0.00  0.00    +0.107 C 
BRANCH  21  22
ATOM     22  C   UNL     1       2.321  -4.564   3.747  0.00  0.00    +0.000 C 
BRANCH  22  23
ATOM     23  C   UNL     1       1.690  -4.079   2.440  0.00  0.00    -0.077 C 
BRANCH  23  24
ATOM     24  N   UNL     1       1.408  -2.640   2.537  0.00  0.00    +0.380 N 
ATOM     25  H   UNL     1       0.840  -2.463   3.352  0.00  0.00    -0.082 HD
BRANCH  24  26
ATOM     26  C   UNL     1       2.671  -1.900   2.649  0.00  0.00    -0.079 C 
BRANCH  26  27
ATOM     27  C   UNL     1       2.374  -0.416   2.875  0.00  0.00    -0.019 C 
BRANCH  27  29
ATOM     28  C   UNL     1       3.393   1.839   3.218  0.00  0.00    +0.004 C 
ATOM     29  C   UNL     1       3.690   0.356   2.992  0.00  0.00    -0.005 C 
ENDBRANCH  27  29
ENDBRANCH  26  27
ENDBRANCH  24  26
BRANCH  24  30
ATOM     30  C   UNL     1       0.687  -2.201   1.335  0.00  0.00    -0.079 C 
BRANCH  30  31
ATOM     31  C   UNL     1      -0.698  -2.850   1.304  0.00  0.00    -0.019 C 
BRANCH  31  32
ATOM     32  C   UNL     1      -1.430  -2.430   0.028  0.00  0.00    -0.005 C 
ATOM     33  C   UNL     1      -2.815  -3.079  -0.003  0.00  0.00    +0.004 C 
ENDBRANCH  31  32
ENDBRANCH  30  31
ENDBRANCH  24  30
ENDBRANCH  23  24
ENDBRANCH  22  23
ENDBRANCH  21  22
ENDBRANCH   1  21
TORSDOF 11
