REMARK  Name = ZINC36555797
REMARK  11 active torsions:
REMARK  status: ('A' for Active; 'I' for Inactive)
REMARK    1  A    between atoms: C_1  and  C_2
REMARK    2  A    between atoms: C_5  and  C_7
REMARK    3  A    between atoms: C_7  and  N_8
REMARK    4  A    between atoms: N_8  and  C_9
REMARK    5  A    between atoms: C_9  and  C_11
REMARK    6  A    between atoms: C_9  and  C_25
REMARK    7  A    between atoms: N_27  and  C_28
REMARK    8  A    between atoms: C_28  and  C_29
REMARK    9  A    between atoms: C_28  and  C_30
REMARK   10  A    between atoms: C_28  and  C_31
REMARK   11  A    between atoms: C_32  and  C_34
REMARK                            x       y       z     vdW  Elec       q    Type
REMARK                         _______ _______ _______ _____ _____    ______ ____
ROOT
ATOM      1  C   UNL     1       2.858  -2.758  -2.295  0.00  0.00    +0.193 C 
ENDROOT
BRANCH   1   2
ATOM      2  C   UNL     1       2.586  -2.282  -3.699  0.00  0.00    -0.010 A 
ATOM      3  C   UNL     1       1.551  -2.808  -4.385  0.00  0.00    +0.015 A 
ATOM      4  C   UNL     1       1.254  -2.395  -5.704  0.00  0.00    -0.017 A 
ATOM      5  C   UNL     1       0.176  -2.948  -6.409  0.00  0.00    +0.008 A 
ATOM      6  C   UNL     1      -0.088  -2.531  -7.681  0.00  0.00    +0.001 A 
ATOM      7  C   UNL     1       0.700  -1.562  -8.292  0.00  0.00    +0.001 A 
ATOM      8  C   UNL     1       1.757  -1.004  -7.632  0.00  0.00    +0.009 A 
ATOM      9  C   UNL     1       2.052  -1.410  -6.329  0.00  0.00    -0.010 A 
ATOM     10  C   UNL     1       3.177  -0.838  -5.584  0.00  0.00    -0.010 A 
ATOM     11  C   UNL     1       3.418  -1.289  -4.266  0.00  0.00    -0.012 A 
ATOM     12  C   UNL     1       4.488  -0.744  -3.543  0.00  0.00    +0.009 A 
ATOM     13  C   UNL     1       5.275   0.212  -4.115  0.00  0.00    +0.001 A 
ATOM     14  C   UNL     1       5.031   0.657  -5.409  0.00  0.00    +0.001 A 
ATOM     15  C   UNL     1       4.004   0.138  -6.144  0.00  0.00    +0.009 A 
ENDBRANCH   1   2
BRANCH   1  16
ATOM     16  C   UNL     1       3.919  -3.828  -2.324  0.00  0.00    +0.239 C 
ATOM     17  O   UNL     1       3.661  -4.948  -1.936  0.00  0.00    -0.273 OA
ATOM     18  N   UNL     1       5.153  -3.541  -2.782  0.00  0.00    -0.309 N 
ATOM     19  H   UNL     1       5.381  -2.630  -3.025  0.00  0.00    +0.149 HD
BRANCH  18  20
ATOM     20  C   UNL     1       6.151  -4.605  -2.914  0.00  0.00    +0.026 C 
ATOM     21  C   UNL     1       5.636  -5.671  -3.883  0.00  0.00    +0.031 C 
ATOM     22  C   UNL     1       7.457  -4.016  -3.451  0.00  0.00    +0.031 C 
ATOM     23  C   UNL     1       6.403  -5.240  -1.545  0.00  0.00    +0.031 C 
ENDBRANCH  18  20
ENDBRANCH   1  16
BRANCH   1  24
ATOM     24  N   UNL     1       1.628  -3.305  -1.718  0.00  0.00    -0.278 N 
ATOM     25  C   UNL     1       1.104  -4.447  -2.206  0.00  0.00    +0.220 C 
ATOM     26  O   UNL     1       1.694  -5.065  -3.067  0.00  0.00    -0.275 OA
BRANCH  25  27
ATOM     27  C   UNL     1      -0.215  -4.955  -1.684  0.00  0.00    +0.075 C 
ATOM     28  C   UNL     1      -0.030  -5.484  -0.260  0.00  0.00    +0.013 C 
ATOM     29  C   UNL     1      -1.369  -5.999   0.271  0.00  0.00    +0.001 C 
ATOM     30  C   UNL     1      -1.874  -7.128  -0.630  0.00  0.00    +0.000 C 
ATOM     31  C   UNL     1      -2.059  -6.599  -2.054  0.00  0.00    +0.001 C 
ATOM     32  C   UNL     1      -0.720  -6.083  -2.585  0.00  0.00    +0.013 C 
ENDBRANCH  25  27
BRANCH  24  33
ATOM     33  C   UNL     1       0.967  -2.611  -0.610  0.00  0.00    +0.183 C 
BRANCH  33  38
ATOM     34  C   UNL     1      -0.590   1.896  -2.255  0.00  0.00    +0.086 C 
ATOM     35  C   UNL     1      -0.596   0.438  -1.871  0.00  0.00    +0.102 A 
ATOM     36  C   UNL     1      -1.650  -0.394  -1.958  0.00  0.00    +0.045 A 
ATOM     37  C   UNL     1      -1.214  -1.657  -1.497  0.00  0.00    +0.046 A 
ATOM     38  C   UNL     1       0.081  -1.522  -1.156  0.00  0.00    +0.122 A 
ATOM     39  O   UNL     1       0.451  -0.252  -1.391  0.00  0.00    -0.463 OA
ENDBRANCH  33  38
ENDBRANCH  24  33
ENDBRANCH   1  24
TORSDOF 7
