REMARK  Name = ZINC21810701
REMARK  9 active torsions:
REMARK  status: ('A' for Active; 'I' for Inactive)
REMARK    1  A    between atoms: C_1  and  C_2
REMARK    2  A    between atoms: C_2  and  C_3
REMARK    3  A    between atoms: N_9  and  C_10
REMARK    4  A    between atoms: C_10  and  C_11
REMARK    5  A    between atoms: C_11  and  C_12
REMARK    6  A    between atoms: C_12  and  N_13
REMARK    7  A    between atoms: C_22  and  C_23
REMARK    8  A    between atoms: C_22  and  C_24
REMARK    9  A    between atoms: N_26  and  C_27
REMARK                            x       y       z     vdW  Elec       q    Type
REMARK                         _______ _______ _______ _____ _____    ______ ____
ROOT
ATOM      1  N   UNL     1      -0.205  -2.551  -0.563  0.00  0.00    -0.281 N 
ATOM      2  C   UNL     1       1.139  -2.560  -0.723  0.00  0.00    +0.264 C 
ATOM      3  O   UNL     1       1.654  -2.776  -1.804  0.00  0.00    -0.268 OA
ATOM      4  C   UNL     1       1.942  -2.295   0.477  0.00  0.00    +0.109 A 
ATOM      5  C   UNL     1       3.278  -2.065   0.620  0.00  0.00    +0.079 A 
ATOM      6  C   UNL     1       3.527  -1.862   1.986  0.00  0.00    +0.153 A 
ATOM      7  C   UNL     1       2.312  -1.992   2.660  0.00  0.00    +0.088 A 
ATOM      8  N   UNL     1       1.350  -2.271   1.738  0.00  0.00    -0.331 N 
ATOM      9  C   UNL     1      -0.080  -2.531   1.917  0.00  0.00    +0.157 C 
ATOM     10  C   UNL     1      -0.834  -2.080   0.666  0.00  0.00    +0.128 C 
ATOM     11  C   UNL     1      -2.264  -2.620   0.729  0.00  0.00    +0.043 C 
ATOM     12  C   UNL     1       2.599  -1.778   4.030  0.00  0.00    +0.067 A 
ATOM     13  C   UNL     1       3.918  -1.541   4.129  0.00  0.00    +0.198 A 
ATOM     14  O   UNL     1       4.476  -1.593   2.908  0.00  0.00    -0.461 OA
ENDROOT
BRANCH  10  15
ATOM     15  C   UNL     1      -0.883  -0.574   0.642  0.00  0.00    +0.238 C 
ATOM     16  O   UNL     1      -1.837   0.009   1.112  0.00  0.00    -0.273 OA
ATOM     17  N   UNL     1       0.133   0.124   0.098  0.00  0.00    -0.311 N 
ATOM     18  H   UNL     1       0.999  -0.405  -0.328  0.00  0.00    +0.149 HD
BRANCH  17  19
ATOM     19  C   UNL     1       0.086   1.588   0.075  0.00  0.00    +0.073 C 
ATOM     20  C   UNL     1      -0.698   2.054  -1.154  0.00  0.00    +0.022 C 
ATOM     21  C   UNL     1      -0.748   3.583  -1.178  0.00  0.00    +0.002 C 
ATOM     22  C   UNL     1       0.676   4.138  -1.241  0.00  0.00    +0.000 C 
ATOM     23  C   UNL     1       1.460   3.673  -0.012  0.00  0.00    +0.002 C 
ATOM     24  C   UNL     1       1.510   2.144   0.012  0.00  0.00    +0.022 C 
ENDBRANCH  17  19
ENDBRANCH  10  15
BRANCH   1  25
ATOM     25  C   UNL     1      -1.054  -3.030  -1.657  0.00  0.00    +0.107 C 
BRANCH  25  26
ATOM     26  C   UNL     1      -1.406  -1.860  -2.578  0.00  0.00    +0.000 C 
BRANCH  26  27
ATOM     27  C   UNL     1      -2.293  -2.360  -3.720  0.00  0.00    -0.077 C 
BRANCH  27  33
ATOM     28  C   UNL     1      -3.336  -0.179  -3.848  0.00  0.00    -0.069 C 
ATOM     29  C   UNL     1      -3.812   0.907  -4.816  0.00  0.00    -0.015 C 
ATOM     30  C   UNL     1      -2.604   1.490  -5.555  0.00  0.00    -0.003 C 
ATOM     31  C   UNL     1      -1.871   0.362  -6.288  0.00  0.00    -0.019 C 
ATOM     32  C   UNL     1      -1.452  -0.708  -5.277  0.00  0.00    -0.078 C 
ATOM     33  N   UNL     1      -2.642  -1.234  -4.598  0.00  0.00    +0.382 N 
ATOM     34  H   UNL     1      -3.332  -1.607  -5.369  0.00  0.00    -0.081 HD
BRANCH  28  36
ATOM     35  C   UNL     1      -5.196   0.294  -2.248  0.00  0.00    +0.002 C 
ATOM     36  C   UNL     1      -4.542  -0.778  -3.122  0.00  0.00    -0.019 C 
ENDBRANCH  28  36
ENDBRANCH  27  33
ENDBRANCH  26  27
ENDBRANCH  25  26
ENDBRANCH   1  25
TORSDOF 7
