REMARK  Name = ZINC59459238
REMARK  7 active torsions:
REMARK  status: ('A' for Active; 'I' for Inactive)
REMARK    1  A    between atoms: C_4  and  C_7
REMARK    2  A    between atoms: C_7  and  C_9
REMARK    3  A    between atoms: C_7  and  O_29
REMARK    4  A    between atoms: N_11  and  N_12
REMARK    5  A    between atoms: C_13  and  C_14
REMARK    6  A    between atoms: C_17  and  S_19
REMARK    7  A    between atoms: S_19  and  C_20
REMARK                            x       y       z     vdW  Elec       q    Type
REMARK                         _______ _______ _______ _____ _____    ______ ____
ROOT
ATOM      1  N   UNL     1       4.673  -0.395  -3.667  0.00  0.00    -0.185 NA
ATOM      2  C   UNL     1       4.926   0.553  -4.524  0.00  0.00    +0.176 C 
ENDROOT
BRANCH   2   3
ATOM      3  C   UNL     1       5.278   0.217  -5.903  0.00  0.00    +0.149 A 
ATOM      4  C   UNL     1       5.570   1.110  -6.896  0.00  0.00    +0.052 A 
ATOM      5  C   UNL     1       5.849   0.359  -8.048  0.00  0.00    +0.057 A 
ATOM      6  C   UNL     1       5.716  -0.952  -7.713  0.00  0.00    +0.169 A 
ATOM      7  O   UNL     1       5.377  -1.029  -6.414  0.00  0.00    -0.447 OA
BRANCH   6   8
ATOM      8  S   UNL     1       5.956  -2.321  -8.796  0.00  0.00    -0.025 S 
BRANCH   8   9
ATOM      9  C   UNL     1       5.641  -3.727  -7.782  0.00  0.00    +0.143 A 
ATOM     10  N   UNL     1       5.299  -3.769  -6.514  0.00  0.00    -0.232 NA
ATOM     11  C   UNL     1       5.088  -4.931  -5.858  0.00  0.00    +0.079 A 
ATOM     12  C   UNL     1       4.719  -5.115  -4.506  0.00  0.00    +0.029 A 
ATOM     13  C   UNL     1       4.544  -6.373  -3.993  0.00  0.00    +0.002 A 
ATOM     14  C   UNL     1       4.720  -7.506  -4.774  0.00  0.00    +0.001 A 
ATOM     15  C   UNL     1       5.081  -7.363  -6.102  0.00  0.00    +0.017 A 
ATOM     16  C   UNL     1       5.258  -6.107  -6.624  0.00  0.00    +0.040 A 
ATOM     17  S   UNL     1       5.698  -5.459  -8.219  0.00  0.00    -0.061 S 
ENDBRANCH   8   9
ENDBRANCH   6   8
ENDBRANCH   2   3
BRANCH   1  20
ATOM     18  C   UNL     1       4.074  -1.053  -1.459  0.00  0.00    +0.265 C 
ATOM     19  O   UNL     1       4.131  -2.215  -1.804  0.00  0.00    -0.271 OA
ATOM     20  N   UNL     1       4.335  -0.073  -2.345  0.00  0.00    -0.204 N 
ATOM     21  H   UNL     1       4.290   0.856  -2.069  0.00  0.00    +0.177 HD
BRANCH  18  22
ATOM     22  C   UNL     1       3.711  -0.707  -0.038  0.00  0.00    +0.232 C 
BRANCH  22  26
ATOM     23  C   UNL     1      -0.017   1.378   0.010  0.00  0.00    +0.000 A 
ATOM     24  C   UNL     1       1.171   2.086   0.002  0.00  0.00    +0.000 A 
ATOM     25  C   UNL     1       2.377   1.411  -0.013  0.00  0.00    +0.006 A 
ATOM     26  C   UNL     1       2.396   0.029  -0.020  0.00  0.00    -0.010 A 
ATOM     27  C   UNL     1       1.208  -0.679  -0.012  0.00  0.00    +0.006 A 
ATOM     28  C   UNL     1       0.002  -0.004   0.002  0.00  0.00    +0.000 A 
ENDBRANCH  22  26
BRANCH  22  29
ATOM     29  O   UNL     1       3.596  -1.907   0.731  0.00  0.00    -0.378 OA
ATOM     30  H   UNL     1       2.922  -2.519   0.405  0.00  0.00    +0.211 HD
ENDBRANCH  22  29
ENDBRANCH  18  22
ENDBRANCH   1  20
TORSDOF 7
