REMARK  Name = ZINC16048770
REMARK  6 active torsions:
REMARK  status: ('A' for Active; 'I' for Inactive)
REMARK    1  A    between atoms: C_1  and  C_2
REMARK    2  A    between atoms: C_2  and  C_4
REMARK    3  A    between atoms: C_2  and  N_14
REMARK    4  A    between atoms: C_15  and  C_17
REMARK    5  A    between atoms: C_17  and  N_18
REMARK    6  A    between atoms: C_19  and  C_21
REMARK                            x       y       z     vdW  Elec       q    Type
REMARK                         _______ _______ _______ _____ _____    ______ ____
ROOT
ATOM      1  N   UNL     1       2.890  -1.926  -2.534  0.00  0.00    -0.311 N 
ATOM      2  C   UNL     1       2.989  -2.592  -3.702  0.00  0.00    +0.230 C 
ATOM      3  O   UNL     1       3.063  -1.979  -4.746  0.00  0.00    -0.274 OA
ATOM      4  H   UNL     1       2.831  -2.417  -1.700  0.00  0.00    +0.149 HD
ENDROOT
BRANCH   1   6
ATOM      5  C   UNL     1       4.305   0.068  -2.537  0.00  0.00    +0.028 C 
ATOM      6  C   UNL     1       2.870  -0.461  -2.526  0.00  0.00    +0.076 C 
BRANCH   6   7
ATOM      7  C   UNL     1       2.154   0.032  -1.268  0.00  0.00    -0.010 C 
ATOM      8  C   UNL     1       0.718  -0.497  -1.257  0.00  0.00    +0.012 C 
ATOM      9  C   UNL     1       0.002  -0.004   0.002  0.00  0.00    -0.010 C 
ATOM     10  C   UNL     1      -0.019   1.526   0.010  0.00  0.00    +0.007 C 
ATOM     11  C   UNL     1       1.417   2.055  -0.000  0.00  0.00    -0.010 C 
ATOM     12  C   UNL     1       2.133   1.562  -1.259  0.00  0.00    +0.012 C 
ATOM     13  C   UNL     1       2.157   1.548   1.239  0.00  0.00    +0.007 C 
ATOM     14  C   UNL     1       2.178   0.019   1.231  0.00  0.00    -0.010 C 
ATOM     15  C   UNL     1       0.742  -0.511   1.242  0.00  0.00    +0.007 C 
ATOM     16  C   UNL     1       2.894  -0.475  -0.028  0.00  0.00    +0.012 C 
ENDBRANCH   6   7
ENDBRANCH   1   6
BRANCH   2  17
ATOM     17  C   UNL     1       3.010  -4.099  -3.710  0.00  0.00    +0.200 C 
BRANCH  17  18
ATOM     18  N   UNL     1       3.124  -4.578  -5.090  0.00  0.00    -0.300 N 
ATOM     19  C   UNL     1       3.161  -5.902  -5.343  0.00  0.00    +0.280 C 
ATOM     20  O   UNL     1       3.100  -6.699  -4.425  0.00  0.00    -0.267 OA
ATOM     21  H   UNL     1       3.172  -3.943  -5.821  0.00  0.00    +0.150 HD
BRANCH  19  22
ATOM     22  C   UNL     1       3.275  -6.381  -6.723  0.00  0.00    +0.191 A 
ATOM     23  C   UNL     1       3.328  -7.688  -7.117  0.00  0.00    +0.056 A 
ATOM     24  C   UNL     1       3.432  -7.684  -8.516  0.00  0.00    +0.058 A 
ATOM     25  C   UNL     1       3.446  -6.390  -8.911  0.00  0.00    +0.171 A 
ATOM     26  O   UNL     1       3.351  -5.609  -7.827  0.00  0.00    -0.444 OA
ATOM     27 BR   UNL     1       3.577  -5.785 -10.697  0.00  0.00    -0.008 Br
ENDBRANCH  19  22
ENDBRANCH  17  18
ENDBRANCH   2  17
TORSDOF 5
