REMARK  Name = ZINC08935833
REMARK  11 active torsions:
REMARK  status: ('A' for Active; 'I' for Inactive)
REMARK    1  A    between atoms: C_1  and  C_2
REMARK    2  A    between atoms: C_4  and  C_11
REMARK    3  A    between atoms: C_5  and  C_10
REMARK    4  A    between atoms: C_6  and  C_9
REMARK    5  A    between atoms: C_7  and  C_8
REMARK    6  A    between atoms: C_11  and  C_13
REMARK    7  A    between atoms: C_13  and  N_14
REMARK    8  A    between atoms: C_17  and  C_21
REMARK    9  A    between atoms: C_17  and  C_22
REMARK   10  A    between atoms: C_25  and  O_28
REMARK   11  A    between atoms: O_28  and  C_29
REMARK                            x       y       z     vdW  Elec       q    Type
REMARK                         _______ _______ _______ _____ _____    ______ ____
ROOT
ATOM      1  N   UNL     1       0.836   8.182   1.438  0.00  0.00    -0.216 N 
ATOM      2  C   UNL     1       0.513   7.515   0.313  0.00  0.00    +0.251 C 
ATOM      3  O   UNL     1       1.111   7.524  -0.742  0.00  0.00    -0.272 OA
ATOM      4  C   UNL     1      -0.754   6.750   0.640  0.00  0.00    +0.135 C 
ATOM      5  N   UNL     1      -1.023   7.109   2.043  0.00  0.00    -0.281 N 
ATOM      6  C   UNL     1      -0.042   7.948   2.420  0.00  0.00    +0.310 C 
ATOM      7  O   UNL     1       0.039   8.438   3.530  0.00  0.00    -0.252 OA
ATOM      8  C   UNL     1      -1.906   7.200  -0.261  0.00  0.00    +0.047 C 
ATOM      9  H   UNL     1      -1.764   6.801   2.588  0.00  0.00    +0.152 HD
ENDROOT
BRANCH   4  10
ATOM     10  C   UNL     1      -0.527   5.266   0.506  0.00  0.00    -0.015 A 
ATOM     11  C   UNL     1      -1.176   4.389   1.355  0.00  0.00    +0.010 A 
ATOM     12  C   UNL     1      -0.970   3.029   1.235  0.00  0.00    +0.046 A 
ATOM     13  C   UNL     1      -0.110   2.542   0.261  0.00  0.00    +0.127 A 
ATOM     14  C   UNL     1       0.544   3.425  -0.587  0.00  0.00    +0.046 A 
ATOM     15  C   UNL     1       0.331   4.784  -0.466  0.00  0.00    +0.010 A 
BRANCH  13  16
ATOM     16  O   UNL     1       0.095   1.204   0.140  0.00  0.00    -0.434 OA
BRANCH  16  17
ATOM     17  C   UNL     1       0.993   0.775  -0.885  0.00  0.00    +0.541 C 
ATOM     18  F   UNL     1       2.257   1.330  -0.660  0.00  0.00    -0.166 F 
ATOM     19  F   UNL     1       0.514   1.196  -2.131  0.00  0.00    -0.166 F 
ENDBRANCH  16  17
ENDBRANCH  13  16
ENDBRANCH   4  10
BRANCH   1  20
ATOM     20  C   UNL     1       2.005   9.056   1.570  0.00  0.00    +0.197 C 
BRANCH  20  21
ATOM     21  C   UNL     1       3.184   8.249   2.047  0.00  0.00    +0.181 C 
ATOM     22  O   UNL     1       3.061   7.061   2.257  0.00  0.00    -0.290 OA
BRANCH  21  26
ATOM     23  C   UNL     1       6.085  12.291   1.718  0.00  0.00    +0.044 C 
ATOM     24  C   UNL     1       5.888  10.847   2.103  0.00  0.00    -0.047 A 
ATOM     25  C   UNL     1       4.666  10.242   1.901  0.00  0.00    +0.015 A 
ATOM     26  C   UNL     1       4.486   8.902   2.259  0.00  0.00    +0.022 A 
ATOM     27  C   UNL     1       5.547   8.188   2.825  0.00  0.00    -0.037 A 
ATOM     28  C   UNL     1       6.765   8.806   3.015  0.00  0.00    -0.044 A 
ATOM     29  C   UNL     1       6.935  10.133   2.658  0.00  0.00    -0.044 A 
ATOM     30  C   UNL     1       8.268  10.802   2.875  0.00  0.00    +0.044 C 
ATOM     31  C   UNL     1       7.912   8.037   3.619  0.00  0.00    +0.044 C 
ATOM     32  C   UNL     1       5.362   6.746   3.220  0.00  0.00    +0.045 C 
ENDBRANCH  21  26
ENDBRANCH  20  21
ENDBRANCH   1  20
TORSDOF 6
