REMARK  Name = ZINC27345070
REMARK  7 active torsions:
REMARK  status: ('A' for Active; 'I' for Inactive)
REMARK    1  A    between atoms: C_1  and  C_2
REMARK    2  A    between atoms: C_2  and  C_3
REMARK    3  A    between atoms: C_3  and  C_35
REMARK    4  A    between atoms: C_7  and  N_27
REMARK    5  A    between atoms: C_14  and  N_19
REMARK    6  A    between atoms: N_19  and  C_20
REMARK    7  A    between atoms: C_20  and  C_21
REMARK                            x       y       z     vdW  Elec       q    Type
REMARK                         _______ _______ _______ _____ _____    ______ ____
ROOT
ATOM      1  C   UNL     1      -0.894   1.435   1.275  0.00  0.00    +0.071 C 
ATOM      2  C   UNL     1      -0.124   0.989   0.030  0.00  0.00    +0.071 C 
ATOM      3  C   UNL     1      -0.793   1.536  -1.202  0.00  0.00    -0.025 A 
ATOM      4  C   UNL     1      -1.686   2.559  -1.143  0.00  0.00    +0.020 A 
ATOM      5  C   UNL     1      -2.277   3.040  -2.317  0.00  0.00    +0.105 A 
ATOM      6  N   UNL     1      -1.979   2.501  -3.487  0.00  0.00    -0.337 N 
ATOM      7  C   UNL     1      -1.125   1.505  -3.581  0.00  0.00    +0.089 A 
ATOM      8  C   UNL     1      -0.472   0.959  -2.456  0.00  0.00    +0.031 A 
ATOM      9  C   UNL     1       0.460  -0.138  -2.736  0.00  0.00    +0.055 A 
ATOM     10  C   UNL     1       0.577  -0.526  -4.039  0.00  0.00    +0.050 A 
ATOM     11  S   UNL     1      -0.503   0.540  -4.939  0.00  0.00    -0.070 S 
ATOM     12  C   UNL     1       1.461  -1.639  -4.514  0.00  0.00    +0.189 C 
ATOM     13  N   UNL     1       2.492  -1.813  -3.470  0.00  0.00    -0.359 N 
ATOM     14  C   UNL     1       2.157  -1.613  -2.153  0.00  0.00    +0.157 C 
ATOM     15  N   UNL     1       1.212  -0.807  -1.775  0.00  0.00    -0.306 N 
ATOM     16  C   UNL     1      -2.070   3.193   0.170  0.00  0.00    +0.199 C 
ATOM     17  O   UNL     1      -1.125   2.845   1.182  0.00  0.00    -0.369 OA
ATOM     18  C   UNL     1      -2.232   0.695   1.346  0.00  0.00    +0.042 C 
ATOM     19  H   UNL     1       3.520  -2.100  -3.738  0.00  0.00    +0.162 HD
ATOM     20  H   UNL     1      -2.448   2.885  -4.405  0.00  0.00    +0.168 HD
ATOM     21  H   UNL     1       1.002  -0.651  -0.707  0.00  0.00    +0.153 HD
ENDROOT
BRANCH   5  22
ATOM     22  N   UNL     1      -3.183   4.093  -2.252  0.00  0.00    -0.312 N 
ATOM     23  C   UNL     1      -4.508   3.676  -2.733  0.00  0.00    +0.134 C 
ATOM     24  C   UNL     1      -5.488   4.845  -2.590  0.00  0.00    +0.178 C 
ATOM     25  O   UNL     1      -4.982   5.975  -3.305  0.00  0.00    -0.377 OA
ATOM     26  C   UNL     1      -3.693   6.407  -2.862  0.00  0.00    +0.178 C 
ATOM     27  C   UNL     1      -2.696   5.255  -3.009  0.00  0.00    +0.134 C 
ENDBRANCH   5  22
BRANCH   1  29
ATOM     28  C   UNL     1      -0.893   1.462   3.773  0.00  0.00    +0.007 C 
ATOM     29  C   UNL     1      -0.069   1.130   2.527  0.00  0.00    +0.032 C 
ENDBRANCH   1  29
BRANCH  12  30
ATOM     30  N   UNL     1       0.681  -2.874  -4.666  0.00  0.00    -0.289 NA
ATOM     31  H   UNL     1       0.863  -3.531  -3.802  0.00  0.00    +0.124 HD
BRANCH  30  32
ATOM     32  C   UNL     1       1.062  -3.590  -5.891  0.00  0.00    +0.118 C 
BRANCH  32  33
ATOM     33  C   UNL     1       0.243  -4.849  -6.012  0.00  0.00    -0.034 A 
ATOM     34  C   UNL     1       0.705  -6.030  -5.461  0.00  0.00    +0.005 A 
ATOM     35  C   UNL     1      -0.048  -7.184  -5.569  0.00  0.00    +0.000 A 
ATOM     36  C   UNL     1      -1.259  -7.160  -6.236  0.00  0.00    +0.000 A 
ATOM     37  C   UNL     1      -1.718  -5.980  -6.791  0.00  0.00    +0.000 A 
ATOM     38  C   UNL     1      -0.967  -4.825  -6.679  0.00  0.00    +0.005 A 
ENDBRANCH  32  33
ENDBRANCH  30  32
ENDBRANCH  12  30
TORSDOF 5
