REMARK  Name = ZINC35808245
REMARK  10 active torsions:
REMARK  status: ('A' for Active; 'I' for Inactive)
REMARK    1  A    between atoms: C_1  and  C_2
REMARK    2  A    between atoms: C_5  and  C_7
REMARK    3  A    between atoms: C_7  and  N_8
REMARK    4  A    between atoms: N_8  and  C_9
REMARK    5  A    between atoms: C_9  and  C_10
REMARK    6  A    between atoms: C_17  and  C_19
REMARK    7  A    between atoms: C_19  and  N_20
REMARK    8  A    between atoms: N_20  and  C_21
REMARK    9  A    between atoms: C_21  and  C_22
REMARK   10  A    between atoms: C_27  and  C_29
REMARK                            x       y       z     vdW  Elec       q    Type
REMARK                         _______ _______ _______ _____ _____    ______ ____
ROOT
ATOM      1  N   UNL     1       0.740  -4.313  -0.281  0.00  0.00    -0.291 N 
ATOM      2  C   UNL     1       0.166  -4.779  -1.408  0.00  0.00    +0.234 C 
ATOM      3  O   UNL     1       0.615  -4.468  -2.491  0.00  0.00    -0.274 OA
ENDROOT
BRANCH   1   4
ATOM      4  C   UNL     1       0.198  -4.689   1.027  0.00  0.00    +0.150 C 
BRANCH   4   9
ATOM      5  C   UNL     1      -2.970  -0.436   3.018  0.00  0.00    +0.051 C 
ATOM      6  C   UNL     1      -2.354  -1.661   2.393  0.00  0.00    -0.013 A 
ATOM      7  C   UNL     1      -2.954  -2.656   1.694  0.00  0.00    +0.011 A 
ATOM      8  C   UNL     1      -2.180  -3.694   1.208  0.00  0.00    +0.013 A 
ATOM      9  C   UNL     1      -0.846  -3.686   1.445  0.00  0.00    +0.007 A 
ATOM     10  S   UNL     1      -0.645  -2.175   2.375  0.00  0.00    -0.097 S 
ENDBRANCH   4   9
ENDBRANCH   1   4
BRANCH   1  11
ATOM     11  C   UNL     1       1.907  -3.431  -0.365  0.00  0.00    +0.143 C 
BRANCH  11  12
ATOM     12  C   UNL     1       3.165  -4.260  -0.363  0.00  0.00    -0.030 A 
ATOM     13  C   UNL     1       3.778  -4.584   0.834  0.00  0.00    +0.008 A 
ATOM     14  C   UNL     1       4.931  -5.345   0.837  0.00  0.00    +0.038 A 
ATOM     15  C   UNL     1       5.474  -5.783  -0.359  0.00  0.00    +0.123 A 
ATOM     16  C   UNL     1       4.859  -5.459  -1.557  0.00  0.00    +0.038 A 
ATOM     17  C   UNL     1       3.703  -4.702  -1.557  0.00  0.00    +0.008 A 
ATOM     18  F   UNL     1       6.602  -6.527  -0.358  0.00  0.00    -0.205 F 
ENDBRANCH  11  12
ENDBRANCH   1  11
BRANCH   2  19
ATOM     19  C   UNL     1      -1.034  -5.687  -1.322  0.00  0.00    +0.204 C 
BRANCH  19  20
ATOM     20  N   UNL     1      -1.468  -6.052  -2.673  0.00  0.00    -0.281 N 
ATOM     21  C   UNL     1      -2.373  -5.290  -3.319  0.00  0.00    +0.247 C 
ATOM     22  O   UNL     1      -2.770  -4.258  -2.814  0.00  0.00    -0.270 OA
BRANCH  21  23
ATOM     23  C   UNL     1      -2.881  -5.709  -4.642  0.00  0.00    +0.037 A 
ATOM     24  C   UNL     1      -3.097  -7.061  -4.914  0.00  0.00    +0.014 A 
ATOM     25  C   UNL     1      -3.572  -7.446  -6.150  0.00  0.00    +0.021 A 
ATOM     26  C   UNL     1      -3.834  -6.494  -7.121  0.00  0.00    +0.041 A 
ATOM     27  C   UNL     1      -3.622  -5.151  -6.857  0.00  0.00    +0.021 A 
ATOM     28  C   UNL     1      -3.153  -4.753  -5.623  0.00  0.00    +0.014 A 
ATOM     29 CL   UNL     1      -4.431  -6.986  -8.675  0.00  0.00    -0.084 Cl
ENDBRANCH  21  23
BRANCH  20  30
ATOM     30  C   UNL     1      -0.919  -7.245  -3.321  0.00  0.00    +0.182 C 
BRANCH  30  31
ATOM     31  C   UNL     1      -1.123  -8.441  -2.427  0.00  0.00    +0.122 A 
ATOM     32  C   UNL     1      -2.146  -9.312  -2.501  0.00  0.00    +0.046 A 
ATOM     33  C   UNL     1      -1.942 -10.270  -1.481  0.00  0.00    +0.041 A 
ATOM     34  C   UNL     1      -0.807  -9.927  -0.845  0.00  0.00    +0.195 A 
ATOM     35  O   UNL     1      -0.312  -8.822  -1.427  0.00  0.00    -0.466 OA
ENDBRANCH  30  31
ENDBRANCH  20  30
ENDBRANCH  19  20
ENDBRANCH   2  19
TORSDOF 9
