REMARK  Name = ZINC05444472
REMARK  2 active torsions:
REMARK  status: ('A' for Active; 'I' for Inactive)
REMARK    1  A    between atoms: C_6  and  S_7
REMARK    2  A    between atoms: S_7  and  N_10
REMARK                            x       y       z     vdW  Elec       q    Type
REMARK                         _______ _______ _______ _____ _____    ______ ____
ROOT
ATOM      1  C   UNL     1       1.207  -0.682  -0.013  0.00  0.00    +0.032 A 
ATOM      2  C   UNL     1       2.398   0.020  -0.021  0.00  0.00    +0.051 A 
ATOM      3  C   UNL     1       2.386   1.405  -0.015  0.00  0.00    +0.162 A 
ATOM      4  C   UNL     1       1.173   2.088   0.002  0.00  0.00    +0.164 A 
ATOM      5  C   UNL     1      -0.017   1.379   0.010  0.00  0.00    +0.078 A 
ATOM      6  C   UNL     1       0.002  -0.004   0.002  0.00  0.00    +0.112 A 
ATOM      7  O   UNL     1       1.157   3.448   0.013  0.00  0.00    -0.486 OA
ATOM      8  C   UNL     1       0.746   4.080   1.227  0.00  0.00    +0.257 C 
ATOM      9  C   UNL     1       0.682   5.594   1.018  0.00  0.00    +0.201 C 
ATOM     10  O   UNL     1       1.271   6.254   2.141  0.00  0.00    -0.374 OA
ATOM     11  C   UNL     1       2.446   7.003   1.825  0.00  0.00    +0.188 C 
ATOM     12  C   UNL     1       3.484   6.814   2.933  0.00  0.00    +0.188 C 
ATOM     13  O   UNL     1       4.795   6.818   2.362  0.00  0.00    -0.375 OA
ATOM     14  C   UNL     1       5.623   5.740   2.803  0.00  0.00    +0.188 C 
ATOM     15  C   UNL     1       6.052   4.901   1.598  0.00  0.00    +0.188 C 
ATOM     16  O   UNL     1       5.986   3.514   1.936  0.00  0.00    -0.374 OA
ATOM     17  C   UNL     1       5.751   2.654   0.819  0.00  0.00    +0.201 C 
ATOM     18  C   UNL     1       4.465   1.857   1.051  0.00  0.00    +0.257 C 
ATOM     19  O   UNL     1       3.557   2.098  -0.025  0.00  0.00    -0.486 OA
ENDROOT
BRANCH   6  20
ATOM     20  S   UNL     1      -1.513  -0.904   0.012  0.00  0.00    +0.073 S 
ATOM     21  O   UNL     1      -1.221  -2.185   0.553  0.00  0.00    -0.150 OA
ATOM     22  O   UNL     1      -2.493  -0.044   0.577  0.00  0.00    -0.150 OA
BRANCH  20  23
ATOM     23  N   UNL     1      -1.949  -1.146  -1.567  0.00  0.00    -0.205 N 
ATOM     24  C   UNL     1      -1.170  -1.925  -2.382  0.00  0.00    +0.088 C 
ATOM     25  C   UNL     1       0.534  -3.277  -3.097  0.00  0.00    +0.114 C 
ATOM     26  C   UNL     1      -0.132  -2.755  -4.392  0.00  0.00    +0.028 C 
ATOM     27  C   UNL     1      -1.474  -2.217  -3.834  0.00  0.00    +0.072 C 
ATOM     28  H   UNL     1      -2.756  -0.736  -1.916  0.00  0.00    +0.175 HD
ATOM     29  N   UNL     1      -0.078  -2.507  -1.994  0.00  0.00    -0.375 N 
ATOM     30  H   UNL     1       0.310  -2.443  -1.045  0.00  0.00    +0.161 HD
ENDBRANCH  20  23
ENDBRANCH   6  20
TORSDOF 2
