REMARK  Name = ZINC38906477
REMARK  6 active torsions:
REMARK  status: ('A' for Active; 'I' for Inactive)
REMARK    1  A    between atoms: C_2  and  C_3
REMARK    2  A    between atoms: C_3  and  N_4
REMARK    3  A    between atoms: C_5  and  C_31
REMARK    4  A    between atoms: C_9  and  S_11
REMARK    5  A    between atoms: S_11  and  C_12
REMARK    6  A    between atoms: C_14  and  C_25
REMARK                            x       y       z     vdW  Elec       q    Type
REMARK                         _______ _______ _______ _____ _____    ______ ____
ROOT
ATOM      1  C   UNL     1      -1.001  -3.645   1.523  0.00  0.00    +0.167 C 
ATOM      2  C   UNL     1      -1.125  -3.473   3.025  0.00  0.00    -0.010 C 
ATOM      3  C   UNL     1      -1.488  -4.600   3.766  0.00  0.00    +0.002 A 
ATOM      4  C   UNL     1      -1.627  -4.525   5.168  0.00  0.00    +0.011 A 
ATOM      5  C   UNL     1      -1.981  -5.634   5.870  0.00  0.00    +0.021 A 
ATOM      6  C   UNL     1      -2.212  -6.853   5.231  0.00  0.00    +0.043 A 
ATOM      7  C   UNL     1      -2.093  -6.987   3.869  0.00  0.00    +0.044 A 
ATOM      8  C   UNL     1      -1.729  -5.878   3.087  0.00  0.00    +0.042 A 
ATOM      9  N   UNL     1      -1.613  -6.010   1.760  0.00  0.00    -0.284 N 
ATOM     10  C   UNL     1      -1.278  -5.020   0.958  0.00  0.00    +0.235 C 
ATOM     11  O   UNL     1      -1.192  -5.213  -0.241  0.00  0.00    -0.274 OA
ATOM     12 CL   UNL     1      -2.663  -8.234   6.182  0.00  0.00    -0.083 Cl
ATOM     13  H   UNL     1      -1.786  -6.880   1.369  0.00  0.00    +0.155 HD
ENDROOT
BRANCH   2  14
ATOM     14  C   UNL     1      -0.885  -2.222   3.649  0.00  0.00    -0.020 A 
ATOM     15  C   UNL     1       0.234  -2.051   4.481  0.00  0.00    +0.008 A 
ATOM     16  C   UNL     1       0.459  -0.833   5.082  0.00  0.00    +0.001 A 
ATOM     17  C   UNL     1      -0.414   0.222   4.869  0.00  0.00    +0.000 A 
ATOM     18  C   UNL     1      -1.520   0.064   4.050  0.00  0.00    +0.001 A 
ATOM     19  C   UNL     1      -1.760  -1.145   3.435  0.00  0.00    +0.008 A 
ENDBRANCH   2  14
BRANCH   1  20
ATOM     20  S   UNL     1       0.686  -3.177   1.047  0.00  0.00    -0.099 S 
BRANCH  20  25
ATOM     21  N   UNL     1      -0.261  -1.285  -0.654  0.00  0.00    -0.240 NA
ATOM     22  C   UNL     1      -1.638  -1.776  -0.916  0.00  0.00    +0.231 C 
ATOM     23  N   UNL     1      -1.452  -3.065  -1.595  0.00  0.00    -0.166 NA
ATOM     24  N   UNL     1      -0.299  -3.484  -1.451  0.00  0.00    -0.160 NA
ATOM     25  C   UNL     1       0.507  -2.556  -0.648  0.00  0.00    +0.260 C 
BRANCH  22  26
ATOM     26  C   UNL     1      -2.377  -0.813  -1.808  0.00  0.00    -0.004 A 
ATOM     27  C   UNL     1      -2.086   0.543  -1.785  0.00  0.00    +0.027 A 
ATOM     28  C   UNL     1      -2.785   1.396  -2.617  0.00  0.00    +0.111 A 
ATOM     29  N   UNL     1      -3.720   0.935  -3.426  0.00  0.00    -0.263 NA
ATOM     30  C   UNL     1      -4.023  -0.347  -3.474  0.00  0.00    +0.111 A 
ATOM     31  C   UNL     1      -3.361  -1.261  -2.676  0.00  0.00    +0.027 A 
ENDBRANCH  22  26
BRANCH  21  32
ATOM     32  C   UNL     1      -0.181  -0.615   0.651  0.00  0.00    +0.116 C 
BRANCH  32  34
ATOM     33  C   UNL     1       1.455   1.124   1.160  0.00  0.00    +0.005 C 
ATOM     34  C   UNL     1       1.228  -0.137   0.885  0.00  0.00    -0.019 C 
ENDBRANCH  32  34
ENDBRANCH  21  32
ENDBRANCH  20  25
ENDBRANCH   1  20
TORSDOF 6
