REMARK  Name = ZINC39711516
REMARK  10 active torsions:
REMARK  status: ('A' for Active; 'I' for Inactive)
REMARK    1  A    between atoms: C_1  and  C_2
REMARK    2  A    between atoms: C_2  and  O_3
REMARK    3  A    between atoms: O_3  and  C_4
REMARK    4  A    between atoms: C_11  and  C_16
REMARK    5  A    between atoms: C_16  and  C_18
REMARK    6  A    between atoms: C_16  and  N_27
REMARK    7  A    between atoms: N_22  and  C_23
REMARK    8  A    between atoms: C_23  and  C_24
REMARK    9  A    between atoms: C_24  and  O_25
REMARK   10  A    between atoms: O_25  and  C_26
REMARK                            x       y       z     vdW  Elec       q    Type
REMARK                         _______ _______ _______ _____ _____    ______ ____
ROOT
ATOM      1  C   UNL     1       3.834  -6.319  -3.786  0.00  0.00    +0.158 C 
ENDROOT
BRANCH   1   9
ATOM      2  C   UNL     1      -1.231  -8.993  -2.656  0.00  0.00    +0.121 A 
ATOM      3  C   UNL     1      -1.442  -9.267  -4.013  0.00  0.00    +0.047 A 
ATOM      4  C   UNL     1      -0.705  -8.694  -4.998  0.00  0.00    +0.027 A 
ATOM      5  C   UNL     1       0.322  -7.783  -4.686  0.00  0.00    +0.041 A 
ATOM      6  N   UNL     1       1.038  -7.228  -5.663  0.00  0.00    -0.284 N 
ATOM      7  C   UNL     1       2.017  -6.366  -5.442  0.00  0.00    +0.226 C 
ATOM      8  O   UNL     1       2.635  -5.892  -6.376  0.00  0.00    -0.275 OA
ATOM      9  C   UNL     1       2.363  -5.972  -4.024  0.00  0.00    +0.126 C 
ATOM     10  C   UNL     1       1.551  -6.600  -2.908  0.00  0.00    -0.002 C 
ATOM     11  C   UNL     1       0.568  -7.475  -3.266  0.00  0.00    -0.003 A 
ATOM     12  C   UNL     1      -0.266  -8.121  -2.253  0.00  0.00    +0.055 A 
ATOM     13  H   UNL     1       0.833  -7.468  -6.581  0.00  0.00    +0.155 HD
BRANCH   2  14
ATOM     14  O   UNL     1      -2.009  -9.604  -1.724  0.00  0.00    -0.492 OA
BRANCH  14  16
ATOM     15  C   UNL     1      -3.775 -11.095  -1.017  0.00  0.00    +0.048 C 
ATOM     16  C   UNL     1      -3.006 -10.509  -2.203  0.00  0.00    +0.225 C 
ENDBRANCH  14  16
ENDBRANCH   2  14
ENDBRANCH   1   9
BRANCH   1  17
ATOM     17  N   UNL     1       4.042  -7.750  -4.018  0.00  0.00    -0.318 N 
ATOM     18  C   UNL     1       3.460  -8.825  -3.210  0.00  0.00    +0.110 C 
ATOM     19  C   UNL     1       3.969 -10.128  -3.847  0.00  0.00    +0.056 C 
ATOM     20  C   UNL     1       4.829  -9.675  -5.005  0.00  0.00    -0.025 A 
ATOM     21  C   UNL     1       4.819  -8.289  -5.045  0.00  0.00    +0.034 A 
ATOM     22  C   UNL     1       5.545  -7.634  -6.042  0.00  0.00    +0.023 A 
ATOM     23  C   UNL     1       6.255  -8.360  -6.974  0.00  0.00    +0.002 A 
ATOM     24  C   UNL     1       6.255  -9.742  -6.928  0.00  0.00    +0.000 A 
ATOM     25  C   UNL     1       5.547 -10.397  -5.938  0.00  0.00    +0.005 A 
ENDBRANCH   1  17
BRANCH   1  26
ATOM     26  C   UNL     1       4.206  -5.981  -2.365  0.00  0.00    +0.173 A 
ATOM     27  N   UNL     1       3.911  -6.675  -1.293  0.00  0.00    -0.111 NA
ATOM     28  N   UNL     1       4.404  -6.060  -0.274  0.00  0.00    -0.023 NA
ATOM     29  N   UNL     1       5.006  -4.993  -0.668  0.00  0.00    -0.044 NA
ATOM     30  N   UNL     1       4.911  -4.911  -1.952  0.00  0.00    -0.225 N 
BRANCH  30  31
ATOM     31  C   UNL     1       5.462  -3.852  -2.800  0.00  0.00    +0.175 C 
BRANCH  31  32
ATOM     32  C   UNL     1       4.423  -2.741  -2.970  0.00  0.00    +0.183 C 
BRANCH  32  33
ATOM     33  O   UNL     1       4.921  -1.759  -3.881  0.00  0.00    -0.381 OA
ATOM     34  C   UNL     1       4.022  -0.672  -4.111  0.00  0.00    +0.194 C 
ENDBRANCH  32  33
ENDBRANCH  31  32
ENDBRANCH  30  31
ENDBRANCH   1  26
TORSDOF 8
