REMARK  Name = ZINC36756603
REMARK  5 active torsions:
REMARK  status: ('A' for Active; 'I' for Inactive)
REMARK    1  A    between atoms: C_1  and  C_2
REMARK    2  A    between atoms: C_2  and  C_3
REMARK    3  A    between atoms: C_3  and  C_4
REMARK    4  A    between atoms: C_4  and  C_5
REMARK    5  A    between atoms: N_9  and  C_13
REMARK                            x       y       z     vdW  Elec       q    Type
REMARK                         _______ _______ _______ _____ _____    ______ ____
ROOT
ATOM      1  C   UNL     1       1.455  -2.521  -2.524  0.00  0.00    +0.161 C 
ATOM      2  C   UNL     1       1.429  -4.035  -2.594  0.00  0.00    +0.248 C 
ATOM      3  O   UNL     1       0.450  -4.748  -2.659  0.00  0.00    -0.273 OA
ATOM      4  N   UNL     1       2.719  -4.423  -2.568  0.00  0.00    -0.190 N 
ATOM      5  C   UNL     1       3.548  -3.376  -2.493  0.00  0.00    +0.314 C 
ATOM      6  O   UNL     1       4.759  -3.474  -2.457  0.00  0.00    -0.252 OA
ATOM      7  N   UNL     1       2.891  -2.199  -2.463  0.00  0.00    -0.287 N 
ATOM      8  H   UNL     1       3.285  -1.313  -2.412  0.00  0.00    +0.151 HD
ENDROOT
BRANCH   4   9
ATOM      9  C   UNL     1       3.140  -5.761  -2.614  0.00  0.00    +0.081 A 
ATOM     10  C   UNL     1       3.395  -6.368  -3.836  0.00  0.00    +0.027 A 
ATOM     11  C   UNL     1       3.810  -7.685  -3.878  0.00  0.00    +0.002 A 
ATOM     12  C   UNL     1       3.973  -8.399  -2.706  0.00  0.00    +0.003 A 
ATOM     13  C   UNL     1       3.720  -7.799  -1.486  0.00  0.00    +0.040 A 
ATOM     14  C   UNL     1       3.310  -6.479  -1.436  0.00  0.00    +0.145 A 
ATOM     15  F   UNL     1       3.069  -5.890  -0.244  0.00  0.00    -0.204 F 
ENDBRANCH   4   9
BRANCH   1  16
ATOM     16  C   UNL     1       0.739  -2.027  -1.265  0.00  0.00    +0.032 C 
BRANCH  16  17
ATOM     17  C   UNL     1       0.718  -0.497  -1.257  0.00  0.00    +0.002 C 
BRANCH  17  19
ATOM     18  C   UNL     1      -0.019   1.526   0.010  0.00  0.00    +0.004 C 
ATOM     19  C   UNL     1       0.002  -0.004   0.002  0.00  0.00    -0.003 C 
ENDBRANCH  17  19
ENDBRANCH  16  17
ENDBRANCH   1  16
TORSDOF 4
