REMARK  Name = ZINC35746497
REMARK  12 active torsions:
REMARK  status: ('A' for Active; 'I' for Inactive)
REMARK    1  A    between atoms: C_1  and  C_2
REMARK    2  A    between atoms: C_2  and  C_3
REMARK    3  A    between atoms: C_3  and  C_5
REMARK    4  A    between atoms: C_3  and  O_34
REMARK    5  A    between atoms: C_5  and  N_6
REMARK    6  A    between atoms: N_6  and  C_7
REMARK    7  A    between atoms: N_6  and  C_14
REMARK    8  A    between atoms: C_7  and  C_8
REMARK    9  A    between atoms: C_14  and  C_15
REMARK   10  A    between atoms: C_21  and  C_26
REMARK   11  A    between atoms: C_28  and  C_33
REMARK   12  A    between atoms: C_31  and  C_32
REMARK                            x       y       z     vdW  Elec       q    Type
REMARK                         _______ _______ _______ _____ _____    ______ ____
ROOT
ATOM      1  C   UNL     1       0.826  -0.635   3.606  0.00  0.00    +0.094 A 
ATOM      2  N   UNL     1       0.277  -0.075   4.715  0.00  0.00    -0.312 N 
ATOM      3  H   UNL     1      -0.099  -0.649   5.401  0.00  0.00    +0.170 HD
ATOM      4  C   UNL     1       0.244   1.260   4.882  0.00  0.00    +0.260 A 
ATOM      5  O   UNL     1      -0.252   1.746   5.883  0.00  0.00    -0.267 OA
ATOM      6  C   UNL     1       0.801   2.099   3.865  0.00  0.00    +0.080 A 
ATOM      7  C   UNL     1       0.885   3.554   3.813  0.00  0.00    +0.004 A 
ATOM      8  C   UNL     1       1.464   4.136   2.735  0.00  0.00    +0.056 A 
ATOM      9  S   UNL     1       1.931   2.748   1.719  0.00  0.00    -0.076 S 
ATOM     10  C   UNL     1       1.345   1.432   2.755  0.00  0.00    +0.116 A 
ATOM     11  N   UNL     1       1.346   0.105   2.664  0.00  0.00    -0.229 NA
ENDROOT
BRANCH   7  12
ATOM     12  C   UNL     1       0.348   4.381   4.920  0.00  0.00    -0.013 A 
ATOM     13  C   UNL     1      -0.737   5.229   4.698  0.00  0.00    +0.012 A 
ATOM     14  C   UNL     1      -1.232   5.996   5.732  0.00  0.00    -0.050 A 
ATOM     15  C   UNL     1      -0.656   5.925   6.987  0.00  0.00    +0.003 A 
ATOM     16  C   UNL     1       0.420   5.087   7.214  0.00  0.00    +0.004 A 
ATOM     17  C   UNL     1       0.922   4.310   6.189  0.00  0.00    -0.043 A 
ATOM     18  C   UNL     1       2.090   3.392   6.439  0.00  0.00    +0.044 C 
ATOM     19  C   UNL     1      -2.404   6.913   5.493  0.00  0.00    +0.044 C 
ENDBRANCH   7  12
BRANCH   1  20
ATOM     20  C   UNL     1       0.840  -2.135   3.463  0.00  0.00    -0.003 C 
BRANCH  20  21
ATOM     21  N   UNL     1       1.618  -2.506   2.274  0.00  0.00    +0.389 N 
ATOM     22  H   UNL     1       1.240  -2.037   1.465  0.00  0.00    -0.081 HD
BRANCH  21  23
ATOM     23  C   UNL     1       1.546  -3.960   2.075  0.00  0.00    -0.046 C 
BRANCH  23  24
ATOM     24  C   UNL     1       0.117  -4.352   1.694  0.00  0.00    +0.098 C 
BRANCH  24  26
ATOM     25  C   UNL     1      -1.315  -6.185   0.783  0.00  0.00    +0.006 C 
ATOM     26  C   UNL     1       0.085  -5.825   1.282  0.00  0.00    +0.026 C 
ENDBRANCH  24  26
BRANCH  24  27
ATOM     27  O   UNL     1      -0.747  -4.152   2.815  0.00  0.00    -0.394 OA
ATOM     28  H   UNL     1      -0.465  -4.613   3.616  0.00  0.00    +0.210 HD
ENDBRANCH  24  27
ENDBRANCH  23  24
ENDBRANCH  21  23
BRANCH  21  29
ATOM     29  C   UNL     1       3.020  -2.107   2.461  0.00  0.00    -0.042 C 
BRANCH  29  30
ATOM     30  C   UNL     1       3.792  -2.375   1.196  0.00  0.00    -0.064 A 
ATOM     31  C   UNL     1       4.403  -3.600   1.005  0.00  0.00    +0.002 A 
ATOM     32  C   UNL     1       5.111  -3.846  -0.156  0.00  0.00    +0.000 A 
ATOM     33  C   UNL     1       5.209  -2.867  -1.127  0.00  0.00    +0.000 A 
ATOM     34  C   UNL     1       4.597  -1.642  -0.937  0.00  0.00    +0.000 A 
ATOM     35  C   UNL     1       3.885  -1.398   0.222  0.00  0.00    +0.002 A 
ENDBRANCH  29  30
ENDBRANCH  21  29
ENDBRANCH  20  21
ENDBRANCH   1  20
TORSDOF 9
