REMARK  Name = ZINC35098422
REMARK  16 active torsions:
REMARK  status: ('A' for Active; 'I' for Inactive)
REMARK    1  A    between atoms: C_1  and  C_2
REMARK    2  A    between atoms: C_2  and  C_3
REMARK    3  A    between atoms: C_3  and  C_4
REMARK    4  A    between atoms: C_4  and  N_5
REMARK    5  A    between atoms: C_13  and  C_15
REMARK    6  A    between atoms: C_16  and  C_18
REMARK    7  A    between atoms: C_18  and  C_20
REMARK    8  A    between atoms: C_18  and  N_25
REMARK    9  A    between atoms: C_20  and  C_22
REMARK   10  A    between atoms: C_20  and  C_23
REMARK   11  A    between atoms: C_23  and  C_24
REMARK   12  A    between atoms: N_25  and  S_26
REMARK   13  A    between atoms: S_26  and  C_29
REMARK   14  A    between atoms: C_30  and  C_37
REMARK   15  A    between atoms: C_32  and  C_36
REMARK   16  A    between atoms: C_34  and  C_35
REMARK                            x       y       z     vdW  Elec       q    Type
REMARK                         _______ _______ _______ _____ _____    ______ ____
ROOT
ATOM      1  C   UNL     1       6.422  -3.893   6.537  0.00  0.00    +0.165 C 
ENDROOT
BRANCH   1  12
ATOM      2  N   UNL     1       6.419  -2.092   0.127  0.00  0.00    -0.299 N 
ATOM      3  C   UNL     1       5.782  -3.233   0.456  0.00  0.00    +0.303 C 
ATOM      4  O   UNL     1       5.384  -3.980  -0.417  0.00  0.00    -0.253 OA
ATOM      5  N   UNL     1       5.585  -3.546   1.752  0.00  0.00    -0.280 N 
ATOM      6  C   UNL     1       5.948  -2.598   2.814  0.00  0.00    +0.128 C 
ATOM      7  C   UNL     1       6.901  -3.297   3.791  0.00  0.00    +0.127 C 
ATOM      8  N   UNL     1       6.319  -4.593   4.168  0.00  0.00    -0.297 N 
ATOM      9  C   UNL     1       5.956  -5.542   3.105  0.00  0.00    +0.130 C 
ATOM     10  C   UNL     1       4.998  -4.840   2.128  0.00  0.00    +0.092 C 
ATOM     11  C   UNL     1       3.644  -4.612   2.804  0.00  0.00    +0.030 C 
ATOM     12  C   UNL     1       6.122  -4.906   5.463  0.00  0.00    +0.235 C 
ATOM     13  O   UNL     1       5.704  -6.004   5.766  0.00  0.00    -0.274 OA
ATOM     14  H   UNL     1       6.667  -1.458   0.819  0.00  0.00    +0.150 HD
BRANCH   2  15
ATOM     15  C   UNL     1       6.738  -1.808  -1.274  0.00  0.00    +0.106 C 
BRANCH  15  16
ATOM     16  C   UNL     1       7.455  -0.460  -1.371  0.00  0.00    +0.018 C 
BRANCH  16  18
ATOM     17  C   UNL     1       8.505   1.184  -2.932  0.00  0.00    +0.004 C 
ATOM     18  C   UNL     1       7.788  -0.163  -2.835  0.00  0.00    -0.002 C 
ENDBRANCH  16  18
ENDBRANCH  15  16
ENDBRANCH   2  15
ENDBRANCH   1  12
BRANCH   1  19
ATOM     19  C   UNL     1       5.151  -3.108   6.868  0.00  0.00    +0.013 C 
ATOM     20  C   UNL     1       4.738  -2.271   5.655  0.00  0.00    +0.009 C 
BRANCH  19  21
ATOM     21  C   UNL     1       4.026  -4.085   7.219  0.00  0.00    +0.002 C 
ATOM     22  C   UNL     1       2.792  -3.300   7.670  0.00  0.00    +0.004 C 
ENDBRANCH  19  21
ENDBRANCH   1  19
BRANCH   1  23
ATOM     23  N   UNL     1       6.897  -4.581   7.740  0.00  0.00    -0.178 NA
ATOM     24  H   UNL     1       6.535  -5.449   7.977  0.00  0.00    +0.149 HD
BRANCH  23  25
ATOM     25  S   UNL     1       8.053  -3.877   8.695  0.00  0.00    +0.060 S 
ATOM     26  O   UNL     1       8.279  -4.766   9.781  0.00  0.00    -0.153 OA
ATOM     27  O   UNL     1       9.096  -3.456   7.826  0.00  0.00    -0.153 OA
BRANCH  25  28
ATOM     28  C   UNL     1       7.345  -2.416   9.378  0.00  0.00    +0.111 A 
ATOM     29  C   UNL     1       6.843  -2.428  10.666  0.00  0.00    -0.024 A 
ATOM     30  C   UNL     1       6.288  -1.282  11.203  0.00  0.00    +0.008 A 
ATOM     31  C   UNL     1       6.235  -0.122  10.451  0.00  0.00    -0.050 A 
ATOM     32  C   UNL     1       6.738  -0.110   9.164  0.00  0.00    +0.008 A 
ATOM     33  C   UNL     1       7.297  -1.255   8.629  0.00  0.00    -0.024 A 
ATOM     34  C   UNL     1       7.850  -1.240   7.227  0.00  0.00    +0.046 C 
ATOM     35  C   UNL     1       5.629   1.127  11.035  0.00  0.00    +0.044 C 
ATOM     36  C   UNL     1       6.901  -3.692  11.485  0.00  0.00    +0.046 C 
ENDBRANCH  25  28
ENDBRANCH  23  25
ENDBRANCH   1  23
TORSDOF 9
