REMARK  Name = ZINC00781757
REMARK  7 active torsions:
REMARK  status: ('A' for Active; 'I' for Inactive)
REMARK    1  A    between atoms: C_1  and  C_2
REMARK    2  A    between atoms: C_2  and  C_3
REMARK    3  A    between atoms: C_3  and  C_5
REMARK    4  A    between atoms: C_3  and  S_19
REMARK    5  A    between atoms: C_10  and  C_13
REMARK    6  A    between atoms: S_19  and  C_20
REMARK    7  A    between atoms: N_24  and  C_25
REMARK                            x       y       z     vdW  Elec       q    Type
REMARK                         _______ _______ _______ _____ _____    ______ ____
ROOT
ATOM      1  C   UNL     1       4.905   3.387   0.011  0.00  0.00    +0.232 C 
ATOM      2  O   UNL     1       5.416   2.385  -0.442  0.00  0.00    -0.274 OA
ATOM      3  N   UNL     1       5.680   4.381   0.487  0.00  0.00    -0.264 N 
ATOM      4  C   UNL     1       7.064   4.259   0.458  0.00  0.00    +0.165 A 
ATOM      5  N   UNL     1       7.986   5.109   0.870  0.00  0.00    -0.225 NA
ATOM      6  C   UNL     1       9.276   4.827   0.765  0.00  0.00    +0.080 A 
ATOM      7  C   UNL     1       9.661   3.634   0.220  0.00  0.00    +0.076 A 
ATOM      8  S   UNL     1       8.067   2.906  -0.140  0.00  0.00    -0.060 S 
ATOM      9  H   UNL     1       5.272   5.183   0.851  0.00  0.00    +0.157 HD
ENDROOT
BRANCH   6  10
ATOM     10  C   UNL     1      10.295   5.798   1.235  0.00  0.00    +0.001 A 
ATOM     11  C   UNL     1      11.651   5.495   1.127  0.00  0.00    +0.010 A 
ATOM     12  C   UNL     1      12.595   6.405   1.561  0.00  0.00    +0.001 A 
ATOM     13  C   UNL     1      12.196   7.610   2.111  0.00  0.00    +0.000 A 
ATOM     14  C   UNL     1      10.851   7.913   2.225  0.00  0.00    +0.001 A 
ATOM     15  C   UNL     1       9.899   7.014   1.790  0.00  0.00    +0.010 A 
ENDBRANCH   6  10
BRANCH   1  16
ATOM     16  C   UNL     1       3.405   3.519   0.043  0.00  0.00    +0.140 C 
BRANCH  16  18
ATOM     17  C   UNL     1       1.429   4.539  -1.097  0.00  0.00    +0.005 C 
ATOM     18  C   UNL     1       2.934   4.282  -1.197  0.00  0.00    +0.020 C 
ENDBRANCH  16  18
BRANCH  16  19
ATOM     19  S   UNL     1       2.654   1.873   0.060  0.00  0.00    -0.073 S 
BRANCH  19  20
ATOM     20  C   UNL     1       3.143   1.330   1.664  0.00  0.00    +0.192 A 
ATOM     21  N   UNL     1       3.928   1.970   2.499  0.00  0.00    -0.123 NA
ATOM     22  N   UNL     1       4.073   1.284   3.576  0.00  0.00    -0.137 NA
ATOM     23  C   UNL     1       3.390   0.177   3.495  0.00  0.00    +0.225 A 
ATOM     24  N   UNL     1       2.777   0.164   2.273  0.00  0.00    -0.312 N 
ATOM     25  C   UNL     1       1.905  -0.881   1.732  0.00  0.00    +0.152 C 
ENDBRANCH  19  20
ENDBRANCH  16  19
ENDBRANCH   1  16
TORSDOF 5
