REMARK  Name = ZINC00333645
REMARK  6 active torsions:
REMARK  status: ('A' for Active; 'I' for Inactive)
REMARK    1  A    between atoms: C_1  and  C_2
REMARK    2  A    between atoms: C_3  and  C_20
REMARK    3  A    between atoms: C_4  and  C_12
REMARK    4  A    between atoms: C_6  and  C_10
REMARK    5  A    between atoms: C_7  and  N_9
REMARK    6  A    between atoms: C_20  and  C_22
REMARK                            x       y       z     vdW  Elec       q    Type
REMARK                         _______ _______ _______ _____ _____    ______ ____
ROOT
ATOM      1  C   UNL     1      -0.016   1.073   0.011  0.00  0.00    +0.086 C 
ATOM      2  C   UNL     1      -0.720   1.565   1.250  0.00  0.00    +0.112 C 
ATOM      3  C   UNL     1      -0.017   1.695   2.388  0.00  0.00    +0.045 C 
ATOM      4  C   UNL     1      -0.670   2.185   3.651  0.00  0.00    +0.101 C 
ATOM      5  C   UNL     1      -1.984   2.841   3.324  0.00  0.00    +0.098 C 
ATOM      6  C   UNL     1      -2.577   2.643   2.122  0.00  0.00    +0.198 C 
ATOM      7  O   UNL     1      -2.023   1.865   1.177  0.00  0.00    -0.445 OA
ENDROOT
BRANCH   4   8
ATOM      8  C   UNL     1      -0.909   1.020   4.577  0.00  0.00    -0.033 A 
ATOM      9  C   UNL     1      -1.716  -0.028   4.174  0.00  0.00    +0.006 A 
ATOM     10  C   UNL     1      -1.932  -1.099   5.020  0.00  0.00    +0.022 A 
ATOM     11  C   UNL     1      -1.350  -1.118   6.274  0.00  0.00    +0.059 A 
ATOM     12  C   UNL     1      -0.547  -0.066   6.680  0.00  0.00    +0.060 A 
ATOM     13  C   UNL     1      -0.327   1.003   5.830  0.00  0.00    +0.026 A 
ATOM     14 CL   UNL     1       0.185  -0.089   8.254  0.00  0.00    -0.082 Cl
ATOM     15 CL   UNL     1      -1.627  -2.460   7.340  0.00  0.00    -0.082 Cl
ENDBRANCH   4   8
BRANCH   6  16
ATOM     16  N   UNL     1      -3.775   3.259   1.859  0.00  0.00    -0.328 N 
ATOM     17  H   UNL     1      -4.186   3.827   2.530  0.00  0.00    +0.145 HD
ATOM     18  H   UNL     1      -4.211   3.126   1.003  0.00  0.00    +0.145 HD
ENDBRANCH   6  16
BRANCH   3  19
ATOM     19  C   UNL     1       1.351   1.367   2.398  0.00  0.00    +0.160 C 
ATOM     20  O   UNL     1       1.911   1.063   1.363  0.00  0.00    -0.293 OA
ATOM     21  C   UNL     1       2.123   1.392   3.692  0.00  0.00    +0.091 C 
ENDBRANCH   3  19
BRANCH   5  22
ATOM     22  C   UNL     1      -2.616   3.683   4.294  0.00  0.00    +0.101 C 
ATOM     23  N   UNL     1      -3.118   4.352   5.063  0.00  0.00    -0.191 NA
ENDBRANCH   5  22
TORSDOF 4
