REMARK  Name = ZINC36504519
REMARK  9 active torsions:
REMARK  status: ('A' for Active; 'I' for Inactive)
REMARK    1  A    between atoms: C_4  and  C_7
REMARK    2  A    between atoms: C_7  and  C_8
REMARK    3  A    between atoms: C_7  and  C_14
REMARK    4  A    between atoms: C_14  and  C_16
REMARK    5  A    between atoms: C_14  and  N_25
REMARK    6  A    between atoms: N_18  and  C_19
REMARK    7  A    between atoms: N_25  and  C_26
REMARK    8  A    between atoms: C_26  and  C_27
REMARK    9  A    between atoms: C_32  and  C_34
REMARK                            x       y       z     vdW  Elec       q    Type
REMARK                         _______ _______ _______ _____ _____    ______ ____
ROOT
ATOM      1  C   UNL     1       4.414  -1.404  -1.695  0.00  0.00    +0.174 C 
ENDROOT
BRANCH   1   2
ATOM      2  C   UNL     1       4.514  -0.395  -2.810  0.00  0.00    +0.235 C 
ATOM      3  O   UNL     1       5.600  -0.089  -3.255  0.00  0.00    -0.274 OA
ATOM      4  N   UNL     1       3.397   0.168  -3.312  0.00  0.00    -0.311 N 
ATOM      5  H   UNL     1       2.528  -0.077  -2.955  0.00  0.00    +0.149 HD
BRANCH   4   6
ATOM      6  C   UNL     1       3.494   1.149  -4.395  0.00  0.00    +0.073 C 
ATOM      7  C   UNL     1       3.751   2.537  -3.804  0.00  0.00    +0.022 C 
ATOM      8  C   UNL     1       3.853   3.562  -4.936  0.00  0.00    +0.002 C 
ATOM      9  C   UNL     1       2.543   3.579  -5.727  0.00  0.00    +0.000 C 
ATOM     10  C   UNL     1       2.286   2.191  -6.318  0.00  0.00    +0.002 C 
ATOM     11  C   UNL     1       2.184   1.166  -5.186  0.00  0.00    +0.022 C 
ENDBRANCH   4   6
ENDBRANCH   1   2
BRANCH   1  12
ATOM     12  N   UNL     1       5.757  -1.863  -1.330  0.00  0.00    -0.280 N 
ATOM     13  C   UNL     1       6.677  -0.978  -0.900  0.00  0.00    +0.237 C 
ATOM     14  O   UNL     1       6.395   0.199  -0.816  0.00  0.00    -0.274 OA
BRANCH  13  15
ATOM     15  C   UNL     1       8.059  -1.450  -0.525  0.00  0.00    +0.159 C 
ATOM     16  C   UNL     1       8.055  -2.026   0.908  0.00  0.00    +0.041 C 
ATOM     17  C   UNL     1       8.465  -0.792   1.746  0.00  0.00    +0.098 C 
ATOM     18  C   UNL     1       9.232   0.077   0.774  0.00  0.00    +0.214 C 
ATOM     19  O   UNL     1       9.959   0.995   1.089  0.00  0.00    -0.276 OA
ATOM     20  N   UNL     1       8.991  -0.316  -0.490  0.00  0.00    -0.304 N 
ATOM     21  H   UNL     1       9.382   0.095  -1.277  0.00  0.00    +0.149 HD
ENDBRANCH  13  15
BRANCH  12  22
ATOM     22  C   UNL     1       6.098  -3.284  -1.432  0.00  0.00    +0.182 C 
BRANCH  22  23
ATOM     23  C   UNL     1       6.518  -3.600  -2.845  0.00  0.00    +0.122 A 
ATOM     24  C   UNL     1       7.782  -3.625  -3.303  0.00  0.00    +0.046 A 
ATOM     25  C   UNL     1       7.715  -3.964  -4.674  0.00  0.00    +0.041 A 
ATOM     26  C   UNL     1       6.413  -4.125  -4.972  0.00  0.00    +0.195 A 
ATOM     27  O   UNL     1       5.693  -3.909  -3.859  0.00  0.00    -0.466 OA
ENDBRANCH  22  23
ENDBRANCH  12  22
ENDBRANCH   1  12
BRANCH   1  28
ATOM     28  C   UNL     1       3.748  -0.757  -0.479  0.00  0.00    +0.078 C 
BRANCH  28  32
ATOM     29  C   UNL     1      -0.308   0.196  -1.420  0.00  0.00    +0.000 A 
ATOM     30  C   UNL     1       0.538   1.177  -0.936  0.00  0.00    +0.000 A 
ATOM     31  C   UNL     1       1.850   0.868  -0.631  0.00  0.00    +0.004 A 
ATOM     32  C   UNL     1       2.317  -0.421  -0.810  0.00  0.00    -0.038 A 
ATOM     33  C   UNL     1       1.470  -1.401  -1.294  0.00  0.00    +0.004 A 
ATOM     34  C   UNL     1       0.158  -1.092  -1.600  0.00  0.00    +0.000 A 
ENDBRANCH  28  32
BRANCH  28  35
ATOM     35  C   UNL     1       3.783  -1.717   0.682  0.00  0.00    -0.038 A 
ATOM     36  C   UNL     1       4.159  -1.272   1.935  0.00  0.00    +0.004 A 
ATOM     37  C   UNL     1       4.191  -2.152   3.001  0.00  0.00    +0.000 A 
ATOM     38  C   UNL     1       3.846  -3.477   2.813  0.00  0.00    +0.000 A 
ATOM     39  C   UNL     1       3.468  -3.922   1.560  0.00  0.00    +0.000 A 
ATOM     40  C   UNL     1       3.432  -3.041   0.495  0.00  0.00    +0.004 A 
ENDBRANCH  28  35
ENDBRANCH   1  28
TORSDOF 9
