REMARK  Name = ZINC09060531
REMARK  7 active torsions:
REMARK  status: ('A' for Active; 'I' for Inactive)
REMARK    1  A    between atoms: C_1  and  C_2
REMARK    2  A    between atoms: N_4  and  C_28
REMARK    3  A    between atoms: C_8  and  C_9
REMARK    4  A    between atoms: C_8  and  N_10
REMARK    5  A    between atoms: N_10  and  C_11
REMARK    6  A    between atoms: C_14  and  S_17
REMARK    7  A    between atoms: S_17  and  N_20
REMARK                            x       y       z     vdW  Elec       q    Type
REMARK                         _______ _______ _______ _____ _____    ______ ____
ROOT
ATOM      1  C   UNL     1      -1.724   2.705   4.857  0.00  0.00    +0.031 A 
ATOM      2  C   UNL     1      -0.921   3.828   4.705  0.00  0.00    +0.025 A 
ATOM      3  C   UNL     1       0.419   3.682   4.408  0.00  0.00    +0.030 A 
ATOM      4  C   UNL     1       0.963   2.418   4.263  0.00  0.00    +0.109 A 
ATOM      5  C   UNL     1       0.166   1.298   4.408  0.00  0.00    +0.030 A 
ATOM      6  C   UNL     1      -1.175   1.437   4.710  0.00  0.00    +0.025 A 
ENDROOT
BRANCH   4   7
ATOM      7  S   UNL     1       2.675   2.236   3.885  0.00  0.00    +0.074 S 
ATOM      8  O   UNL     1       3.083   3.444   3.257  0.00  0.00    -0.150 OA
ATOM      9  O   UNL     1       2.820   0.967   3.263  0.00  0.00    -0.150 OA
BRANCH   7  10
ATOM     10  N   UNL     1       3.488   2.153   5.325  0.00  0.00    -0.198 N 
ATOM     11  C   UNL     1       3.274   1.080   6.184  0.00  0.00    +0.160 A 
ATOM     12  C   UNL     1       3.958   1.007   7.397  0.00  0.00    +0.050 A 
ATOM     13  C   UNL     1       3.711  -0.082   8.217  0.00  0.00    +0.045 A 
ATOM     14  C   UNL     1       2.797  -1.034   7.780  0.00  0.00    +0.152 A 
ATOM     15  N   UNL     1       2.196  -0.884   6.616  0.00  0.00    -0.136 NA
ATOM     16  N   UNL     1       2.421   0.123   5.852  0.00  0.00    -0.131 NA
ATOM     17 CL   UNL     1       2.448  -2.419   8.766  0.00  0.00    -0.060 Cl
ATOM     18  H   UNL     1       4.113   2.853   5.570  0.00  0.00    +0.175 HD
ENDBRANCH   7  10
ENDBRANCH   4   7
BRANCH   1  19
ATOM     19  N   UNL     1      -3.082   2.849   5.156  0.00  0.00    -0.317 N 
ATOM     20  H   UNL     1      -3.441   3.725   5.368  0.00  0.00    +0.152 HD
BRANCH  19  28
ATOM     21  C   UNL     1      -3.587   3.182   8.013  0.00  0.00    +0.068 C 
ATOM     22  C   UNL     1      -4.484   2.034   7.629  0.00  0.00    +0.070 C 
ATOM     23  N   UNL     1      -5.306   1.406   8.413  0.00  0.00    -0.176 NA
ATOM     24  N   UNL     1      -5.983   0.394   7.734  0.00  0.00    -0.156 N 
ATOM     25  C   UNL     1      -5.592   0.360   6.444  0.00  0.00    +0.274 C 
ATOM     26  O   UNL     1      -5.990  -0.399   5.576  0.00  0.00    -0.268 OA
ATOM     27  C   UNL     1      -4.587   1.420   6.296  0.00  0.00    +0.078 C 
ATOM     28  C   UNL     1      -3.893   1.770   5.151  0.00  0.00    +0.019 C 
ATOM     29  C   UNL     1      -4.042   0.947   3.897  0.00  0.00    +0.061 C 
BRANCH  24  30
ATOM     30  C   UNL     1      -6.936  -0.458   8.306  0.00  0.00    +0.060 A 
ATOM     31  C   UNL     1      -7.554  -1.430   7.531  0.00  0.00    +0.025 A 
ATOM     32  C   UNL     1      -8.490  -2.272   8.100  0.00  0.00    +0.002 A 
ATOM     33  C   UNL     1      -8.819  -2.140   9.437  0.00  0.00    +0.000 A 
ATOM     34  C   UNL     1      -8.208  -1.170  10.210  0.00  0.00    +0.002 A 
ATOM     35  C   UNL     1      -7.268  -0.328   9.648  0.00  0.00    +0.025 A 
ENDBRANCH  24  30
ENDBRANCH  19  28
ENDBRANCH   1  19
TORSDOF 5
