REMARK  Name = ZINC11371914
REMARK  11 active torsions:
REMARK  status: ('A' for Active; 'I' for Inactive)
REMARK    1  A    between atoms: C_1  and  C_2
REMARK    2  A    between atoms: C_2  and  C_4
REMARK    3  A    between atoms: C_2  and  O_14
REMARK    4  A    between atoms: N_9  and  C_10
REMARK    5  A    between atoms: C_10  and  C_11
REMARK    6  A    between atoms: C_10  and  C_12
REMARK    7  A    between atoms: C_10  and  C_13
REMARK    8  A    between atoms: O_14  and  C_15
REMARK    9  A    between atoms: C_15  and  C_17
REMARK   10  A    between atoms: C_19  and  C_29
REMARK   11  A    between atoms: N_20  and  C_22
REMARK                            x       y       z     vdW  Elec       q    Type
REMARK                         _______ _______ _______ _____ _____    ______ ____
ROOT
ATOM      1  C   UNL     1       2.123  -0.464   1.075  0.00  0.00    +0.379 C 
ATOM      2  O   UNL     1       2.693  -0.290   0.017  0.00  0.00    -0.241 OA
ENDROOT
BRANCH   1   3
ATOM      3  C   UNL     1       2.846  -1.065   2.214  0.00  0.00    +0.260 A 
ATOM      4  N   UNL     1       2.325  -1.310   3.423  0.00  0.00    -0.200 NA
ATOM      5  C   UNL     1       3.240  -1.849   4.202  0.00  0.00    +0.171 A 
ATOM      6  N   UNL     1       4.394  -1.959   3.478  0.00  0.00    -0.211 N 
ATOM      7  N   UNL     1       4.107  -1.451   2.200  0.00  0.00    -0.137 NA
BRANCH   6   8
ATOM      8  C   UNL     1       5.617  -2.479   3.920  0.00  0.00    +0.068 A 
ATOM      9  C   UNL     1       5.648  -3.664   4.643  0.00  0.00    +0.030 A 
ATOM     10  C   UNL     1       6.854  -4.176   5.077  0.00  0.00    +0.040 A 
ATOM     11  C   UNL     1       8.034  -3.507   4.792  0.00  0.00    +0.124 A 
ATOM     12  C   UNL     1       8.005  -2.325   4.072  0.00  0.00    +0.040 A 
ATOM     13  C   UNL     1       6.801  -1.813   3.630  0.00  0.00    +0.030 A 
ATOM     14  F   UNL     1       9.213  -4.009   5.218  0.00  0.00    -0.205 F 
ENDBRANCH   6   8
BRANCH   5  15
ATOM     15  C   UNL     1       3.054  -2.260   5.603  0.00  0.00    +0.056 A 
ATOM     16  C   UNL     1       1.888  -2.493   6.288  0.00  0.00    +0.019 A 
ATOM     17  C   UNL     1       1.962  -2.873   7.608  0.00  0.00    +0.008 A 
ATOM     18  C   UNL     1       3.182  -3.006   8.192  0.00  0.00    +0.046 A 
ATOM     19  S   UNL     1       4.286  -2.594   6.851  0.00  0.00    -0.094 S 
ENDBRANCH   5  15
ENDBRANCH   1   3
BRANCH   1  20
ATOM     20  O   UNL     1       0.830  -0.108   1.210  0.00  0.00    -0.446 OA
BRANCH  20  22
ATOM     21  C   UNL     1       0.372   1.986   0.095  0.00  0.00    +0.062 C 
ATOM     22  C   UNL     1       0.193   0.467   0.068  0.00  0.00    +0.259 C 
BRANCH  22  23
ATOM     23  C   UNL     1      -1.277   0.134   0.092  0.00  0.00    +0.261 C 
ATOM     24  O   UNL     1      -1.750  -0.452   1.042  0.00  0.00    -0.271 OA
ATOM     25  N   UNL     1      -2.065   0.488  -0.943  0.00  0.00    -0.237 N 
ATOM     26  C   UNL     1      -3.379   0.190  -0.921  0.00  0.00    +0.306 C 
ATOM     27  O   UNL     1      -3.854  -0.398   0.031  0.00  0.00    -0.252 OA
ATOM     28  N   UNL     1      -4.167   0.544  -1.956  0.00  0.00    -0.294 N 
ATOM     29  H   UNL     1      -1.686   0.957  -1.702  0.00  0.00    +0.159 HD
ATOM     30  H   UNL     1      -3.789   1.013  -2.716  0.00  0.00    +0.151 HD
BRANCH  28  31
ATOM     31  C   UNL     1      -5.596   0.220  -1.932  0.00  0.00    +0.028 C 
ATOM     32  C   UNL     1      -6.251   0.890  -0.723  0.00  0.00    +0.031 C 
ATOM     33  C   UNL     1      -6.255   0.729  -3.216  0.00  0.00    +0.031 C 
ATOM     34  C   UNL     1      -5.774  -1.296  -1.834  0.00  0.00    +0.031 C 
ENDBRANCH  28  31
ENDBRANCH  22  23
ENDBRANCH  20  22
ENDBRANCH   1  20
TORSDOF 7
