REMARK  Name = ZINC09059316
REMARK  6 active torsions:
REMARK  status: ('A' for Active; 'I' for Inactive)
REMARK    1  A    between atoms: C_1  and  C_2
REMARK    2  A    between atoms: C_4  and  C_21
REMARK    3  A    between atoms: C_6  and  C_13
REMARK    4  A    between atoms: C_8  and  C_12
REMARK    5  A    between atoms: C_18  and  O_19
REMARK    6  A    between atoms: C_26  and  O_27
REMARK                            x       y       z     vdW  Elec       q    Type
REMARK                         _______ _______ _______ _____ _____    ______ ____
ROOT
ATOM      1  C   UNL     1      -1.631   2.824   1.268  0.00  0.00    +0.014 C 
ATOM      2  C   UNL     1      -1.425   2.180  -0.104  0.00  0.00    +0.043 C 
ATOM      3  C   UNL     1      -1.232   3.272  -1.157  0.00  0.00    -0.026 C 
ATOM      4  C   UNL     1       1.189   3.110  -1.073  0.00  0.00    -0.026 C 
ATOM      5  C   UNL     1       1.161   2.007  -0.008  0.00  0.00    +0.043 C 
ATOM      6  C   UNL     1      -0.183   1.313  -0.080  0.00  0.00    +0.136 C 
ATOM      7  O   UNL     1      -0.262   0.109  -0.121  0.00  0.00    -0.297 OA
ATOM      8  C   UNL     1       2.278   0.998  -0.281  0.00  0.00    +0.014 C 
ATOM      9  N   UNL     1       0.025   4.000  -0.894  0.00  0.00    +0.389 N 
ATOM     10  H   UNL     1       0.015   4.354   0.070  0.00  0.00    -0.084 HD
ATOM     11  H   UNL     1       0.100   4.789  -1.547  0.00  0.00    -0.084 HD
ENDROOT
BRANCH   4  12
ATOM     12  C   UNL     1       1.148   2.486  -2.444  0.00  0.00    -0.018 A 
ATOM     13  C   UNL     1       0.772   1.164  -2.591  0.00  0.00    +0.020 A 
ATOM     14  C   UNL     1       0.730   0.592  -3.850  0.00  0.00    +0.018 A 
ATOM     15  C   UNL     1       1.073   1.339  -4.963  0.00  0.00    +0.019 A 
ATOM     16  C   UNL     1       1.454   2.659  -4.820  0.00  0.00    +0.047 A 
ATOM     17  C   UNL     1       1.493   3.236  -3.559  0.00  0.00    +0.119 A 
ATOM     18 BR   UNL     1       0.208  -1.214  -4.049  0.00  0.00    -0.050 Br
BRANCH  17  19
ATOM     19  O   UNL     1       1.868   4.534  -3.416  0.00  0.00    -0.507 OA
ATOM     20  H   UNL     1       2.825   4.663  -3.361  0.00  0.00    +0.292 HD
ENDBRANCH  17  19
ENDBRANCH   4  12
BRANCH   3  21
ATOM     21  C   UNL     1      -2.384   4.241  -1.095  0.00  0.00    -0.018 A 
ATOM     22  C   UNL     1      -2.239   5.446  -0.434  0.00  0.00    +0.020 A 
ATOM     23  C   UNL     1      -3.294   6.338  -0.380  0.00  0.00    +0.018 A 
ATOM     24  C   UNL     1      -4.501   6.023  -0.979  0.00  0.00    +0.019 A 
ATOM     25  C   UNL     1      -4.652   4.817  -1.636  0.00  0.00    +0.047 A 
ATOM     26  C   UNL     1      -3.593   3.923  -1.695  0.00  0.00    +0.119 A 
ATOM     27 BR   UNL     1      -3.090   7.989   0.520  0.00  0.00    -0.050 Br
BRANCH  26  28
ATOM     28  O   UNL     1      -3.740   2.736  -2.341  0.00  0.00    -0.507 OA
ATOM     29  H   UNL     1      -4.057   2.018  -1.777  0.00  0.00    +0.292 HD
ENDBRANCH  26  28
ENDBRANCH   3  21
TORSDOF 4
