REMARK  Name = ZINC15731404
REMARK  9 active torsions:
REMARK  status: ('A' for Active; 'I' for Inactive)
REMARK    1  A    between atoms: C_1  and  C_2
REMARK    2  A    between atoms: C_8  and  C_9
REMARK    3  A    between atoms: C_8  and  N_66
REMARK    4  A    between atoms: C_9  and  C_10
REMARK    5  A    between atoms: C_10  and  N_11
REMARK    6  A    between atoms: C_12  and  C_14
REMARK    7  A    between atoms: C_15  and  C_33
REMARK    8  A    between atoms: N_22  and  S_25
REMARK    9  A    between atoms: S_25  and  C_28
REMARK                            x       y       z     vdW  Elec       q    Type
REMARK                         _______ _______ _______ _____ _____    ______ ____
ROOT
ATOM      1  C   UNL     1       5.576   7.889   0.704  0.00  0.00    +0.067 C 
ATOM      2  C   UNL     1       6.665   8.665   0.584  0.00  0.00    +0.045 C 
ATOM      3  C   UNL     1       6.245  10.053   0.334  0.00  0.00    +0.336 C 
ATOM      4  O   UNL     1       6.998  10.993   0.178  0.00  0.00    -0.245 OA
ATOM      5  O   UNL     1       4.901  10.128   0.310  0.00  0.00    -0.450 OA
ATOM      6  C   UNL     1       4.378   8.792   0.537  0.00  0.00    +0.146 C 
ATOM      7  C   UNL     1       3.527   8.770   1.806  0.00  0.00    +0.070 C 
ATOM      8  C   UNL     1       2.343   9.728   1.641  0.00  0.00    +0.114 C 
ATOM      9  N   UNL     1       1.618   9.376   0.412  0.00  0.00    -0.176 NA
ATOM     10  C   UNL     1       2.364   9.296  -0.851  0.00  0.00    +0.114 C 
ATOM     11  C   UNL     1       3.548   8.341  -0.664  0.00  0.00    +0.070 C 
ATOM     12  C   UNL     1       8.092   8.190   0.687  0.00  0.00    +0.052 C 
ENDROOT
BRANCH   1  14
ATOM     13  N   UNL     1       5.801   5.961   2.194  0.00  0.00    -0.312 N 
ATOM     14  C   UNL     1       5.554   6.434   0.956  0.00  0.00    +0.244 C 
ATOM     15  O   UNL     1       5.314   5.663   0.048  0.00  0.00    -0.270 OA
ATOM     16  H   UNL     1       5.926   6.577   2.933  0.00  0.00    +0.149 HD
BRANCH  13  17
ATOM     17  C   UNL     1       5.880   4.516   2.423  0.00  0.00    +0.102 C 
BRANCH  17  18
ATOM     18  C   UNL     1       6.289   4.252   3.874  0.00  0.00    +0.000 C 
BRANCH  18  19
ATOM     19  C   UNL     1       6.490   2.749   4.081  0.00  0.00    -0.077 C 
BRANCH  19  26
ATOM     20  C   UNL     1       7.846   0.346   4.634  0.00  0.00    -0.013 C 
ATOM     21  C   UNL     1       7.061   1.070   5.730  0.00  0.00    -0.072 C 
ATOM     22  C   UNL     1       7.746   0.849   7.080  0.00  0.00    -0.016 C 
ATOM     23  C   UNL     1       6.968   1.592   8.170  0.00  0.00    -0.003 C 
ATOM     24  C   UNL     1       6.895   3.078   7.811  0.00  0.00    -0.019 C 
ATOM     25  C   UNL     1       6.235   3.235   6.439  0.00  0.00    -0.078 C 
ATOM     26  N   UNL     1       7.045   2.518   5.431  0.00  0.00    +0.381 N 
ATOM     27  H   UNL     1       8.007   2.875   5.462  0.00  0.00    -0.081 HD
ENDBRANCH  19  26
ENDBRANCH  18  19
ENDBRANCH  17  18
ENDBRANCH  13  17
ENDBRANCH   1  14
BRANCH   9  28
ATOM     28  S   UNL     1      -0.010   9.075   0.451  0.00  0.00    +0.067 S 
ATOM     29  O   UNL     1      -0.539   9.839   1.525  0.00  0.00    -0.152 OA
ATOM     30  O   UNL     1      -0.479   9.209  -0.884  0.00  0.00    -0.152 OA
BRANCH  28  31
ATOM     31  C   UNL     1      -0.216   7.380   0.889  0.00  0.00    +0.143 A 
ATOM     32  C   UNL     1      -0.425   6.835   2.112  0.00  0.00    +0.036 A 
ATOM     33  C   UNL     1      -0.563   5.463   2.220  0.00  0.00    +0.010 A 
ATOM     34  C   UNL     1      -0.474   4.704   1.100  0.00  0.00    +0.047 A 
ATOM     35  S   UNL     1      -0.195   5.937  -0.161  0.00  0.00    -0.077 S 
ENDBRANCH  28  31
ENDBRANCH   9  28
TORSDOF 7
