REMARK  Name = ZINC09067823
REMARK  7 active torsions:
REMARK  status: ('A' for Active; 'I' for Inactive)
REMARK    1  A    between atoms: C_1  and  C_2
REMARK    2  A    between atoms: C_5  and  C_37
REMARK    3  A    between atoms: N_11  and  C_12
REMARK    4  A    between atoms: C_12  and  C_13
REMARK    5  A    between atoms: C_19  and  C_21
REMARK    6  A    between atoms: N_26  and  S_27
REMARK    7  A    between atoms: S_27  and  C_30
REMARK                            x       y       z     vdW  Elec       q    Type
REMARK                         _______ _______ _______ _____ _____    ______ ____
ROOT
ATOM      1  C   UNL     1      -2.477   6.867  -6.319  0.00  0.00    +0.046 C 
ATOM      2  C   UNL     1      -3.636   7.464  -5.565  0.00  0.00    -0.024 A 
ATOM      3  C   UNL     1      -4.357   8.486  -6.127  0.00  0.00    +0.006 A 
ATOM      4  C   UNL     1      -5.431   9.064  -5.467  0.00  0.00    +0.005 A 
ATOM      5  C   UNL     1      -5.785   8.600  -4.213  0.00  0.00    -0.035 A 
ATOM      6  C   UNL     1      -5.070   7.577  -3.642  0.00  0.00    +0.044 A 
ATOM      7  C   UNL     1      -3.970   6.964  -4.285  0.00  0.00    +0.083 A 
ATOM      8  N   UNL     1      -3.368   5.971  -3.595  0.00  0.00    -0.224 NA
ATOM      9  C   UNL     1      -3.772   5.593  -2.405  0.00  0.00    +0.168 A 
ATOM     10  S   UNL     1      -5.159   6.682  -2.110  0.00  0.00    -0.052 S 
ATOM     11  N   UNL     1      -3.259   4.600  -1.587  0.00  0.00    -0.247 N 
ATOM     12  C   UNL     1      -2.199   3.874  -1.994  0.00  0.00    +0.240 C 
ATOM     13  O   UNL     1      -1.639   4.148  -3.033  0.00  0.00    -0.273 OA
ATOM     14  C   UNL     1      -6.948   9.214  -3.477  0.00  0.00    +0.045 C 
ENDROOT
BRANCH  12  15
ATOM     15  C   UNL     1      -1.710   2.720  -1.156  0.00  0.00    +0.166 C 
ATOM     16  C   UNL     1      -0.439   3.126  -0.369  0.00  0.00    +0.031 C 
ATOM     17  C   UNL     1       0.233   1.746  -0.123  0.00  0.00    +0.019 C 
ATOM     18  C   UNL     1      -0.100   0.969  -1.414  0.00  0.00    +0.110 C 
ATOM     19  N   UNL     1      -1.279   1.606  -2.019  0.00  0.00    -0.165 NA
BRANCH  19  20
ATOM     20  S   UNL     1      -2.002   1.147  -3.437  0.00  0.00    +0.062 S 
ATOM     21  O   UNL     1      -2.825   2.233  -3.843  0.00  0.00    -0.153 OA
ATOM     22  O   UNL     1      -0.975   0.619  -4.265  0.00  0.00    -0.153 OA
BRANCH  20  23
ATOM     23  C   UNL     1      -3.084  -0.191  -3.061  0.00  0.00    +0.106 A 
ATOM     24  C   UNL     1      -2.620  -1.492  -3.122  0.00  0.00    +0.031 A 
ATOM     25  C   UNL     1      -3.467  -2.543  -2.821  0.00  0.00    +0.040 A 
ATOM     26  C   UNL     1      -4.783  -2.293  -2.471  0.00  0.00    +0.124 A 
ATOM     27  C   UNL     1      -5.247  -0.990  -2.415  0.00  0.00    +0.040 A 
ATOM     28  C   UNL     1      -4.398   0.060  -2.710  0.00  0.00    +0.031 A 
ATOM     29  F   UNL     1      -5.612  -3.319  -2.183  0.00  0.00    -0.205 F 
ENDBRANCH  20  23
ENDBRANCH  19  20
ENDBRANCH  12  15
BRANCH  11  30
ATOM     30  C   UNL     1      -3.868   4.339  -0.280  0.00  0.00    +0.147 C 
BRANCH  30  31
ATOM     31  C   UNL     1      -3.107   5.111   0.800  0.00  0.00    +0.136 C 
ATOM     32  C   UNL     1      -3.756   4.882   2.183  0.00  0.00    +0.035 C 
ATOM     33  C   UNL     1      -3.633   6.251   2.888  0.00  0.00    +0.031 C 
ATOM     34  C   UNL     1      -2.923   7.146   1.847  0.00  0.00    +0.160 C 
ATOM     35  O   UNL     1      -3.216   6.533   0.573  0.00  0.00    -0.375 OA
ENDBRANCH  30  31
ENDBRANCH  11  30
TORSDOF 5
