REMARK  Name = ZINC49790433
REMARK  6 active torsions:
REMARK  status: ('A' for Active; 'I' for Inactive)
REMARK    1  A    between atoms: C_1  and  C_2
REMARK    2  A    between atoms: N_5  and  C_8
REMARK    3  A    between atoms: C_8  and  C_10
REMARK    4  A    between atoms: C_8  and  C_22
REMARK    5  A    between atoms: C_10  and  N_11
REMARK    6  A    between atoms: N_14  and  N_15
REMARK                            x       y       z     vdW  Elec       q    Type
REMARK                         _______ _______ _______ _____ _____    ______ ____
ROOT
ATOM      1  C   UNL     1       0.082  -4.402   2.621  0.00  0.00    +0.095 C 
ENDROOT
BRANCH   1   2
ATOM      2  N   UNL     1       0.238  -5.859   2.589  0.00  0.00    -0.299 N 
ATOM      3  C   UNL     1       0.851  -6.493   3.607  0.00  0.00    +0.316 C 
ATOM      4  O   UNL     1       1.275  -5.857   4.553  0.00  0.00    -0.251 OA
ATOM      5  N   UNL     1       0.995  -7.833   3.578  0.00  0.00    -0.218 N 
ATOM      6  H   UNL     1      -0.101  -6.366   1.835  0.00  0.00    +0.150 HD
ATOM      7  H   UNL     1       1.436  -8.290   4.311  0.00  0.00    +0.174 HD
BRANCH   5   8
ATOM      8  N   UNL     1       0.506  -8.566   2.488  0.00  0.00    -0.231 N 
ATOM      9  C   UNL     1       0.653  -9.942   2.458  0.00  0.00    +0.232 A 
ATOM     10  N   UNL     1       1.254 -10.550   3.470  0.00  0.00    -0.222 NA
ATOM     11  C   UNL     1       1.411 -11.864   3.472  0.00  0.00    +0.116 A 
ATOM     12  C   UNL     1       0.938 -12.603   2.399  0.00  0.00    +0.039 A 
ATOM     13  C   UNL     1       0.315 -11.935   1.357  0.00  0.00    +0.116 A 
ATOM     14  N   UNL     1       0.185 -10.620   1.420  0.00  0.00    -0.222 NA
ATOM     15  H   UNL     1       0.065  -8.109   1.755  0.00  0.00    +0.173 HD
ENDBRANCH   5   8
ENDBRANCH   1   2
BRANCH   1  16
ATOM     16  C   UNL     1      -0.755  -3.952   1.422  0.00  0.00    -0.013 C 
BRANCH  16  21
ATOM     17  C   UNL     1      -0.655   1.640   0.307  0.00  0.00    +0.007 C 
ATOM     18  C   UNL     1      -0.508   0.121   0.194  0.00  0.00    -0.018 C 
ATOM     19  C   UNL     1      -1.882  -0.539   0.343  0.00  0.00    -0.015 C 
ATOM     20  C   UNL     1      -1.718  -2.060   0.309  0.00  0.00    -0.078 C 
ATOM     21  N   UNL     1      -0.847  -2.486   1.411  0.00  0.00    +0.386 N 
ATOM     22  C   UNL     1       0.494  -1.915   1.236  0.00  0.00    -0.078 C 
ATOM     23  C   UNL     1       0.415  -0.388   1.306  0.00  0.00    -0.015 C 
ATOM     24  H   UNL     1      -1.235  -2.169   2.287  0.00  0.00    -0.081 HD
ENDBRANCH  16  21
BRANCH  16  25
ATOM     25  C   UNL     1      -2.138  -4.542   1.524  0.00  0.00    -0.022 A 
ATOM     26  C   UNL     1      -2.651  -5.629   0.898  0.00  0.00    +0.009 A 
ATOM     27  C   UNL     1      -3.962  -5.989   1.148  0.00  0.00    +0.008 A 
ATOM     28  C   UNL     1      -4.695  -5.245   2.011  0.00  0.00    +0.045 A 
ATOM     29  S   UNL     1      -3.523  -3.994   2.508  0.00  0.00    -0.103 S 
ENDBRANCH  16  25
ENDBRANCH   1  16
TORSDOF 5
