REMARK  Name = ZINC17086043
REMARK  12 active torsions:
REMARK  status: ('A' for Active; 'I' for Inactive)
REMARK    1  A    between atoms: C_1  and  C_2
REMARK    2  A    between atoms: C_2  and  C_3
REMARK    3  A    between atoms: C_2  and  C_4
REMARK    4  A    between atoms: C_2  and  C_5
REMARK    5  A    between atoms: C_17  and  C_20
REMARK    6  A    between atoms: C_23  and  O_28
REMARK    7  A    between atoms: C_24  and  O_26
REMARK    8  A    between atoms: O_26  and  C_27
REMARK    9  A    between atoms: O_28  and  C_29
REMARK   10  A    between atoms: C_29  and  C_31
REMARK   11  A    between atoms: C_34  and  O_37
REMARK   12  A    between atoms: O_37  and  C_38
REMARK                            x       y       z     vdW  Elec       q    Type
REMARK                         _______ _______ _______ _____ _____    ______ ____
ROOT
ATOM      1  C   UNL     1      -2.648   0.373   7.029  0.00  0.00    -0.000 C 
ATOM      2  C   UNL     1      -3.995   0.909   6.535  0.00  0.00    +0.009 C 
ATOM      3  C   UNL     1      -3.818   1.577   5.170  0.00  0.00    +0.037 C 
ATOM      4  C   UNL     1      -3.110   0.605   4.234  0.00  0.00    -0.023 A 
ATOM      5  C   UNL     1      -2.425  -0.452   4.723  0.00  0.00    -0.004 A 
ATOM      6  S   UNL     1      -1.786  -1.285   3.293  0.00  0.00    -0.078 S 
ATOM      7  C   UNL     1      -2.415  -0.255   2.079  0.00  0.00    +0.080 A 
ATOM      8  C   UNL     1      -3.118   0.734   2.785  0.00  0.00    +0.068 A 
ATOM      9  C   UNL     1      -3.784   1.795   1.996  0.00  0.00    +0.248 C 
ATOM     10  O   UNL     1      -4.505   2.621   2.526  0.00  0.00    -0.270 OA
ATOM     11  N   UNL     1      -3.560   1.809   0.666  0.00  0.00    -0.289 N 
ATOM     12  C   UNL     1      -2.531   1.005   0.014  0.00  0.00    +0.190 C 
ATOM     13  N   UNL     1      -2.333  -0.278   0.712  0.00  0.00    -0.316 N 
ATOM     14  C   UNL     1      -2.247  -0.829   6.161  0.00  0.00    +0.046 C 
ATOM     15  H   UNL     1      -4.204   2.470   0.067  0.00  0.00    +0.151 HD
ATOM     16  H   UNL     1      -2.132  -1.193   0.136  0.00  0.00    +0.149 HD
ENDROOT
BRANCH  12  17
ATOM     17  C   UNL     1      -1.234   1.772   0.013  0.00  0.00    -0.006 A 
ATOM     18  C   UNL     1      -0.030   1.091   0.032  0.00  0.00    +0.011 A 
ATOM     19  C   UNL     1       1.163   1.789   0.026  0.00  0.00    +0.050 A 
ATOM     20  C   UNL     1       1.154   3.175   0.006  0.00  0.00    +0.173 A 
ATOM     21  C   UNL     1      -0.057   3.860  -0.008  0.00  0.00    +0.163 A 
ATOM     22  C   UNL     1      -1.249   3.154  -0.002  0.00  0.00    +0.056 A 
BRANCH  21  23
ATOM     23  O   UNL     1      -0.070   5.220  -0.027  0.00  0.00    -0.491 OA
ATOM     24  C   UNL     1      -1.350   5.856  -0.041  0.00  0.00    +0.277 C 
ENDBRANCH  21  23
BRANCH  20  25
ATOM     25  O   UNL     1       2.327   3.863   0.001  0.00  0.00    -0.419 OA
BRANCH  25  26
ATOM     26  C   UNL     1       2.756   4.349   1.181  0.00  0.00    +0.345 C 
ATOM     27  O   UNL     1       2.156   4.082   2.203  0.00  0.00    -0.245 OA
BRANCH  26  28
ATOM     28  C   UNL     1       3.955   5.207   1.234  0.00  0.00    +0.060 A 
ATOM     29  C   UNL     1       4.651   5.511   0.060  0.00  0.00    +0.018 A 
ATOM     30  C   UNL     1       5.767   6.315   0.113  0.00  0.00    +0.046 A 
ATOM     31  C   UNL     1       6.209   6.816   1.333  0.00  0.00    +0.120 A 
ATOM     32  C   UNL     1       5.523   6.511   2.503  0.00  0.00    +0.046 A 
ATOM     33  C   UNL     1       4.403   5.712   2.458  0.00  0.00    +0.018 A 
BRANCH  31  34
ATOM     34  O   UNL     1       7.312   7.604   1.381  0.00  0.00    -0.495 OA
ATOM     35  C   UNL     1       7.969   7.877   0.142  0.00  0.00    +0.277 C 
ENDBRANCH  31  34
ENDBRANCH  26  28
ENDBRANCH  25  26
ENDBRANCH  20  25
ENDBRANCH  12  17
BRANCH   1  37
ATOM     36  C   UNL     1      -1.436  -0.623   8.974  0.00  0.00    +0.011 C 
ATOM     37  C   UNL     1      -2.777  -0.069   8.489  0.00  0.00    -0.035 C 
ATOM     38  C   UNL     1      -3.177   1.130   9.351  0.00  0.00    +0.011 C 
ATOM     39  C   UNL     1      -3.848  -1.157   8.600  0.00  0.00    +0.011 C 
ENDBRANCH   1  37
TORSDOF 7
