REMARK  Name = ZINC14476160
REMARK  9 active torsions:
REMARK  status: ('A' for Active; 'I' for Inactive)
REMARK    1  A    between atoms: C_1  and  C_2
REMARK    2  A    between atoms: C_2  and  C_3
REMARK    3  A    between atoms: C_3  and  C_5
REMARK    4  A    between atoms: C_3  and  N_6
REMARK    5  A    between atoms: N_6  and  S_7
REMARK    6  A    between atoms: S_7  and  C_10
REMARK    7  A    between atoms: C_23  and  C_26
REMARK    8  A    between atoms: C_28  and  N_33
REMARK    9  A    between atoms: C_31  and  O_32
REMARK                            x       y       z     vdW  Elec       q    Type
REMARK                         _______ _______ _______ _____ _____    ______ ____
ROOT
ATOM      1  C   UNL     1      -4.575  -1.250   0.861  0.00  0.00    +0.106 A 
ATOM      2  C   UNL     1      -4.860  -1.517  -0.466  0.00  0.00    +0.030 A 
ATOM      3  C   UNL     1      -5.556  -2.658  -0.809  0.00  0.00    +0.025 A 
ATOM      4  C   UNL     1      -5.973  -3.548   0.173  0.00  0.00    +0.031 A 
ATOM      5  C   UNL     1      -5.670  -3.277   1.512  0.00  0.00    -0.018 A 
ATOM      6  C   UNL     1      -4.977  -2.134   1.845  0.00  0.00    +0.034 A 
ATOM      7  C   UNL     1      -6.097  -4.269   2.523  0.00  0.00    +0.049 C 
ATOM      8  C   UNL     1      -6.378  -3.885   3.930  0.00  0.00    -0.023 C 
ATOM      9  C   UNL     1      -7.320  -4.689   4.408  0.00  0.00    -0.030 C 
ATOM     10  C   UNL     1      -7.772  -5.669   3.324  0.00  0.00    +0.033 C 
ATOM     11  C   UNL     1      -7.459  -4.867   2.058  0.00  0.00    +0.029 C 
ATOM     12  C   UNL     1      -7.143  -5.673   0.811  0.00  0.00    +0.108 C 
ATOM     13  N   UNL     1      -6.696  -4.688  -0.198  0.00  0.00    -0.336 N 
ATOM     14  H   UNL     1      -6.907  -4.835  -1.133  0.00  0.00    +0.147 HD
ENDROOT
BRANCH  12  15
ATOM     15  C   UNL     1      -6.045  -6.666   1.097  0.00  0.00    +0.017 A 
ATOM     16  C   UNL     1      -4.731  -6.343   0.817  0.00  0.00    +0.041 A 
ATOM     17  C   UNL     1      -3.724  -7.252   1.079  0.00  0.00    +0.127 A 
ATOM     18  C   UNL     1      -4.029  -8.488   1.621  0.00  0.00    +0.036 A 
ATOM     19  C   UNL     1      -5.340  -8.816   1.902  0.00  0.00    +0.048 A 
ATOM     20  C   UNL     1      -6.353  -7.902   1.645  0.00  0.00    +0.122 A 
BRANCH  17  21
ATOM     21  N   UNL     1      -2.317  -6.904   0.778  0.00  0.00    +0.056 N 
ATOM     22  O   UNL     1      -2.050  -5.824   0.304  0.00  0.00    -0.126 OA
ATOM     23  O   UNL     1      -1.436  -7.699   1.006  0.00  0.00    -0.126 OA
ENDBRANCH  17  21
BRANCH  20  24
ATOM     24  O   UNL     1      -7.644  -8.220   1.926  0.00  0.00    -0.506 OA
ATOM     25  H   UNL     1      -8.111  -8.649   1.196  0.00  0.00    +0.292 HD
ENDBRANCH  20  24
ENDBRANCH  12  15
BRANCH   1  26
ATOM     26  S   UNL     1      -3.694   0.213   1.295  0.00  0.00    +0.059 S 
ATOM     27  O   UNL     1      -4.026   0.500   2.647  0.00  0.00    -0.153 OA
ATOM     28  O   UNL     1      -3.910   1.144   0.244  0.00  0.00    -0.153 OA
BRANCH  26  29
ATOM     29  N   UNL     1      -2.082  -0.162   1.273  0.00  0.00    -0.187 NA
ATOM     30  H   UNL     1      -1.566  -0.135   2.094  0.00  0.00    +0.148 HD
BRANCH  29  31
ATOM     31  C   UNL     1      -1.433  -0.534   0.013  0.00  0.00    +0.073 C 
ATOM     32  C   UNL     1      -1.416  -2.058  -0.121  0.00  0.00    +0.025 C 
BRANCH  31  34
ATOM     33  C   UNL     1      -0.019   1.526   0.010  0.00  0.00    +0.005 C 
ATOM     34  C   UNL     1       0.002  -0.004   0.002  0.00  0.00    +0.017 C 
ENDBRANCH  31  34
ENDBRANCH  29  31
ENDBRANCH  26  29
ENDBRANCH   1  26
TORSDOF 7
