REMARK  Name = ZINC44834282
REMARK  7 active torsions:
REMARK  status: ('A' for Active; 'I' for Inactive)
REMARK    1  A    between atoms: C_1  and  C_2
REMARK    2  A    between atoms: C_2  and  C_3
REMARK    3  A    between atoms: C_2  and  C_4
REMARK    4  A    between atoms: C_4  and  C_6
REMARK    5  A    between atoms: C_4  and  C_9
REMARK    6  A    between atoms: C_6  and  N_8
REMARK    7  A    between atoms: N_11  and  C_12
REMARK                            x       y       z     vdW  Elec       q    Type
REMARK                         _______ _______ _______ _____ _____    ______ ____
ROOT
ATOM      1  C   UNL     1      -1.413  -2.040   0.001  0.00  0.00    +0.227 C 
ATOM      2  O   UNL     1      -0.354  -2.632  -0.005  0.00  0.00    -0.275 OA
ATOM      3  N   UNL     1      -2.571  -2.730   0.012  0.00  0.00    -0.284 N 
ATOM      4  H   UNL     1      -3.415  -2.260   0.098  0.00  0.00    +0.155 HD
ENDROOT
BRANCH   3   5
ATOM      5  C   UNL     1      -2.555  -4.125  -0.101  0.00  0.00    +0.047 A 
ATOM      6  C   UNL     1      -1.487  -4.761  -0.721  0.00  0.00    +0.024 A 
ATOM      7  C   UNL     1      -1.475  -6.138  -0.831  0.00  0.00    +0.002 A 
ATOM      8  C   UNL     1      -2.524  -6.883  -0.325  0.00  0.00    +0.001 A 
ATOM      9  C   UNL     1      -3.589  -6.253   0.293  0.00  0.00    +0.016 A 
ATOM     10  C   UNL     1      -3.605  -4.877   0.411  0.00  0.00    +0.035 A 
ATOM     11  I   UNL     1      -5.215  -3.924   1.354  0.00  0.00    -0.042 I 
ENDBRANCH   3   5
BRANCH   1  12
ATOM     12  C   UNL     1      -1.434  -0.533  -0.002  0.00  0.00    +0.129 C 
BRANCH  12  14
ATOM     13  C   UNL     1      -0.020   1.526  -0.018  0.00  0.00    +0.008 C 
ATOM     14  C   UNL     1       0.001  -0.004  -0.014  0.00  0.00    +0.001 C 
ATOM     15  C   UNL     1       0.739  -0.500   1.230  0.00  0.00    +0.008 C 
ENDBRANCH  12  14
BRANCH  12  16
ATOM     16  C   UNL     1      -2.161  -0.044  -1.228  0.00  0.00    +0.058 C 
ATOM     17  S   UNL     1      -3.472   0.858  -1.074  0.00  0.00    -0.040 S 
BRANCH  16  18
ATOM     18  N   UNL     1      -1.705  -0.366  -2.455  0.00  0.00    -0.355 N 
ATOM     19  H   UNL     1      -0.909  -0.913  -2.549  0.00  0.00    +0.143 HD
ATOM     20  H   UNL     1      -2.173  -0.051  -3.244  0.00  0.00    +0.143 HD
ENDBRANCH  16  18
ENDBRANCH  12  16
ENDBRANCH   1  12
TORSDOF 5
