REMARK  Name = ZINC08683115
REMARK  5 active torsions:
REMARK  status: ('A' for Active; 'I' for Inactive)
REMARK    1  A    between atoms: C_1  and  C_2
REMARK    2  A    between atoms: C_3  and  C_12
REMARK    3  A    between atoms: N_13  and  N_14
REMARK    4  A    between atoms: C_15  and  C_17
REMARK    5  A    between atoms: C_19  and  C_23
REMARK                            x       y       z     vdW  Elec       q    Type
REMARK                         _______ _______ _______ _____ _____    ______ ____
ROOT
ATOM      1  N   UNL     1      -0.035   1.401  -4.100  0.00  0.00    -0.202 N 
ATOM      2  C   UNL     1      -0.054   2.721  -4.370  0.00  0.00    +0.283 C 
ATOM      3  O   UNL     1      -0.060   3.527  -3.459  0.00  0.00    -0.267 OA
ATOM      4  H   UNL     1      -0.030   0.757  -4.826  0.00  0.00    +0.178 HD
ENDROOT
BRANCH   2   5
ATOM      5  C   UNL     1      -0.067   3.188  -5.771  0.00  0.00    +0.149 A 
ATOM      6  C   UNL     1      -0.081   4.532  -6.204  0.00  0.00    +0.063 A 
ATOM      7  C   UNL     1      -0.089   4.473  -7.572  0.00  0.00    +0.073 A 
ATOM      8  N   UNL     1      -0.079   3.150  -7.909  0.00  0.00    -0.276 N 
ATOM      9  H   UNL     1      -0.082   2.807  -8.816  0.00  0.00    +0.189 HD
ATOM     10  N   UNL     1      -0.061   2.427  -6.848  0.00  0.00    -0.169 NA
BRANCH   7  11
ATOM     11  C   UNL     1      -0.104   5.617  -8.501  0.00  0.00    +0.037 A 
ATOM     12  C   UNL     1      -0.118   5.617  -9.872  0.00  0.00    +0.017 A 
ATOM     13  C   UNL     1      -0.131   6.825 -10.533  0.00  0.00    +0.008 A 
ATOM     14  C   UNL     1      -0.130   7.975  -9.811  0.00  0.00    +0.046 A 
ATOM     15  S   UNL     1      -0.117   7.364  -8.134  0.00  0.00    -0.095 S 
ENDBRANCH   7  11
ENDBRANCH   2   5
BRANCH   1  17
ATOM     16  C   UNL     1      -0.005  -0.316  -2.511  0.00  0.00    +0.140 C 
ATOM     17  N   UNL     1      -0.023   0.957  -2.771  0.00  0.00    -0.187 NA
BRANCH  16  20
ATOM     18  C   UNL     1      -0.018   1.503   0.010  0.00  0.00    +0.064 C 
ATOM     19  C   UNL     1       0.002  -0.004   0.002  0.00  0.00    +0.023 A 
ATOM     20  C   UNL     1       0.007  -0.781  -1.115  0.00  0.00    +0.023 A 
ATOM     21  C   UNL     1       0.029  -2.180  -0.653  0.00  0.00    +0.009 A 
ATOM     22  C   UNL     1       0.042  -3.413  -1.303  0.00  0.00    +0.010 A 
ATOM     23  C   UNL     1       0.061  -4.574  -0.563  0.00  0.00    +0.001 A 
ATOM     24  C   UNL     1       0.067  -4.521   0.824  0.00  0.00    +0.002 A 
ATOM     25  C   UNL     1       0.053  -3.310   1.480  0.00  0.00    +0.026 A 
ATOM     26  C   UNL     1       0.034  -2.125   0.751  0.00  0.00    +0.047 A 
ATOM     27  N   UNL     1       0.024  -0.795   1.112  0.00  0.00    -0.358 N 
ATOM     28  H   UNL     1       0.029  -0.468   2.025  0.00  0.00    +0.166 HD
ENDBRANCH  16  20
ENDBRANCH   1  17
TORSDOF 4
