REMARK  Name = ZINC03052326
REMARK  10 active torsions:
REMARK  status: ('A' for Active; 'I' for Inactive)
REMARK    1  A    between atoms: C_1  and  C_2
REMARK    2  A    between atoms: C_2  and  C_3
REMARK    3  A    between atoms: C_3  and  C_4
REMARK    4  A    between atoms: C_4  and  C_5
REMARK    5  A    between atoms: C_5  and  N_6
REMARK    6  A    between atoms: C_12  and  C_26
REMARK    7  A    between atoms: C_16  and  S_17
REMARK    8  A    between atoms: S_17  and  C_18
REMARK    9  A    between atoms: C_18  and  C_19
REMARK   10  A    between atoms: C_31  and  C_34
REMARK                            x       y       z     vdW  Elec       q    Type
REMARK                         _______ _______ _______ _____ _____    ______ ____
ROOT
ATOM      1  N   UNL     1       0.296   0.512   2.037  0.00  0.00    -0.287 N 
ATOM      2  C   UNL     1      -0.409  -0.047   3.047  0.00  0.00    +0.262 A 
ATOM      3  O   UNL     1      -1.616  -0.182   2.974  0.00  0.00    -0.267 OA
ATOM      4  C   UNL     1       0.337  -0.490   4.235  0.00  0.00    +0.065 A 
ATOM      5  C   UNL     1      -0.303  -1.081   5.324  0.00  0.00    +0.016 A 
ATOM      6  C   UNL     1       0.425  -1.474   6.410  0.00  0.00    +0.014 A 
ATOM      7  C   UNL     1       1.813  -1.289   6.443  0.00  0.00    +0.039 A 
ATOM      8  C   UNL     1       2.471  -0.702   5.371  0.00  0.00    +0.041 A 
ATOM      9  C   UNL     1       1.737  -0.296   4.253  0.00  0.00    +0.080 A 
ATOM     10  N   UNL     1       2.337   0.280   3.185  0.00  0.00    -0.223 NA
ATOM     11  C   UNL     1       1.650   0.662   2.136  0.00  0.00    +0.172 A 
ENDROOT
BRANCH   7  12
ATOM     12  C   UNL     1       2.584  -1.722   7.631  0.00  0.00    +0.247 C 
ATOM     13  O   UNL     1       3.532  -1.064   8.013  0.00  0.00    -0.270 OA
ATOM     14  N   UNL     1       2.235  -2.846   8.288  0.00  0.00    -0.297 N 
ATOM     15  C   UNL     1       2.911  -3.224   9.536  0.00  0.00    +0.109 C 
ATOM     16  C   UNL     1       3.435  -4.653   9.405  0.00  0.00    +0.032 C 
ATOM     17  C   UNL     1       2.285  -5.581   9.007  0.00  0.00    +0.078 C 
ATOM     18  C   UNL     1       1.721  -5.145   7.653  0.00  0.00    +0.032 C 
ATOM     19  C   UNL     1       1.174  -3.719   7.767  0.00  0.00    +0.109 C 
BRANCH  17  20
ATOM     20  C   UNL     1       2.794  -6.996   8.907  0.00  0.00    +0.214 C 
ATOM     21  O   UNL     1       2.713  -7.596   7.856  0.00  0.00    -0.276 OA
ATOM     22  N   UNL     1       3.338  -7.594   9.985  0.00  0.00    -0.329 N 
ATOM     23  H   UNL     1       3.403  -7.114  10.825  0.00  0.00    +0.145 HD
ATOM     24  H   UNL     1       3.666  -8.505   9.921  0.00  0.00    +0.145 HD
ENDBRANCH  17  20
ENDBRANCH   7  12
BRANCH   1  25
ATOM     25  C   UNL     1      -0.399   0.966   0.830  0.00  0.00    +0.127 C 
BRANCH  25  26
ATOM     26  C   UNL     1      -0.453  -0.175  -0.187  0.00  0.00    +0.022 C 
BRANCH  26  27
ATOM     27  C   UNL     1      -1.179   0.299  -1.448  0.00  0.00    +0.001 C 
BRANCH  27  29
ATOM     28  C   UNL     1      -1.958  -0.369  -3.726  0.00  0.00    +0.004 C 
ATOM     29  C   UNL     1      -1.233  -0.843  -2.465  0.00  0.00    -0.003 C 
ENDBRANCH  27  29
ENDBRANCH  26  27
ENDBRANCH  25  26
ENDBRANCH   1  25
BRANCH  11  30
ATOM     30  S   UNL     1       2.514   1.403   0.791  0.00  0.00    -0.083 S 
BRANCH  30  31
ATOM     31  C   UNL     1       4.204   1.352   1.436  0.00  0.00    +0.112 C 
BRANCH  31  32
ATOM     32  C   UNL     1       5.146   1.951   0.424  0.00  0.00    -0.037 A 
ATOM     33  C   UNL     1       5.739   1.146  -0.530  0.00  0.00    +0.006 A 
ATOM     34  C   UNL     1       6.599   1.696  -1.462  0.00  0.00    +0.020 A 
ATOM     35  C   UNL     1       6.876   3.051  -1.432  0.00  0.00    +0.041 A 
ATOM     36  C   UNL     1       6.287   3.856  -0.472  0.00  0.00    +0.020 A 
ATOM     37  C   UNL     1       5.423   3.305   0.455  0.00  0.00    +0.006 A 
ATOM     38 CL   UNL     1       7.961   3.742  -2.598  0.00  0.00    -0.084 Cl
ENDBRANCH  31  32
ENDBRANCH  30  31
ENDBRANCH  11  30
TORSDOF 9
