REMARK  Name = ZINC00844526
REMARK  8 active torsions:
REMARK  status: ('A' for Active; 'I' for Inactive)
REMARK    1  A    between atoms: C_1  and  C_2
REMARK    2  A    between atoms: C_3  and  C_32
REMARK    3  A    between atoms: C_4  and  C_22
REMARK    4  A    between atoms: C_10  and  C_15
REMARK    5  A    between atoms: C_24  and  O_30
REMARK    6  A    between atoms: C_27  and  O_28
REMARK    7  A    between atoms: O_28  and  C_29
REMARK    8  A    between atoms: O_30  and  C_31
REMARK                            x       y       z     vdW  Elec       q    Type
REMARK                         _______ _______ _______ _____ _____    ______ ____
ROOT
ATOM      1  C   UNL     1      -0.018   1.503   0.010  0.00  0.00    +0.061 C 
ATOM      2  C   UNL     1       0.002  -0.004   0.002  0.00  0.00    +0.019 C 
ATOM      3  C   UNL     1      -1.153  -0.686   0.004  0.00  0.00    +0.058 C 
ATOM      4  C   UNL     1      -1.173  -2.187  -0.010  0.00  0.00    +0.099 C 
ATOM      5  C   UNL     1       0.165  -2.749   0.402  0.00  0.00    +0.025 C 
ATOM      6  C   UNL     1       1.274  -1.979   0.378  0.00  0.00    +0.016 C 
ATOM      7  N   UNL     1       1.201  -0.669  -0.013  0.00  0.00    -0.320 N 
ATOM      8  C   UNL     1       2.618  -2.541   0.770  0.00  0.00    +0.059 C 
ATOM      9  C   UNL     1       2.430  -3.633   1.825  0.00  0.00    +0.032 C 
ATOM     10  C   UNL     1       1.520  -4.720   1.244  0.00  0.00    +0.088 C 
ATOM     11  C   UNL     1       0.223  -4.092   0.811  0.00  0.00    +0.162 C 
ATOM     12  O   UNL     1      -0.793  -4.759   0.814  0.00  0.00    -0.292 OA
ATOM     13  H   UNL     1       2.004  -0.206  -0.300  0.00  0.00    +0.152 HD
ENDROOT
BRANCH   9  14
ATOM     14  C   UNL     1       3.768  -4.227   2.184  0.00  0.00    -0.043 A 
ATOM     15  C   UNL     1       4.540  -4.830   1.208  0.00  0.00    +0.005 A 
ATOM     16  C   UNL     1       5.767  -5.375   1.536  0.00  0.00    +0.020 A 
ATOM     17  C   UNL     1       6.223  -5.315   2.841  0.00  0.00    +0.041 A 
ATOM     18  C   UNL     1       5.451  -4.711   3.817  0.00  0.00    +0.020 A 
ATOM     19  C   UNL     1       4.226  -4.162   3.486  0.00  0.00    +0.005 A 
ATOM     20 CL   UNL     1       7.765  -5.999   3.254  0.00  0.00    -0.084 Cl
ENDBRANCH   9  14
BRANCH   4  21
ATOM     21  C   UNL     1      -1.502  -2.665  -1.400  0.00  0.00    +0.010 A 
ATOM     22  C   UNL     1      -0.679  -2.332  -2.458  0.00  0.00    +0.053 A 
ATOM     23  C   UNL     1      -0.982  -2.772  -3.738  0.00  0.00    +0.121 A 
ATOM     24  C   UNL     1      -2.112  -3.547  -3.955  0.00  0.00    +0.049 A 
ATOM     25  C   UNL     1      -2.936  -3.879  -2.897  0.00  0.00    +0.049 A 
ATOM     26  C   UNL     1      -2.629  -3.443  -1.617  0.00  0.00    +0.124 A 
BRANCH  26  27
ATOM     27  O   UNL     1      -3.437  -3.775  -0.574  0.00  0.00    -0.495 OA
ATOM     28  C   UNL     1      -4.580  -4.580  -0.870  0.00  0.00    +0.277 C 
ENDBRANCH  26  27
BRANCH  23  29
ATOM     29  O   UNL     1      -0.172  -2.445  -4.780  0.00  0.00    -0.495 OA
ATOM     30  C   UNL     1      -0.545  -2.932  -6.070  0.00  0.00    +0.277 C 
ENDBRANCH  23  29
ENDBRANCH   4  21
BRANCH   3  31
ATOM     31  C   UNL     1      -2.393   0.031   0.019  0.00  0.00    +0.097 C 
ATOM     32  N   UNL     1      -3.375   0.601   0.032  0.00  0.00    -0.191 NA
ENDBRANCH   3  31
TORSDOF 5
