REMARK  Name = ZINC13615555
REMARK  2 active torsions:
REMARK  status: ('A' for Active; 'I' for Inactive)
REMARK    1  A    between atoms: C_9  and  C_18
REMARK    2  A    between atoms: C_21  and  N_24
REMARK                            x       y       z     vdW  Elec       q    Type
REMARK                         _______ _______ _______ _____ _____    ______ ____
ROOT
ATOM      1  C   UNL     1       1.690   6.827   0.318  0.00  0.00    +0.001 A 
ATOM      2  C   UNL     1       1.843   5.783   1.212  0.00  0.00    +0.006 A 
ATOM      3  C   UNL     1       2.444   4.607   0.819  0.00  0.00    -0.018 A 
ATOM      4  C   UNL     1       2.918   4.455  -0.487  0.00  0.00    +0.045 A 
ATOM      5  C   UNL     1       2.749   5.515  -1.381  0.00  0.00    +0.034 A 
ATOM      6  C   UNL     1       2.142   6.686  -0.981  0.00  0.00    +0.016 A 
ATOM      7  I   UNL     1       3.426   5.323  -3.354  0.00  0.00    -0.042 I 
ATOM      8  N   UNL     1       3.574   3.318  -0.954  0.00  0.00    -0.336 N 
ATOM      9  C   UNL     1       3.672   2.182  -0.023  0.00  0.00    +0.105 C 
ATOM     10  C   UNL     1       3.940   2.756   1.353  0.00  0.00    +0.029 C 
ATOM     11  C   UNL     1       2.609   3.468   1.749  0.00  0.00    +0.049 C 
ATOM     12  C   UNL     1       2.746   3.646   3.215  0.00  0.00    -0.023 C 
ATOM     13  C   UNL     1       3.523   2.677   3.687  0.00  0.00    -0.030 C 
ATOM     14  C   UNL     1       4.001   1.785   2.538  0.00  0.00    +0.033 C 
ATOM     15  H   UNL     1       4.478   3.552  -1.335  0.00  0.00    +0.147 HD
ENDROOT
BRANCH   9  16
ATOM     16  C   UNL     1       2.377   1.411  -0.015  0.00  0.00    -0.027 A 
ATOM     17  C   UNL     1       2.366   0.083   0.369  0.00  0.00    +0.008 A 
ATOM     18  C   UNL     1       1.179  -0.625   0.377  0.00  0.00    +0.033 A 
ATOM     19  C   UNL     1       0.002  -0.004  -0.001  0.00  0.00    +0.126 A 
ATOM     20  C   UNL     1       0.014   1.323  -0.386  0.00  0.00    +0.033 A 
ATOM     21  C   UNL     1       1.201   2.031  -0.393  0.00  0.00    +0.008 A 
BRANCH  19  22
ATOM     22  N   UNL     1      -1.269  -0.762   0.007  0.00  0.00    +0.056 N 
ATOM     23  O   UNL     1      -1.279  -1.932   0.346  0.00  0.00    -0.126 OA
ATOM     24  O   UNL     1      -2.306  -0.216  -0.326  0.00  0.00    -0.126 OA
ENDBRANCH  19  22
ENDBRANCH   9  16
TORSDOF 2
