REMARK  Name = ZINC45638166
REMARK  10 active torsions:
REMARK  status: ('A' for Active; 'I' for Inactive)
REMARK    1  A    between atoms: C_1  and  C_2
REMARK    2  A    between atoms: C_11  and  N_31
REMARK    3  A    between atoms: C_13  and  S_15
REMARK    4  A    between atoms: S_15  and  C_16
REMARK    5  A    between atoms: C_16  and  C_17
REMARK    6  A    between atoms: N_19  and  C_20
REMARK    7  A    between atoms: C_23  and  O_28
REMARK    8  A    between atoms: C_25  and  O_26
REMARK    9  A    between atoms: O_26  and  C_27
REMARK   10  A    between atoms: O_28  and  C_29
REMARK                            x       y       z     vdW  Elec       q    Type
REMARK                         _______ _______ _______ _____ _____    ______ ____
ROOT
ATOM      1  C   UNL     1      -0.231   2.061  -0.120  0.00  0.00    +0.008 C 
ATOM      2  C   UNL     1      -0.148   0.533  -0.082  0.00  0.00    -0.009 C 
ATOM      3  C   UNL     1      -1.561  -0.057  -0.038  0.00  0.00    +0.008 C 
ATOM      4  C   UNL     1      -1.498  -1.570  -0.248  0.00  0.00    +0.037 C 
ATOM      5  C   UNL     1      -0.508  -2.166   0.750  0.00  0.00    -0.025 A 
ATOM      6  C   UNL     1       0.411  -1.383   1.358  0.00  0.00    -0.004 A 
ATOM      7  S   UNL     1       1.331  -2.475   2.413  0.00  0.00    -0.073 S 
ATOM      8  C   UNL     1       0.485  -3.978   2.041  0.00  0.00    +0.115 A 
ATOM      9  C   UNL     1      -0.496  -3.579   1.098  0.00  0.00    +0.051 A 
ATOM     10  C   UNL     1      -1.359  -4.594   0.595  0.00  0.00    +0.129 A 
ATOM     11  N   UNL     1      -1.153  -5.821   1.067  0.00  0.00    -0.207 NA
ATOM     12  C   UNL     1      -0.213  -6.124   1.950  0.00  0.00    +0.191 A 
ATOM     13  N   UNL     1       0.626  -5.220   2.460  0.00  0.00    -0.214 NA
ATOM     14  C   UNL     1       0.612   0.090   1.177  0.00  0.00    +0.046 C 
ENDROOT
BRANCH  10  15
ATOM     15  N   UNL     1      -2.352  -4.321  -0.329  0.00  0.00    -0.343 N 
ATOM     16  H   UNL     1      -2.275  -3.549  -0.910  0.00  0.00    +0.144 HD
ATOM     17  H   UNL     1      -3.126  -4.903  -0.395  0.00  0.00    +0.144 HD
ENDBRANCH  10  15
BRANCH  12  18
ATOM     18  S   UNL     1      -0.065  -7.799   2.479  0.00  0.00    -0.077 S 
BRANCH  18  19
ATOM     19  C   UNL     1      -1.368  -8.665   1.560  0.00  0.00    +0.173 C 
BRANCH  19  20
ATOM     20  C   UNL     1      -1.351 -10.127   1.924  0.00  0.00    +0.228 C 
ATOM     21  O   UNL     1      -0.541 -10.544   2.725  0.00  0.00    -0.275 OA
ATOM     22  N   UNL     1      -2.238 -10.972   1.361  0.00  0.00    -0.282 N 
ATOM     23  H   UNL     1      -2.830 -10.657   0.660  0.00  0.00    +0.155 HD
BRANCH  22  24
ATOM     24  C   UNL     1      -2.303 -12.307   1.788  0.00  0.00    +0.077 A 
ATOM     25  C   UNL     1      -2.059 -12.624   3.116  0.00  0.00    +0.050 A 
ATOM     26  C   UNL     1      -2.123 -13.940   3.536  0.00  0.00    +0.084 A 
ATOM     27  C   UNL     1      -2.432 -14.945   2.630  0.00  0.00    +0.142 A 
ATOM     28  C   UNL     1      -2.677 -14.633   1.302  0.00  0.00    +0.094 A 
ATOM     29  C   UNL     1      -2.619 -13.315   0.879  0.00  0.00    +0.145 A 
ATOM     30 CL   UNL     1      -1.816 -14.335   5.199  0.00  0.00    -0.080 Cl
BRANCH  29  31
ATOM     31  O   UNL     1      -2.864 -13.005  -0.422  0.00  0.00    -0.493 OA
ATOM     32  C   UNL     1      -3.182 -14.089  -1.298  0.00  0.00    +0.277 C 
ENDBRANCH  29  31
BRANCH  27  33
ATOM     33  O   UNL     1      -2.494 -16.239   3.046  0.00  0.00    -0.494 OA
ATOM     34  C   UNL     1      -2.817 -17.222   2.061  0.00  0.00    +0.277 C 
ENDBRANCH  27  33
ENDBRANCH  22  24
ENDBRANCH  19  20
ENDBRANCH  18  19
ENDBRANCH  12  18
TORSDOF 7
