REMARK  Name = ZINC43404853
REMARK  2 active torsions:
REMARK  status: ('A' for Active; 'I' for Inactive)
REMARK    1  A    between atoms: C_6  and  C_7
REMARK    2  A    between atoms: C_13  and  C_16
REMARK                            x       y       z     vdW  Elec       q    Type
REMARK                         _______ _______ _______ _____ _____    ______ ____
ROOT
ATOM      1  C   UNL     1       0.076   1.540   0.036  0.00  0.00    +0.022 A 
ATOM      2  C   UNL     1       1.359   2.063   0.025  0.00  0.00    -0.025 A 
ATOM      3  C   UNL     1       2.446   1.209  -0.016  0.00  0.00    +0.047 A 
ATOM      4  N   UNL     1       2.273  -0.103  -0.046  0.00  0.00    -0.236 NA
ATOM      5  C   UNL     1       1.071  -0.654  -0.038  0.00  0.00    +0.134 A 
ATOM      6  C   UNL     1      -0.080   0.151   0.003  0.00  0.00    +0.077 A 
ATOM      7  N   UNL     1       0.947  -2.031  -0.072  0.00  0.00    -0.315 N 
ATOM      8  C   UNL     1       0.763  -2.736  -1.348  0.00  0.00    +0.107 C 
ATOM      9  C   UNL     1       1.832  -3.826  -1.468  0.00  0.00    +0.034 C 
ATOM     10  C   UNL     1       1.773  -4.731  -0.236  0.00  0.00    +0.105 C 
ATOM     11  C   UNL     1       2.063  -3.907   1.020  0.00  0.00    +0.034 C 
ATOM     12  C   UNL     1       1.002  -2.818   1.168  0.00  0.00    +0.107 C 
ATOM     13  C   UNL     1       3.727   2.019  -0.018  0.00  0.00    +0.056 C 
ATOM     14  C   UNL     1       3.302   3.448  -0.416  0.00  0.00    +0.011 C 
ATOM     15  C   UNL     1       1.832   3.500   0.053  0.00  0.00    +0.037 C 
ENDROOT
BRANCH   6  16
ATOM     16  C   UNL     1      -1.423  -0.457   0.013  0.00  0.00    +0.245 C 
ATOM     17  O   UNL     1      -1.544  -1.664   0.087  0.00  0.00    -0.270 OA
ATOM     18  N   UNL     1      -2.517   0.327  -0.061  0.00  0.00    -0.325 N 
ATOM     19  H   UNL     1      -2.421   1.290  -0.120  0.00  0.00    +0.145 HD
ATOM     20  H   UNL     1      -3.401  -0.073  -0.055  0.00  0.00    +0.145 HD
ENDBRANCH   6  16
BRANCH  10  21
ATOM     21  C   UNL     1       2.801  -5.825  -0.367  0.00  0.00    +0.359 C 
ATOM     22  O   UNL     1       3.315  -6.301   0.631  0.00  0.00    -0.246 OA
ATOM     23  O   UNL     1       3.119  -6.234  -1.470  0.00  0.00    -0.246 OA
ENDBRANCH  10  21
TORSDOF 2
