REMARK  Name = ZINC05472514
REMARK  11 active torsions:
REMARK  status: ('A' for Active; 'I' for Inactive)
REMARK    1  A    between atoms: C_1  and  C_2
REMARK    2  A    between atoms: C_2  and  O_3
REMARK    3  A    between atoms: O_3  and  C_4
REMARK    4  A    between atoms: C_4  and  C_6
REMARK    5  A    between atoms: C_7  and  C_26
REMARK    6  A    between atoms: C_9  and  N_25
REMARK    7  A    between atoms: C_10  and  C_23
REMARK    8  A    between atoms: C_11  and  C_13
REMARK    9  A    between atoms: C_18  and  C_19
REMARK   10  A    between atoms: C_26  and  O_27
REMARK   11  A    between atoms: O_27  and  C_28
REMARK                            x       y       z     vdW  Elec       q    Type
REMARK                         _______ _______ _______ _____ _____    ______ ____
ROOT
ATOM      1  C   UNL     1      -0.692   1.695   3.588  0.00  0.00    +0.089 C 
ATOM      2  C   UNL     1      -0.294   1.155   4.747  0.00  0.00    +0.144 C 
ATOM      3  O   UNL     1      -0.898   1.433   5.911  0.00  0.00    -0.443 OA
ATOM      4  C   UNL     1      -2.142   1.943   5.902  0.00  0.00    +0.198 C 
ATOM      5  C   UNL     1      -2.663   2.535   4.801  0.00  0.00    +0.098 C 
ATOM      6  C   UNL     1      -1.860   2.643   3.533  0.00  0.00    +0.105 C 
ENDROOT
BRANCH   6   7
ATOM      7  C   UNL     1      -1.353   4.053   3.378  0.00  0.00    -0.023 A 
ATOM      8  C   UNL     1      -0.529   4.602   4.343  0.00  0.00    +0.005 A 
ATOM      9  C   UNL     1      -0.061   5.894   4.199  0.00  0.00    +0.000 A 
ATOM     10  C   UNL     1      -0.425   6.642   3.095  0.00  0.00    +0.001 A 
ATOM     11  C   UNL     1      -1.253   6.096   2.132  0.00  0.00    +0.012 A 
ATOM     12  C   UNL     1      -1.718   4.801   2.274  0.00  0.00    +0.059 A 
BRANCH  12  13
ATOM     13  C   UNL     1      -2.621   4.206   1.225  0.00  0.00    +0.418 C 
ATOM     14  F   UNL     1      -2.845   5.147   0.215  0.00  0.00    -0.166 F 
ATOM     15  F   UNL     1      -2.015   3.070   0.678  0.00  0.00    -0.166 F 
ATOM     16  F   UNL     1      -3.841   3.849   1.809  0.00  0.00    -0.166 F 
ENDBRANCH  12  13
ENDBRANCH   6   7
BRANCH   4  17
ATOM     17  N   UNL     1      -2.905   1.861   7.040  0.00  0.00    -0.328 N 
ATOM     18  H   UNL     1      -3.804   2.224   7.048  0.00  0.00    +0.145 HD
ATOM     19  H   UNL     1      -2.545   1.439   7.836  0.00  0.00    +0.145 HD
ENDBRANCH   4  17
BRANCH   1  20
ATOM     20  C   UNL     1      -0.006   1.365   2.393  0.00  0.00    +0.339 C 
ATOM     21  O   UNL     1      -0.475   0.540   1.631  0.00  0.00    -0.245 OA
BRANCH  20  22
ATOM     22  O   UNL     1       1.166   1.964   2.101  0.00  0.00    -0.462 OA
BRANCH  22  24
ATOM     23  C   UNL     1       3.110   2.362   0.721  0.00  0.00    +0.048 C 
ATOM     24  C   UNL     1       1.803   1.583   0.880  0.00  0.00    +0.229 C 
ENDBRANCH  22  24
ENDBRANCH  20  22
ENDBRANCH   1  20
BRANCH   5  25
ATOM     25  C   UNL     1      -3.993   3.065   4.844  0.00  0.00    +0.101 C 
ATOM     26  N   UNL     1      -5.048   3.485   4.878  0.00  0.00    -0.191 NA
ENDBRANCH   5  25
BRANCH   2  27
ATOM     27  C   UNL     1       0.876   0.206   4.742  0.00  0.00    +0.234 C 
BRANCH  27  28
ATOM     28  O   UNL     1       1.962   0.785   5.468  0.00  0.00    -0.375 OA
ATOM     29  C   UNL     1       3.128  -0.038   5.525  0.00  0.00    +0.194 C 
ENDBRANCH  27  28
ENDBRANCH   2  27
TORSDOF 9
