REMARK  Name = ZINC31055092
REMARK  7 active torsions:
REMARK  status: ('A' for Active; 'I' for Inactive)
REMARK    1  A    between atoms: C_1  and  C_2
REMARK    2  A    between atoms: C_5  and  N_32
REMARK    3  A    between atoms: C_7  and  N_8
REMARK    4  A    between atoms: C_9  and  C_11
REMARK    5  A    between atoms: N_16  and  C_18
REMARK    6  A    between atoms: C_18  and  C_19
REMARK    7  A    between atoms: C_21  and  C_24
REMARK                            x       y       z     vdW  Elec       q    Type
REMARK                         _______ _______ _______ _____ _____    ______ ____
ROOT
ATOM      1  C   UNL     1       2.279   7.039  -2.869  0.00  0.00    +0.059 C 
ATOM      2  C   UNL     1       3.165   6.061  -3.645  0.00  0.00    +0.009 C 
ATOM      3  C   UNL     1       2.571   4.654  -3.542  0.00  0.00    -0.018 C 
ATOM      4  C   UNL     1       2.453   4.261  -2.068  0.00  0.00    -0.078 C 
ATOM      5  N   UNL     1       1.595   5.227  -1.370  0.00  0.00    +0.386 N 
ATOM      6  C   UNL     1       2.169   6.577  -1.414  0.00  0.00    -0.065 C 
ATOM      7  H   UNL     1       0.628   5.256  -1.894  0.00  0.00    -0.081 HD
ENDROOT
BRANCH   1   9
ATOM      8  N   UNL     1       3.082   9.028  -4.101  0.00  0.00    -0.285 N 
ATOM      9  C   UNL     1       2.888   8.416  -2.916  0.00  0.00    +0.219 C 
ATOM     10  O   UNL     1       3.204   8.975  -1.886  0.00  0.00    -0.275 OA
ATOM     11  H   UNL     1       2.880   8.488  -5.038  0.00  0.00    +0.155 HD
BRANCH   8  18
ATOM     12  C   UNL     1       4.454   9.908  -6.434  0.00  0.00    +0.045 C 
ATOM     13  C   UNL     1       4.214  10.820  -5.258  0.00  0.00    -0.029 A 
ATOM     14  C   UNL     1       4.664  12.126  -5.294  0.00  0.00    +0.007 A 
ATOM     15  C   UNL     1       4.444  12.963  -4.216  0.00  0.00    +0.033 A 
ATOM     16  C   UNL     1       3.772  12.498  -3.100  0.00  0.00    +0.128 A 
ATOM     17  C   UNL     1       3.315  11.196  -3.061  0.00  0.00    +0.056 A 
ATOM     18  C   UNL     1       3.539  10.350  -4.140  0.00  0.00    +0.038 A 
BRANCH  16  19
ATOM     19  N   UNL     1       3.539  13.399  -1.949  0.00  0.00    +0.056 N 
ATOM     20  O   UNL     1       3.938  14.549  -1.985  0.00  0.00    -0.126 OA
ATOM     21  O   UNL     1       2.947  12.990  -0.966  0.00  0.00    -0.126 OA
ENDBRANCH  16  19
ENDBRANCH   8  18
ENDBRANCH   1   9
BRANCH   5  22
ATOM     22  C   UNL     1       1.347   4.805   0.015  0.00  0.00    +0.022 C 
BRANCH  22  23
ATOM     23  C   UNL     1       0.539   3.533   0.017  0.00  0.00    +0.211 A 
ATOM     24  N   UNL     1       1.012   2.312   0.005  0.00  0.00    -0.193 NA
ATOM     25  C   UNL     1      -0.071   1.503   0.012  0.00  0.00    +0.203 A 
ATOM     26  N   UNL     1      -1.128   2.273   0.022  0.00  0.00    -0.056 NA
ATOM     27  O   UNL     1      -0.794   3.439   0.030  0.00  0.00    -0.340 OA
BRANCH  25  28
ATOM     28  C   UNL     1      -0.063   0.019   0.003  0.00  0.00    +0.041 A 
ATOM     29  C   UNL     1       1.146  -0.673  -0.020  0.00  0.00    +0.014 A 
ATOM     30  C   UNL     1       1.149  -2.053  -0.022  0.00  0.00    +0.021 A 
ATOM     31  C   UNL     1      -0.047  -2.751  -0.013  0.00  0.00    +0.042 A 
ATOM     32  C   UNL     1      -1.251  -2.069   0.004  0.00  0.00    +0.040 A 
ATOM     33  C   UNL     1      -1.265  -0.688   0.012  0.00  0.00    +0.053 A 
ATOM     34 CL   UNL     1      -2.776   0.167   0.033  0.00  0.00    -0.083 Cl
ATOM     35 CL   UNL     1      -0.036  -4.487  -0.023  0.00  0.00    -0.083 Cl
ENDBRANCH  25  28
ENDBRANCH  22  23
ENDBRANCH   5  22
TORSDOF 6
