REMARK  Name = ZINC21237570
REMARK  9 active torsions:
REMARK  status: ('A' for Active; 'I' for Inactive)
REMARK    1  A    between atoms: C_1  and  C_2
REMARK    2  A    between atoms: C_2  and  C_3
REMARK    3  A    between atoms: C_3  and  C_4
REMARK    4  A    between atoms: C_4  and  C_28
REMARK    5  A    between atoms: N_7  and  C_11
REMARK    6  A    between atoms: C_11  and  C_12
REMARK    7  A    between atoms: N_14  and  C_15
REMARK    8  A    between atoms: C_15  and  C_16
REMARK    9  A    between atoms: C_19  and  C_21
REMARK                            x       y       z     vdW  Elec       q    Type
REMARK                         _______ _______ _______ _____ _____    ______ ____
ROOT
ATOM      1  C   UNL     1       1.669   7.324  -2.587  0.00  0.00    +0.213 C 
ENDROOT
BRANCH   1   5
ATOM      2  C   UNL     1      -0.070   5.347   0.032  0.00  0.00    +0.138 C 
ATOM      3  C   UNL     1       0.037   5.891  -1.379  0.00  0.00    +0.251 C 
ATOM      4  O   UNL     1      -0.738   5.711  -2.294  0.00  0.00    -0.272 OA
ATOM      5  N   UNL     1       1.173   6.614  -1.405  0.00  0.00    -0.215 N 
ATOM      6  C   UNL     1       1.792   6.604  -0.219  0.00  0.00    +0.310 C 
ATOM      7  O   UNL     1       2.836   7.186   0.003  0.00  0.00    -0.252 OA
ATOM      8  N   UNL     1       1.131   5.878   0.700  0.00  0.00    -0.281 N 
ATOM      9  H   UNL     1       1.322   5.641   1.757  0.00  0.00    +0.152 HD
BRANCH   2  10
ATOM     10  C   UNL     1      -0.050   3.840   0.023  0.00  0.00    -0.015 A 
ATOM     11  C   UNL     1       1.156   3.165   0.008  0.00  0.00    +0.006 A 
ATOM     12  C   UNL     1       1.175   1.783   0.000  0.00  0.00    +0.000 A 
ATOM     13  C   UNL     1      -0.013   1.076   0.008  0.00  0.00    +0.000 A 
ATOM     14  C   UNL     1      -1.219   1.751   0.017  0.00  0.00    +0.000 A 
ATOM     15  C   UNL     1      -1.238   3.133   0.029  0.00  0.00    +0.006 A 
ENDBRANCH   2  10
BRANCH   2  16
ATOM     16  C   UNL     1      -1.338   5.862   0.716  0.00  0.00    +0.040 C 
BRANCH  16  18
ATOM     17  C   UNL     1      -2.602   7.908   1.396  0.00  0.00    +0.004 C 
ATOM     18  C   UNL     1      -1.334   7.392   0.712  0.00  0.00    -0.000 C 
ENDBRANCH  16  18
ENDBRANCH   2  16
ENDBRANCH   1   5
BRANCH   1  19
ATOM     19  C   UNL     1       2.567   6.411  -3.381  0.00  0.00    +0.231 C 
ATOM     20  O   UNL     1       2.772   5.279  -2.998  0.00  0.00    -0.274 OA
ATOM     21  N   UNL     1       3.142   6.853  -4.517  0.00  0.00    -0.307 N 
ATOM     22  H   UNL     1       2.956   7.880  -4.865  0.00  0.00    +0.149 HD
BRANCH  21  23
ATOM     23  C   UNL     1       4.014   5.965  -5.290  0.00  0.00    +0.178 C 
BRANCH  23  24
ATOM     24  C   UNL     1       4.525   6.696  -6.505  0.00  0.00    +0.123 A 
ATOM     25  C   UNL     1       5.652   7.431  -6.564  0.00  0.00    +0.047 A 
ATOM     26  C   UNL     1       5.752   7.930  -7.878  0.00  0.00    +0.050 A 
ATOM     27  C   UNL     1       4.664   7.474  -8.553  0.00  0.00    +0.135 A 
ATOM     28  O   UNL     1       3.929   6.726  -7.708  0.00  0.00    -0.458 OA
BRANCH  27  29
ATOM     29  C   UNL     1       4.343   7.751  -9.969  0.00  0.00    +0.017 A 
ATOM     30  C   UNL     1       5.192   8.551 -10.737  0.00  0.00    +0.013 A 
ATOM     31  C   UNL     1       4.889   8.803 -12.059  0.00  0.00    +0.021 A 
ATOM     32  C   UNL     1       3.742   8.271 -12.623  0.00  0.00    +0.041 A 
ATOM     33  C   UNL     1       2.894   7.481 -11.865  0.00  0.00    +0.021 A 
ATOM     34  C   UNL     1       3.188   7.218 -10.543  0.00  0.00    +0.013 A 
ATOM     35 CL   UNL     1       3.365   8.597 -14.285  0.00  0.00    -0.084 Cl
ENDBRANCH  27  29
ENDBRANCH  23  24
ENDBRANCH  21  23
ENDBRANCH   1  19
TORSDOF 8
