REMARK  Name = ZINC39195589
REMARK  8 active torsions:
REMARK  status: ('A' for Active; 'I' for Inactive)
REMARK    1  A    between atoms: C_1  and  C_2
REMARK    2  A    between atoms: C_2  and  C_3
REMARK    3  A    between atoms: C_3  and  C_4
REMARK    4  A    between atoms: C_16  and  C_18
REMARK    5  A    between atoms: C_18  and  C_19
REMARK    6  A    between atoms: C_19  and  C_20
REMARK    7  A    between atoms: C_20  and  C_21
REMARK    8  A    between atoms: C_21  and  C_22
REMARK                            x       y       z     vdW  Elec       q    Type
REMARK                         _______ _______ _______ _____ _____    ______ ____
ROOT
ATOM      1  C   UNL     1      -1.413  -2.063   0.004  0.00  0.00    +0.064 C 
ATOM      2  C   UNL     1      -0.920  -2.545  -1.345  0.00  0.00    +0.134 C 
ATOM      3  N   UNL     1      -2.119  -2.567  -2.222  0.00  0.00    -0.299 N 
ATOM      4  C   UNL     1      -3.307  -2.206  -1.399  0.00  0.00    +0.122 C 
ATOM      5  C   UNL     1      -2.880  -2.588   0.016  0.00  0.00    +0.117 C 
ATOM      6  C   UNL     1      -3.540  -1.909   1.169  0.00  0.00    +0.227 C 
ATOM      7  O   UNL     1      -4.652  -1.431   1.094  0.00  0.00    -0.275 OA
ATOM      8  N   UNL     1      -2.799  -1.866   2.314  0.00  0.00    -0.240 N 
ATOM      9  C   UNL     1      -1.542  -2.351   2.357  0.00  0.00    +0.306 C 
ATOM     10  O   UNL     1      -1.060  -2.647   3.433  0.00  0.00    -0.252 OA
ATOM     11  N   UNL     1      -0.793  -2.534   1.219  0.00  0.00    -0.291 N 
ATOM     12  C   UNL     1      -2.131  -2.862  -3.537  0.00  0.00    +0.216 C 
ATOM     13  O   UNL     1      -1.096  -3.143  -4.104  0.00  0.00    -0.276 OA
ATOM     14  H   UNL     1      -3.185  -1.477   3.114  0.00  0.00    +0.159 HD
ATOM     15  H   UNL     1       0.091  -2.933   1.227  0.00  0.00    +0.151 HD
ENDROOT
BRANCH   1  16
ATOM     16  C   UNL     1      -1.433  -0.534   0.013  0.00  0.00    +0.028 C 
BRANCH  16  18
ATOM     17  C   UNL     1      -0.019   1.526   0.010  0.00  0.00    +0.004 C 
ATOM     18  C   UNL     1       0.002  -0.004   0.002  0.00  0.00    -0.001 C 
ENDBRANCH  16  18
ENDBRANCH   1  16
BRANCH  12  19
ATOM     19  C   UNL     1      -3.429  -2.845  -4.302  0.00  0.00    +0.096 C 
BRANCH  19  20
ATOM     20  C   UNL     1      -3.164  -3.214  -5.763  0.00  0.00    +0.009 C 
BRANCH  20  21
ATOM     21  C   UNL     1      -4.482  -3.196  -6.540  0.00  0.00    +0.002 C 
BRANCH  21  22
ATOM     22  C   UNL     1      -4.218  -3.565  -8.001  0.00  0.00    +0.015 C 
BRANCH  22  23
ATOM     23  C   UNL     1      -5.536  -3.547  -8.778  0.00  0.00    +0.058 C 
ATOM     24  C   UNL     1      -5.300  -4.031 -10.215  0.00  0.00    +0.026 C 
ATOM     25  C   UNL     1      -6.281  -3.507 -11.286  0.00  0.00    +0.082 C 
ATOM     26  S   UNL     1      -6.348  -1.685 -10.949  0.00  0.00    -0.093 S 
ATOM     27  S   UNL     1      -6.185  -1.824  -8.870  0.00  0.00    -0.090 S 
ENDBRANCH  22  23
ENDBRANCH  21  22
ENDBRANCH  20  21
ENDBRANCH  19  20
ENDBRANCH  12  19
TORSDOF 7
