REMARK  Name = ZINC28311039
REMARK  8 active torsions:
REMARK  status: ('A' for Active; 'I' for Inactive)
REMARK    1  A    between atoms: C_1  and  C_2
REMARK    2  A    between atoms: C_7  and  N_8
REMARK    3  A    between atoms: N_10  and  C_29
REMARK    4  A    between atoms: C_13  and  C_16
REMARK    5  A    between atoms: C_16  and  C_17
REMARK    6  A    between atoms: N_19  and  C_20
REMARK    7  A    between atoms: C_23  and  C_26
REMARK    8  A    between atoms: C_26  and  C_28
REMARK                            x       y       z     vdW  Elec       q    Type
REMARK                         _______ _______ _______ _____ _____    ______ ____
ROOT
ATOM      1  N   UNL     1      -0.805  -0.121   2.775  0.00  0.00    -0.226 NA
ATOM      2  C   UNL     1      -0.675  -0.781   3.902  0.00  0.00    +0.164 C 
ATOM      3  N   UNL     1      -0.587  -0.273   5.181  0.00  0.00    -0.247 N 
ATOM      4  C   UNL     1      -0.457  -1.046   6.244  0.00  0.00    +0.235 C 
ATOM      5  O   UNL     1      -0.381  -0.592   7.366  0.00  0.00    -0.274 OA
ATOM      6  C   UNL     1      -0.409  -2.542   5.973  0.00  0.00    +0.149 C 
ATOM      7  S   UNL     1      -0.577  -2.549   4.140  0.00  0.00    -0.077 S 
ENDROOT
BRANCH   1  14
ATOM      8  C   UNL     1      -2.965   0.568   1.061  0.00  0.00    +0.046 C 
ATOM      9  C   UNL     1      -1.965  -0.504   0.712  0.00  0.00    -0.025 A 
ATOM     10  C   UNL     1      -2.074  -1.190  -0.480  0.00  0.00    +0.005 A 
ATOM     11  C   UNL     1      -1.157  -2.175  -0.801  0.00  0.00    +0.000 A 
ATOM     12  C   UNL     1      -0.125  -2.479   0.069  0.00  0.00    +0.002 A 
ATOM     13  C   UNL     1      -0.003  -1.801   1.264  0.00  0.00    +0.028 A 
ATOM     14  C   UNL     1      -0.923  -0.802   1.592  0.00  0.00    +0.069 A 
ENDBRANCH   1  14
BRANCH   3  15
ATOM     15  C   UNL     1      -0.639   1.179   5.367  0.00  0.00    +0.083 C 
ATOM     16  C   UNL     1      -1.943   1.743   4.765  0.00  0.00    +0.023 C 
ATOM     17  C   UNL     1      -1.524   3.103   4.155  0.00  0.00    +0.002 C 
ATOM     18  C   UNL     1      -0.120   2.799   3.575  0.00  0.00    +0.002 C 
ATOM     19  C   UNL     1       0.520   1.851   4.611  0.00  0.00    +0.023 C 
ENDBRANCH   3  15
BRANCH   6  20
ATOM     20  C   UNL     1       0.926  -3.144   6.417  0.00  0.00    +0.120 C 
BRANCH  20  21
ATOM     21  C   UNL     1       0.884  -4.640   6.244  0.00  0.00    +0.219 C 
ATOM     22  O   UNL     1      -0.115  -5.173   5.810  0.00  0.00    -0.275 OA
ATOM     23  N   UNL     1       1.957  -5.386   6.573  0.00  0.00    -0.285 N 
ATOM     24  H   UNL     1       2.727  -4.971   6.991  0.00  0.00    +0.155 HD
BRANCH  23  25
ATOM     25  C   UNL     1       1.960  -6.755   6.313  0.00  0.00    +0.033 A 
ATOM     26  C   UNL     1       2.615  -7.625   7.180  0.00  0.00    +0.024 A 
ATOM     27  C   UNL     1       2.620  -8.973   6.928  0.00  0.00    +0.013 A 
ATOM     28  C   UNL     1       1.965  -9.474   5.796  0.00  0.00    +0.017 A 
ATOM     29  C   UNL     1       1.307  -8.595   4.927  0.00  0.00    +0.013 A 
ATOM     30  C   UNL     1       1.303  -7.249   5.189  0.00  0.00    +0.024 A 
BRANCH  28  31
ATOM     31  C   UNL     1       1.968 -10.916   5.522  0.00  0.00    +0.160 C 
ATOM     32  O   UNL     1       2.442 -11.686   6.330  0.00  0.00    -0.292 OA
ATOM     33  C   UNL     1       1.382 -11.440   4.236  0.00  0.00    +0.091 C 
ENDBRANCH  28  31
ENDBRANCH  23  25
ENDBRANCH  20  21
ENDBRANCH   6  20
TORSDOF 6
