REMARK  Name = ZINC40376283
REMARK  6 active torsions:
REMARK  status: ('A' for Active; 'I' for Inactive)
REMARK    1  A    between atoms: C_1  and  C_2
REMARK    2  A    between atoms: C_7  and  N_8
REMARK    3  A    between atoms: C_14  and  C_19
REMARK    4  A    between atoms: C_19  and  C_20
REMARK    5  A    between atoms: N_22  and  C_23
REMARK    6  A    between atoms: C_28  and  N_29
REMARK                            x       y       z     vdW  Elec       q    Type
REMARK                         _______ _______ _______ _____ _____    ______ ____
ROOT
ATOM      1  N   UNL     1      -0.033  -0.141   2.466  0.00  0.00    -0.215 NA
ATOM      2  C   UNL     1      -0.281  -0.858   3.537  0.00  0.00    +0.202 C 
ATOM      3  N   UNL     1      -0.387  -2.222   3.439  0.00  0.00    -0.369 N 
ATOM      4  N   UNL     1      -0.435  -0.241   4.757  0.00  0.00    -0.295 N 
ATOM      5  C   UNL     1      -0.577  -1.002   5.904  0.00  0.00    +0.230 C 
ATOM      6  N   UNL     1      -0.812  -0.495   7.082  0.00  0.00    -0.236 NA
ATOM      7  C   UNL     1      -0.893  -1.632   8.015  0.00  0.00    +0.208 C 
ATOM      8  C   UNL     1      -0.658  -2.834   7.120  0.00  0.00    +0.274 C 
ATOM      9  O   UNL     1      -0.631  -4.128   7.486  0.00  0.00    -0.268 OA
ATOM     10  N   UNL     1      -0.493  -2.349   5.921  0.00  0.00    -0.176 NA
ATOM     11  H   UNL     1       0.146  -2.705   2.788  0.00  0.00    +0.159 HD
ATOM     12  H   UNL     1      -0.443   0.728   4.814  0.00  0.00    +0.172 HD
ATOM     13  H   UNL     1      -0.994  -2.704   4.022  0.00  0.00    +0.159 HD
ENDROOT
BRANCH   1  20
ATOM     14  C   UNL     1       2.256   0.303   0.841  0.00  0.00    +0.046 C 
ATOM     15  C   UNL     1       1.100  -0.554   0.394  0.00  0.00    -0.025 A 
ATOM     16  C   UNL     1       1.129  -1.164  -0.843  0.00  0.00    +0.005 A 
ATOM     17  C   UNL     1       0.068  -1.951  -1.255  0.00  0.00    +0.000 A 
ATOM     18  C   UNL     1      -1.028  -2.133  -0.430  0.00  0.00    +0.002 A 
ATOM     19  C   UNL     1      -1.069  -1.530   0.810  0.00  0.00    +0.028 A 
ATOM     20  C   UNL     1      -0.000  -0.738   1.234  0.00  0.00    +0.070 A 
ENDBRANCH   1  20
BRANCH   7  21
ATOM     21  C   UNL     1       0.196  -1.531   9.085  0.00  0.00    +0.132 C 
BRANCH  21  22
ATOM     22  C   UNL     1      -0.072  -0.334   9.961  0.00  0.00    +0.220 C 
ATOM     23  O   UNL     1      -1.038   0.368   9.751  0.00  0.00    -0.275 OA
ATOM     24  N   UNL     1       0.762  -0.044  10.979  0.00  0.00    -0.284 N 
ATOM     25  H   UNL     1       1.569  -0.567  11.109  0.00  0.00    +0.155 HD
BRANCH  24  26
ATOM     26  C   UNL     1       0.465   1.011  11.849  0.00  0.00    +0.064 A 
ATOM     27  C   UNL     1      -0.857   1.322  12.139  0.00  0.00    +0.025 A 
ATOM     28  C   UNL     1      -1.147   2.364  12.998  0.00  0.00    +0.002 A 
ATOM     29  C   UNL     1      -0.123   3.097  13.569  0.00  0.00    +0.002 A 
ATOM     30  C   UNL     1       1.194   2.790  13.282  0.00  0.00    +0.034 A 
ATOM     31  C   UNL     1       1.491   1.745  12.429  0.00  0.00    +0.147 A 
BRANCH  31  32
ATOM     32  N   UNL     1       2.902   1.412  12.127  0.00  0.00    +0.058 N 
ATOM     33  O   UNL     1       3.795   1.983  12.710  0.00  0.00    -0.126 OA
ATOM     34  O   UNL     1       3.161   0.570  11.300  0.00  0.00    -0.126 OA
ENDBRANCH  31  32
ENDBRANCH  24  26
ENDBRANCH  21  22
ENDBRANCH   7  21
TORSDOF 5
