REMARK  Name = ZINC39225743
REMARK  12 active torsions:
REMARK  status: ('A' for Active; 'I' for Inactive)
REMARK    1  A    between atoms: C_1  and  C_2
REMARK    2  A    between atoms: C_2  and  C_3
REMARK    3  A    between atoms: C_3  and  C_4
REMARK    4  A    between atoms: C_3  and  C_5
REMARK    5  A    between atoms: C_3  and  N_6
REMARK    6  A    between atoms: C_7  and  C_9
REMARK    7  A    between atoms: C_9  and  N_10
REMARK    8  A    between atoms: N_17  and  C_33
REMARK    9  A    between atoms: C_19  and  N_23
REMARK   10  A    between atoms: C_24  and  C_26
REMARK   11  A    between atoms: N_29  and  C_32
REMARK   12  A    between atoms: C_33  and  C_34
REMARK                            x       y       z     vdW  Elec       q    Type
REMARK                         _______ _______ _______ _____ _____    ______ ____
ROOT
ATOM      1  N   UNL     1       2.093  -4.639   3.414  0.00  0.00    -0.259 N 
ATOM      2  C   UNL     1       3.477  -4.846   3.361  0.00  0.00    +0.058 A 
ATOM      3  C   UNL     1       4.323  -3.873   2.856  0.00  0.00    +0.025 A 
ATOM      4  C   UNL     1       5.684  -4.109   2.792  0.00  0.00    +0.002 A 
ATOM      5  C   UNL     1       6.203  -5.314   3.230  0.00  0.00    +0.002 A 
ATOM      6  C   UNL     1       5.366  -6.288   3.744  0.00  0.00    +0.025 A 
ATOM      7  C   UNL     1       4.003  -6.054   3.822  0.00  0.00    +0.052 A 
ATOM      8  N   UNL     1       3.148  -7.005   4.392  0.00  0.00    -0.322 N 
ATOM      9  C   UNL     1       2.583  -6.741   5.716  0.00  0.00    +0.137 C 
ATOM     10  C   UNL     1       2.134  -5.282   5.809  0.00  0.00    +0.177 C 
ATOM     11  C   UNL     1       1.408  -4.878   4.553  0.00  0.00    +0.242 C 
ATOM     12  O   UNL     1       0.200  -4.771   4.564  0.00  0.00    -0.273 OA
ENDROOT
BRANCH  10  13
ATOM     13  N   UNL     1       1.237  -5.122   6.956  0.00  0.00    -0.302 N 
ATOM     14  C   UNL     1       1.110  -3.918   7.549  0.00  0.00    +0.217 C 
ATOM     15  O   UNL     1       1.738  -2.968   7.132  0.00  0.00    -0.275 OA
ATOM     16  H   UNL     1       0.735  -5.882   7.289  0.00  0.00    +0.150 HD
BRANCH  14  17
ATOM     17  C   UNL     1       0.188  -3.753   8.729  0.00  0.00    +0.071 C 
ATOM     18  C   UNL     1       0.644  -4.670   9.868  0.00  0.00    -0.006 C 
ATOM     19  C   UNL     1      -0.247  -4.439  11.090  0.00  0.00    -0.078 C 
ATOM     20  N   UNL     1      -0.145  -3.039  11.517  0.00  0.00    +0.378 N 
ATOM     21  C   UNL     1      -0.649  -2.157  10.457  0.00  0.00    -0.078 C 
ATOM     22  C   UNL     1       0.228  -2.300   9.211  0.00  0.00    -0.006 C 
ATOM     23  C   UNL     1      -0.942  -2.841  12.736  0.00  0.00    -0.096 C 
ATOM     24  H   UNL     1       0.820  -2.816  11.709  0.00  0.00    -0.082 HD
ENDBRANCH  14  17
ENDBRANCH  10  13
BRANCH   1  25
ATOM     25  C   UNL     1       1.385  -4.154   2.227  0.00  0.00    +0.209 C 
BRANCH  25  27
ATOM     26  N   UNL     1       0.762  -1.976   1.234  0.00  0.00    -0.309 N 
ATOM     27  C   UNL     1       1.364  -2.647   2.235  0.00  0.00    +0.231 C 
ATOM     28  O   UNL     1       1.890  -2.038   3.143  0.00  0.00    -0.274 OA
ATOM     29  H   UNL     1       0.342  -2.462   0.507  0.00  0.00    +0.149 HD
BRANCH  26  30
ATOM     30  C   UNL     1       0.742  -0.511   1.242  0.00  0.00    +0.029 C 
ATOM     31  C   UNL     1       2.178   0.019   1.231  0.00  0.00    +0.031 C 
ATOM     32  C   UNL     1       0.026  -0.018   2.500  0.00  0.00    +0.031 C 
BRANCH  30  34
ATOM     33  C   UNL     1      -0.019   1.526   0.010  0.00  0.00    +0.006 C 
ATOM     34  C   UNL     1       0.002  -0.004   0.002  0.00  0.00    +0.022 C 
ENDBRANCH  30  34
ENDBRANCH  26  30
ENDBRANCH  25  27
ENDBRANCH   1  25
BRANCH   8  35
ATOM     35  C   UNL     1       2.824  -8.241   3.675  0.00  0.00    +0.143 C 
BRANCH  35  36
ATOM     36  C   UNL     1       3.828  -9.307   4.033  0.00  0.00    +0.007 A 
ATOM     37  C   UNL     1       5.049  -9.570   3.370  0.00  0.00    +0.046 A 
ATOM     38  C   UNL     1       5.629 -10.598   4.016  0.00  0.00    +0.195 A 
ATOM     39  O   UNL     1       4.828 -10.969   5.028  0.00  0.00    -0.471 OA
ATOM     40  C   UNL     1       3.736 -10.186   5.046  0.00  0.00    +0.200 A 
ENDBRANCH  35  36
ENDBRANCH   8  35
TORSDOF 8
