REMARK  Name = ZINC37572813
REMARK  7 active torsions:
REMARK  status: ('A' for Active; 'I' for Inactive)
REMARK    1  A    between atoms: C_1  and  C_2
REMARK    2  A    between atoms: C_5  and  N_9
REMARK    3  A    between atoms: N_9  and  S_10
REMARK    4  A    between atoms: S_10  and  C_13
REMARK    5  A    between atoms: C_16  and  C_19
REMARK    6  A    between atoms: C_19  and  N_20
REMARK    7  A    between atoms: N_20  and  C_21
REMARK                            x       y       z     vdW  Elec       q    Type
REMARK                         _______ _______ _______ _____ _____    ______ ____
ROOT
ATOM      1  S   UNL     1       0.203  -5.003   1.401  0.00  0.00    +0.092 S 
ATOM      2  O   UNL     1       1.448  -4.623   1.970  0.00  0.00    -0.148 OA
ATOM      3  O   UNL     1      -1.030  -4.846   2.090  0.00  0.00    -0.148 OA
ENDROOT
BRANCH   1   4
ATOM      4  C   UNL     1       0.337  -6.712   0.991  0.00  0.00    +0.110 A 
ATOM      5  C   UNL     1      -0.802  -7.487   0.883  0.00  0.00    +0.029 A 
ATOM      6  C   UNL     1      -0.698  -8.828   0.561  0.00  0.00    +0.003 A 
ATOM      7  C   UNL     1       0.546  -9.392   0.349  0.00  0.00    -0.064 A 
ATOM      8  C   UNL     1       1.685  -8.616   0.456  0.00  0.00    +0.003 A 
ATOM      9  C   UNL     1       1.580  -7.275   0.773  0.00  0.00    +0.029 A 
BRANCH   7  10
ATOM     10  C   UNL     1       0.660 -10.854  -0.001  0.00  0.00    -0.047 C 
BRANCH  10  11
ATOM     11  N   UNL     1       0.610 -11.014  -1.460  0.00  0.00    +0.380 N 
ATOM     12  C   UNL     1       0.721 -12.439  -1.800  0.00  0.00    -0.100 C 
ATOM     13  H   UNL     1      -0.266 -10.653  -1.808  0.00  0.00    -0.086 HD
ATOM     14  H   UNL     1       1.374 -10.507  -1.881  0.00  0.00    -0.086 HD
ENDBRANCH  10  11
ENDBRANCH   7  10
ENDBRANCH   1   4
BRANCH   1  15
ATOM     15  N   UNL     1       0.059  -4.168  -0.023  0.00  0.00    -0.097 NA
BRANCH  15  20
ATOM     16  C   UNL     1      -0.081   1.502   0.018  0.00  0.00    +0.044 C 
ATOM     17  C   UNL     1      -0.044  -0.005   0.007  0.00  0.00    -0.049 A 
ATOM     18  C   UNL     1      -0.059  -0.704   1.200  0.00  0.00    +0.005 A 
ATOM     19  C   UNL     1      -0.025  -2.085   1.194  0.00  0.00    +0.028 A 
ATOM     20  C   UNL     1       0.025  -2.772  -0.013  0.00  0.00    +0.088 A 
ATOM     21  C   UNL     1       0.040  -2.066  -1.210  0.00  0.00    +0.043 A 
ATOM     22  C   UNL     1       0.000  -0.685  -1.196  0.00  0.00    +0.020 A 
ATOM     23 BR   UNL     1       0.107  -2.995  -2.856  0.00  0.00    -0.048 Br
ENDBRANCH  15  20
ENDBRANCH   1  15
TORSDOF 5
