REMARK  Name = ZINC40015314
REMARK  10 active torsions:
REMARK  status: ('A' for Active; 'I' for Inactive)
REMARK    1  A    between atoms: C_1  and  C_2
REMARK    2  A    between atoms: C_2  and  C_3
REMARK    3  A    between atoms: C_3  and  O_4
REMARK    4  A    between atoms: O_4  and  C_5
REMARK    5  A    between atoms: C_8  and  C_11
REMARK    6  A    between atoms: C_11  and  C_13
REMARK    7  A    between atoms: N_17  and  C_30
REMARK    8  A    between atoms: N_25  and  C_28
REMARK    9  A    between atoms: C_28  and  C_29
REMARK   10  A    between atoms: C_30  and  C_31
REMARK                            x       y       z     vdW  Elec       q    Type
REMARK                         _______ _______ _______ _____ _____    ______ ____
ROOT
ATOM      1  C   UNL     1      -6.321  -6.044   0.064  0.00  0.00    +0.089 C 
ATOM      2  C   UNL     1      -7.375  -6.896   0.031  0.00  0.00    +0.250 C 
ATOM      3  C   UNL     1      -6.876  -8.287   0.068  0.00  0.00    +0.288 C 
ATOM      4  O   UNL     1      -7.576  -9.281   0.051  0.00  0.00    -0.266 OA
ATOM      5  N   UNL     1      -5.529  -8.291   0.122  0.00  0.00    -0.270 N 
ATOM      6  C   UNL     1      -5.085  -6.899   0.118  0.00  0.00    +0.174 C 
ATOM      7  C   UNL     1      -4.170  -6.614  -1.043  0.00  0.00    +0.011 A 
ATOM      8  C   UNL     1      -4.324  -6.699  -2.409  0.00  0.00    +0.008 A 
ATOM      9  C   UNL     1      -3.274  -6.361  -3.245  0.00  0.00    +0.000 A 
ATOM     10  C   UNL     1      -2.073  -5.938  -2.706  0.00  0.00    +0.002 A 
ATOM     11  C   UNL     1      -1.916  -5.851  -1.339  0.00  0.00    +0.024 A 
ATOM     12  C   UNL     1      -2.967  -6.189  -0.489  0.00  0.00    +0.042 A 
ATOM     13  N   UNL     1      -3.052  -6.185   0.904  0.00  0.00    -0.269 N 
ATOM     14  C   UNL     1      -4.260  -6.587   1.341  0.00  0.00    +0.253 C 
ATOM     15  O   UNL     1      -4.617  -6.681   2.496  0.00  0.00    -0.272 OA
ATOM     16  O   UNL     1      -8.677  -6.531  -0.025  0.00  0.00    -0.282 OA
ENDROOT
BRANCH   1  17
ATOM     17  C   UNL     1      -6.376  -4.579   0.044  0.00  0.00    +0.196 C 
ATOM     18  O   UNL     1      -6.106  -3.974  -0.977  0.00  0.00    -0.287 OA
BRANCH  17  22
ATOM     19  C   UNL     1      -7.474  -2.448   3.550  0.00  0.00    +0.121 A 
ATOM     20  C   UNL     1      -7.053  -1.755   2.420  0.00  0.00    +0.046 A 
ATOM     21  C   UNL     1      -6.696  -2.442   1.282  0.00  0.00    +0.015 A 
ATOM     22  C   UNL     1      -6.757  -3.838   1.263  0.00  0.00    +0.022 A 
ATOM     23  C   UNL     1      -7.181  -4.531   2.401  0.00  0.00    +0.015 A 
ATOM     24  C   UNL     1      -7.532  -3.837   3.536  0.00  0.00    +0.046 A 
BRANCH  19  25
ATOM     25  O   UNL     1      -7.825  -1.767   4.670  0.00  0.00    -0.492 OA
BRANCH  25  26
ATOM     26  C   UNL     1      -7.743  -0.341   4.614  0.00  0.00    +0.229 C 
BRANCH  26  28
ATOM     27  C   UNL     1      -8.086   1.773   5.901  0.00  0.00    +0.007 C 
ATOM     28  C   UNL     1      -8.175   0.247   5.959  0.00  0.00    +0.038 C 
ENDBRANCH  26  28
ENDBRANCH  25  26
ENDBRANCH  19  25
ENDBRANCH  17  22
ENDBRANCH   1  17
BRANCH  13  29
ATOM     29  C   UNL     1      -1.954  -5.789   1.789  0.00  0.00    +0.110 C 
ATOM     30  C   UNL     1      -2.105  -4.312   2.159  0.00  0.00    +0.025 C 
ENDBRANCH  13  29
BRANCH   5  31
ATOM     31  C   UNL     1      -4.668  -9.475   0.170  0.00  0.00    +0.141 C 
BRANCH  31  32
ATOM     32  C   UNL     1      -4.309  -9.903  -1.254  0.00  0.00    +0.136 C 
ATOM     33  C   UNL     1      -3.426 -11.175  -1.227  0.00  0.00    +0.035 C 
ATOM     34  C   UNL     1      -3.725 -11.772  -2.629  0.00  0.00    +0.031 C 
ATOM     35  C   UNL     1      -5.205 -11.387  -2.840  0.00  0.00    +0.160 C 
ATOM     36  O   UNL     1      -5.493 -10.281  -1.974  0.00  0.00    -0.375 OA
ENDBRANCH  31  32
ENDBRANCH   5  31
TORSDOF 8
