REMARK  Name = ZINC00888528
REMARK  10 active torsions:
REMARK  status: ('A' for Active; 'I' for Inactive)
REMARK    1  A    between atoms: C_1  and  C_2
REMARK    2  A    between atoms: C_5  and  C_7
REMARK    3  A    between atoms: N_10  and  C_12
REMARK    4  A    between atoms: C_12  and  C_13
REMARK    5  A    between atoms: N_15  and  C_16
REMARK    6  A    between atoms: N_15  and  C_24
REMARK    7  A    between atoms: C_16  and  C_17
REMARK    8  A    between atoms: C_24  and  C_26
REMARK    9  A    between atoms: C_24  and  C_31
REMARK   10  A    between atoms: N_33  and  C_34
REMARK                            x       y       z     vdW  Elec       q    Type
REMARK                         _______ _______ _______ _____ _____    ______ ____
ROOT
ATOM      1  C   UNL     1       6.008  -4.544  -1.222  0.00  0.00    +0.240 C 
ATOM      2  O   UNL     1       5.365  -3.970  -2.075  0.00  0.00    -0.273 OA
ATOM      3  N   UNL     1       7.036  -5.341  -1.575  0.00  0.00    -0.279 N 
ENDROOT
BRANCH   1   4
ATOM      4  C   UNL     1       5.657  -4.367   0.233  0.00  0.00    +0.264 C 
BRANCH   4   8
ATOM      5  C   UNL     1       3.353  -1.711   0.551  0.00  0.00    +0.239 A 
ATOM      6  N   UNL     1       2.534  -2.772   0.475  0.00  0.00    -0.105 NA
ATOM      7  N   UNL     1       3.276  -3.820   0.354  0.00  0.00    -0.045 NA
ATOM      8  N   UNL     1       4.512  -3.461   0.352  0.00  0.00    -0.154 N 
ATOM      9  N   UNL     1       4.584  -2.179   0.465  0.00  0.00    -0.127 NA
BRANCH   5  14
ATOM     10  C   UNL     1       3.643   3.280   1.006  0.00  0.00    +0.086 C 
ATOM     11  C   UNL     1       3.075   1.888   0.896  0.00  0.00    +0.103 A 
ATOM     12  C   UNL     1       1.766   1.571   0.912  0.00  0.00    +0.045 A 
ATOM     13  C   UNL     1       1.680   0.170   0.784  0.00  0.00    +0.053 A 
ATOM     14  C   UNL     1       2.954  -0.295   0.696  0.00  0.00    +0.175 A 
ATOM     15  O   UNL     1       3.790   0.759   0.760  0.00  0.00    -0.457 OA
ENDBRANCH   5  14
ENDBRANCH   4   8
ENDBRANCH   1   4
BRANCH   3  16
ATOM     16  C   UNL     1       7.813  -6.034  -0.544  0.00  0.00    +0.145 C 
BRANCH  16  17
ATOM     17  C   UNL     1       7.165  -7.359  -0.233  0.00  0.00    -0.012 A 
ATOM     18  C   UNL     1       6.345  -7.486   0.872  0.00  0.00    +0.006 A 
ATOM     19  C   UNL     1       5.752  -8.701   1.157  0.00  0.00    +0.000 A 
ATOM     20  C   UNL     1       5.977  -9.790   0.337  0.00  0.00    +0.001 A 
ATOM     21  C   UNL     1       6.797  -9.665  -0.769  0.00  0.00    +0.020 A 
ATOM     22  C   UNL     1       7.387  -8.447  -1.058  0.00  0.00    +0.046 A 
ATOM     23 CL   UNL     1       8.411  -8.288  -2.450  0.00  0.00    -0.083 Cl
ENDBRANCH  16  17
ENDBRANCH   3  16
BRANCH   3  24
ATOM     24  C   UNL     1       7.378  -5.513  -2.989  0.00  0.00    +0.199 C 
BRANCH  24  25
ATOM     25  C   UNL     1       6.247  -6.214  -3.697  0.00  0.00    +0.019 A 
ATOM     26  C   UNL     1       6.300  -7.104  -4.718  0.00  0.00    +0.013 A 
ATOM     27  C   UNL     1       5.121  -7.625  -5.215  0.00  0.00    +0.008 A 
ATOM     28  C   UNL     1       3.945  -7.231  -4.667  0.00  0.00    +0.045 A 
ATOM     29  S   UNL     1       4.490  -6.095  -3.403  0.00  0.00    -0.099 S 
ENDBRANCH  24  25
BRANCH  24  30
ATOM     30  C   UNL     1       7.605  -4.163  -3.619  0.00  0.00    +0.239 C 
ATOM     31  O   UNL     1       7.444  -3.154  -2.966  0.00  0.00    -0.273 OA
ATOM     32  N   UNL     1       7.986  -4.077  -4.909  0.00  0.00    -0.311 N 
ATOM     33  H   UNL     1       8.046  -4.879  -5.451  0.00  0.00    +0.149 HD
BRANCH  32  34
ATOM     34  C   UNL     1       8.312  -2.773  -5.491  0.00  0.00    +0.073 C 
ATOM     35  C   UNL     1       7.024  -2.083  -5.946  0.00  0.00    +0.022 C 
ATOM     36  C   UNL     1       7.364  -0.720  -6.554  0.00  0.00    +0.002 C 
ATOM     37  C   UNL     1       8.290  -0.915  -7.756  0.00  0.00    +0.000 C 
ATOM     38  C   UNL     1       9.578  -1.605  -7.301  0.00  0.00    +0.002 C 
ATOM     39  C   UNL     1       9.238  -2.967  -6.693  0.00  0.00    +0.022 C 
ENDBRANCH  32  34
ENDBRANCH  24  30
ENDBRANCH   3  24
TORSDOF 9
