REMARK  Name = ZINC01866269
REMARK  8 active torsions:
REMARK  status: ('A' for Active; 'I' for Inactive)
REMARK    1  A    between atoms: C_1  and  C_2
REMARK    2  A    between atoms: C_2  and  C_3
REMARK    3  A    between atoms: C_3  and  C_28
REMARK    4  A    between atoms: C_10  and  N_25
REMARK    5  A    between atoms: C_12  and  S_14
REMARK    6  A    between atoms: S_14  and  C_15
REMARK    7  A    between atoms: C_15  and  C_16
REMARK    8  A    between atoms: C_19  and  N_22
REMARK                            x       y       z     vdW  Elec       q    Type
REMARK                         _______ _______ _______ _____ _____    ______ ____
ROOT
ATOM      1  C   UNL     1       4.355   0.097   1.549  0.00  0.00    +0.071 C 
ATOM      2  C   UNL     1       3.773   1.266   0.749  0.00  0.00    +0.071 C 
ATOM      3  C   UNL     1       2.259   1.080   0.672  0.00  0.00    -0.020 A 
ATOM      4  C   UNL     1       1.723  -0.131   0.935  0.00  0.00    +0.021 A 
ATOM      5  S   UNL     1      -0.023   0.086   0.741  0.00  0.00    -0.071 S 
ATOM      6  C   UNL     1      -0.032   1.806   0.305  0.00  0.00    +0.115 A 
ATOM      7  C   UNL     1       1.334   2.157   0.325  0.00  0.00    +0.051 A 
ATOM      8  C   UNL     1       1.622   3.513   0.005  0.00  0.00    +0.129 A 
ATOM      9  N   UNL     1       0.628   4.336  -0.282  0.00  0.00    -0.207 NA
ATOM     10  C   UNL     1      -0.639   3.939  -0.283  0.00  0.00    +0.191 A 
ATOM     11  N   UNL     1      -0.968   2.688   0.012  0.00  0.00    -0.215 NA
ATOM     12  C   UNL     1       2.475  -1.371   1.308  0.00  0.00    +0.203 C 
ATOM     13  O   UNL     1       3.866  -1.144   1.032  0.00  0.00    -0.368 OA
ATOM     14  C   UNL     1       3.941   0.231   3.016  0.00  0.00    +0.042 C 
ENDROOT
BRANCH   8  15
ATOM     15  N   UNL     1       2.929   3.966  -0.005  0.00  0.00    -0.343 N 
ATOM     16  H   UNL     1       3.662   3.334   0.058  0.00  0.00    +0.144 HD
ATOM     17  H   UNL     1       3.113   4.916  -0.075  0.00  0.00    +0.144 HD
ENDBRANCH   8  15
BRANCH   1  19
ATOM     18  C   UNL     1       6.465  -1.044   2.246  0.00  0.00    +0.007 C 
ATOM     19  C   UNL     1       5.881   0.123   1.447  0.00  0.00    +0.032 C 
ENDBRANCH   1  19
BRANCH  10  20
ATOM     20  S   UNL     1      -1.908   5.096  -0.676  0.00  0.00    -0.081 S 
BRANCH  20  21
ATOM     21  C   UNL     1      -0.905   6.574  -0.970  0.00  0.00    +0.112 C 
BRANCH  21  22
ATOM     22  C   UNL     1      -1.805   7.728  -1.333  0.00  0.00    -0.037 A 
ATOM     23  C   UNL     1      -2.120   7.967  -2.657  0.00  0.00    +0.007 A 
ATOM     24  C   UNL     1      -2.949   9.023  -2.990  0.00  0.00    +0.033 A 
ATOM     25  C   UNL     1      -3.454   9.844  -1.999  0.00  0.00    +0.126 A 
ATOM     26  C   UNL     1      -3.134   9.607  -0.676  0.00  0.00    +0.033 A 
ATOM     27  C   UNL     1      -2.309   8.549  -0.342  0.00  0.00    +0.007 A 
BRANCH  25  28
ATOM     28  N   UNL     1      -4.338  10.977  -2.356  0.00  0.00    +0.056 N 
ATOM     29  O   UNL     1      -4.783  11.700  -1.483  0.00  0.00    -0.126 OA
ATOM     30  O   UNL     1      -4.619  11.186  -3.523  0.00  0.00    -0.126 OA
ENDBRANCH  25  28
ENDBRANCH  21  22
ENDBRANCH  20  21
ENDBRANCH  10  20
TORSDOF 6
