REMARK  Name = ZINC06051749
REMARK  7 active torsions:
REMARK  status: ('A' for Active; 'I' for Inactive)
REMARK    1  A    between atoms: C_1  and  C_2
REMARK    2  A    between atoms: C_3  and  C_11
REMARK    3  A    between atoms: C_4  and  N_10
REMARK    4  A    between atoms: N_5  and  C_7
REMARK    5  A    between atoms: C_7  and  C_8
REMARK    6  A    between atoms: C_8  and  O_9
REMARK    7  A    between atoms: C_11  and  O_23
REMARK                            x       y       z     vdW  Elec       q    Type
REMARK                         _______ _______ _______ _____ _____    ______ ____
ROOT
ATOM      1  C   UNL     1      -0.005  -0.341  -2.566  0.00  0.00    +0.199 C 
ATOM      2  C   UNL     1       0.709   0.986  -2.689  0.00  0.00    +0.021 A 
ATOM      3  C   UNL     1       2.004   1.379  -2.438  0.00  0.00    +0.029 A 
ATOM      4  C   UNL     1       2.380   2.695  -2.648  0.00  0.00    +0.043 A 
ATOM      5  C   UNL     1       1.451   3.610  -3.111  0.00  0.00    +0.042 A 
ATOM      6  C   UNL     1       0.152   3.218  -3.364  0.00  0.00    +0.064 A 
ATOM      7  C   UNL     1      -0.233   1.894  -3.154  0.00  0.00    +0.059 A 
ATOM      8  N   UNL     1      -1.466   1.263  -3.332  0.00  0.00    -0.281 N 
ATOM      9  C   UNL     1      -1.420  -0.041  -3.012  0.00  0.00    +0.258 C 
ATOM     10  O   UNL     1      -2.340  -0.830  -3.070  0.00  0.00    -0.272 OA
ATOM     11 CL   UNL     1      -1.004   4.375  -3.945  0.00  0.00    -0.082 Cl
ATOM     12 CL   UNL     1       4.012   3.195  -2.332  0.00  0.00    -0.083 Cl
ATOM     13  H   UNL     1      -2.263   1.714  -3.650  0.00  0.00    +0.155 HD
ENDROOT
BRANCH   1  16
ATOM     14  C   UNL     1      -0.018   1.503   0.010  0.00  0.00    +0.065 C 
ATOM     15  C   UNL     1       0.002  -0.004   0.002  0.00  0.00    +0.040 A 
ATOM     16  C   UNL     1       0.008  -0.816  -1.136  0.00  0.00    +0.057 A 
ATOM     17  C   UNL     1       0.027  -2.113  -0.721  0.00  0.00    +0.119 A 
ATOM     18  N   UNL     1       0.034  -2.110   0.631  0.00  0.00    -0.271 N 
ATOM     19  N   UNL     1       0.023  -0.776   1.058  0.00  0.00    -0.300 N 
ATOM     20  H   UNL     1       0.028  -0.475   1.981  0.00  0.00    +0.187 HD
BRANCH  17  21
ATOM     21  N   UNL     1       0.038  -3.238  -1.541  0.00  0.00    -0.343 N 
ATOM     22  H   UNL     1       0.032  -3.136  -2.506  0.00  0.00    +0.144 HD
ATOM     23  H   UNL     1       0.052  -4.125  -1.147  0.00  0.00    +0.144 HD
ENDBRANCH  17  21
BRANCH  18  24
ATOM     24  C   UNL     1       0.053  -3.292   1.496  0.00  0.00    +0.171 C 
BRANCH  24  25
ATOM     25  C   UNL     1       1.497  -3.759   1.689  0.00  0.00    +0.179 C 
BRANCH  25  26
ATOM     26  O   UNL     1       1.516  -4.912   2.533  0.00  0.00    -0.393 OA
ATOM     27  H   UNL     1       2.401  -5.263   2.699  0.00  0.00    +0.209 HD
ENDBRANCH  25  26
ENDBRANCH  24  25
ENDBRANCH  18  24
ENDBRANCH   1  16
BRANCH   1  28
ATOM     28  O   UNL     1       0.594  -1.316  -3.421  0.00  0.00    -0.371 OA
ATOM     29  H   UNL     1       0.613  -1.063  -4.354  0.00  0.00    +0.212 HD
ENDBRANCH   1  28
TORSDOF 6
