REMARK  Name = ZINC02970665
REMARK  9 active torsions:
REMARK  status: ('A' for Active; 'I' for Inactive)
REMARK    1  A    between atoms: C_2  and  C_3
REMARK    2  A    between atoms: C_3  and  N_4
REMARK    3  A    between atoms: C_10  and  C_27
REMARK    4  A    between atoms: C_14  and  S_15
REMARK    5  A    between atoms: S_15  and  C_16
REMARK    6  A    between atoms: C_16  and  C_17
REMARK    7  A    between atoms: N_19  and  C_20
REMARK    8  A    between atoms: N_29  and  C_30
REMARK    9  A    between atoms: C_30  and  C_31
REMARK                            x       y       z     vdW  Elec       q    Type
REMARK                         _______ _______ _______ _____ _____    ______ ____
ROOT
ATOM      1  N   UNL     1      -2.111   1.337  -1.123  0.00  0.00    -0.283 N 
ATOM      2  C   UNL     1      -2.945   0.283  -0.972  0.00  0.00    +0.263 A 
ATOM      3  O   UNL     1      -3.032  -0.305   0.091  0.00  0.00    -0.267 OA
ATOM      4  C   UNL     1      -3.742  -0.128  -2.138  0.00  0.00    +0.065 A 
ATOM      5  C   UNL     1      -4.628  -1.204  -2.077  0.00  0.00    +0.016 A 
ATOM      6  C   UNL     1      -5.350  -1.553  -3.182  0.00  0.00    +0.014 A 
ATOM      7  C   UNL     1      -5.210  -0.842  -4.380  0.00  0.00    +0.039 A 
ATOM      8  C   UNL     1      -4.334   0.233  -4.463  0.00  0.00    +0.041 A 
ATOM      9  C   UNL     1      -3.590   0.601  -3.339  0.00  0.00    +0.080 A 
ATOM     10  N   UNL     1      -2.723   1.641  -3.374  0.00  0.00    -0.223 NA
ATOM     11  C   UNL     1      -2.028   1.990  -2.320  0.00  0.00    +0.173 A 
ENDROOT
BRANCH   7  12
ATOM     12  C   UNL     1      -6.002  -1.238  -5.567  0.00  0.00    +0.244 C 
ATOM     13  O   UNL     1      -5.884  -0.623  -6.609  0.00  0.00    -0.270 OA
ATOM     14  N   UNL     1      -6.854  -2.279  -5.492  0.00  0.00    -0.304 N 
ATOM     15  H   UNL     1      -6.948  -2.770  -4.660  0.00  0.00    +0.149 HD
BRANCH  14  16
ATOM     16  C   UNL     1      -7.637  -2.671  -6.666  0.00  0.00    +0.179 C 
BRANCH  16  17
ATOM     17  C   UNL     1      -8.504  -3.854  -6.320  0.00  0.00    +0.122 A 
ATOM     18  C   UNL     1      -9.755  -3.796  -5.831  0.00  0.00    +0.046 A 
ATOM     19  C   UNL     1     -10.188  -5.130  -5.653  0.00  0.00    +0.041 A 
ATOM     20  C   UNL     1      -9.175  -5.924  -6.044  0.00  0.00    +0.195 A 
ATOM     21  O   UNL     1      -8.159  -5.146  -6.452  0.00  0.00    -0.466 OA
ENDBRANCH  16  17
ENDBRANCH  14  16
ENDBRANCH   7  12
BRANCH   1  22
ATOM     22  C   UNL     1      -1.295   1.787   0.007  0.00  0.00    +0.154 C 
BRANCH  22  24
ATOM     23  C   UNL     1       1.146   1.739  -0.013  0.00  0.00    +0.005 C 
ATOM     24  C   UNL     1       0.026   1.060  -0.007  0.00  0.00    -0.013 C 
ENDBRANCH  22  24
ENDBRANCH   1  22
BRANCH  11  25
ATOM     25  S   UNL     1      -0.931   3.362  -2.454  0.00  0.00    -0.078 S 
BRANCH  25  26
ATOM     26  C   UNL     1      -1.214   3.823  -4.181  0.00  0.00    +0.173 C 
BRANCH  26  27
ATOM     27  C   UNL     1      -0.355   5.011  -4.532  0.00  0.00    +0.228 C 
ATOM     28  O   UNL     1       0.377   5.497  -3.696  0.00  0.00    -0.275 OA
ATOM     29  N   UNL     1      -0.400   5.532  -5.774  0.00  0.00    -0.284 N 
ATOM     30  H   UNL     1      -0.936   5.104  -6.460  0.00  0.00    +0.155 HD
BRANCH  29  31
ATOM     31  C   UNL     1       0.326   6.691  -6.073  0.00  0.00    +0.052 A 
ATOM     32  C   UNL     1       1.558   6.914  -5.473  0.00  0.00    +0.025 A 
ATOM     33  C   UNL     1       2.275   8.056  -5.775  0.00  0.00    +0.002 A 
ATOM     34  C   UNL     1       1.762   8.981  -6.665  0.00  0.00    +0.002 A 
ATOM     35  C   UNL     1       0.533   8.765  -7.261  0.00  0.00    +0.022 A 
ATOM     36  C   UNL     1      -0.187   7.622  -6.968  0.00  0.00    +0.062 A 
ATOM     37 CL   UNL     1      -1.730   7.351  -7.715  0.00  0.00    -0.082 Cl
ENDBRANCH  29  31
ENDBRANCH  26  27
ENDBRANCH  25  26
ENDBRANCH  11  25
TORSDOF 9
