REMARK  Name = ZINC09346156
REMARK  6 active torsions:
REMARK  status: ('A' for Active; 'I' for Inactive)
REMARK    1  A    between atoms: C_1  and  C_2
REMARK    2  A    between atoms: C_9  and  C_13
REMARK    3  A    between atoms: C_10  and  O_12
REMARK    4  A    between atoms: N_14  and  N_15
REMARK    5  A    between atoms: C_16  and  C_18
REMARK    6  A    between atoms: C_21  and  C_23
REMARK                            x       y       z     vdW  Elec       q    Type
REMARK                         _______ _______ _______ _____ _____    ______ ____
ROOT
ATOM      1  C   UNL     1       3.589   2.228  -0.022  0.00  0.00    +0.143 C 
ATOM      2  N   UNL     1       3.509   3.524  -0.015  0.00  0.00    -0.188 NA
ENDROOT
BRANCH   1  11
ATOM      3  C   UNL     1       0.063  -4.290  -0.018  0.00  0.00    +0.044 C 
ATOM      4  C   UNL     1       0.058  -2.783  -0.012  0.00  0.00    -0.050 A 
ATOM      5  C   UNL     1      -1.156  -2.099   0.004  0.00  0.00    +0.005 A 
ATOM      6  C   UNL     1      -1.196  -0.738   0.010  0.00  0.00    +0.029 A 
ATOM      7  C   UNL     1       0.002  -0.004   0.002  0.00  0.00    +0.075 A 
ATOM      8  C   UNL     1       1.236  -0.701  -0.013  0.00  0.00    +0.001 A 
ATOM      9  C   UNL     1       1.240  -2.106  -0.020  0.00  0.00    +0.013 A 
ATOM     10  C   UNL     1       2.438   0.029  -0.021  0.00  0.00    +0.024 A 
ATOM     11  C   UNL     1       2.360   1.415  -0.014  0.00  0.00    +0.056 A 
ATOM     12  C   UNL     1       1.092   2.039   0.003  0.00  0.00    +0.222 A 
ATOM     13  N   UNL     1      -0.016   1.335   0.009  0.00  0.00    -0.212 NA
BRANCH  12  14
ATOM     14  O   UNL     1       1.018   3.392   0.010  0.00  0.00    -0.492 OA
ATOM     15  H   UNL     1       1.005   3.780   0.896  0.00  0.00    +0.294 HD
ENDBRANCH  12  14
ENDBRANCH   1  11
BRANCH   2  16
ATOM     16  N   UNL     1       4.677   4.298  -0.022  0.00  0.00    -0.207 N 
ATOM     17  C   UNL     1       4.595   5.643  -0.015  0.00  0.00    +0.236 C 
ATOM     18  O   UNL     1       3.509   6.184  -0.001  0.00  0.00    -0.274 OA
ATOM     19  H   UNL     1       5.545   3.865  -0.033  0.00  0.00    +0.177 HD
BRANCH  17  20
ATOM     20  C   UNL     1       5.851   6.475  -0.023  0.00  0.00    +0.085 C 
ATOM     21  C   UNL     1       6.155   7.284  -1.286  0.00  0.00    +0.022 C 
ATOM     22  C   UNL     1       5.691   7.997  -0.014  0.00  0.00    +0.032 C 
BRANCH  22  23
ATOM     23  C   UNL     1       6.716   8.799   0.747  0.00  0.00    -0.044 A 
ATOM     24  C   UNL     1       8.051   8.724   0.397  0.00  0.00    +0.004 A 
ATOM     25  C   UNL     1       8.990   9.464   1.091  0.00  0.00    +0.000 A 
ATOM     26  C   UNL     1       8.595  10.271   2.141  0.00  0.00    +0.000 A 
ATOM     27  C   UNL     1       7.260  10.342   2.495  0.00  0.00    +0.000 A 
ATOM     28  C   UNL     1       6.321   9.606   1.797  0.00  0.00    +0.004 A 
ENDBRANCH  22  23
ENDBRANCH  17  20
ENDBRANCH   2  16
TORSDOF 5
