REMARK  Name = ZINC38668698
REMARK  6 active torsions:
REMARK  status: ('A' for Active; 'I' for Inactive)
REMARK    1  A    between atoms: C_1  and  C_2
REMARK    2  A    between atoms: C_3  and  C_11
REMARK    3  A    between atoms: N_13  and  C_14
REMARK    4  A    between atoms: C_14  and  C_15
REMARK    5  A    between atoms: C_15  and  C_16
REMARK    6  A    between atoms: C_22  and  C_24
REMARK                            x       y       z     vdW  Elec       q    Type
REMARK                         _______ _______ _______ _____ _____    ______ ____
ROOT
ATOM      1  C   UNL     1       0.314  -2.047  -5.785  0.00  0.00    +0.075 C 
ENDROOT
BRANCH   1   2
ATOM      2  C   UNL     1       0.413  -1.583  -7.215  0.00  0.00    +0.054 A 
ATOM      3  C   UNL     1       1.614  -1.444  -7.782  0.00  0.00    +0.072 A 
ATOM      4  S   UNL     1       1.178  -0.891  -9.424  0.00  0.00    -0.056 S 
ATOM      5  C   UNL     1      -0.586  -0.894  -9.210  0.00  0.00    +0.196 A 
ATOM      6  N   UNL     1      -0.733  -1.314  -7.923  0.00  0.00    -0.210 N 
ATOM      7  N   UNL     1      -2.138  -1.333  -7.719  0.00  0.00    -0.144 NA
ATOM      8  C   UNL     1      -2.708  -0.949  -8.839  0.00  0.00    +0.186 A 
ATOM      9  N   UNL     1      -1.757  -0.676  -9.740  0.00  0.00    -0.200 NA
BRANCH   8  10
ATOM     10  C   UNL     1      -4.169  -0.828  -9.064  0.00  0.00    +0.056 A 
ATOM     11  C   UNL     1      -5.063  -1.127  -8.037  0.00  0.00    +0.014 A 
ATOM     12  C   UNL     1      -6.421  -1.012  -8.252  0.00  0.00    +0.001 A 
ATOM     13  C   UNL     1      -6.898  -0.601  -9.483  0.00  0.00    +0.003 A 
ATOM     14  C   UNL     1      -6.018  -0.302 -10.507  0.00  0.00    +0.039 A 
ATOM     15  C   UNL     1      -4.655  -0.407 -10.303  0.00  0.00    +0.134 A 
ATOM     16  F   UNL     1      -3.795  -0.110 -11.301  0.00  0.00    -0.205 F 
ENDBRANCH   8  10
ENDBRANCH   1   2
BRANCH   1  17
ATOM     17  C   UNL     1       0.200  -0.832  -4.862  0.00  0.00    +0.110 C 
BRANCH  17  20
ATOM     18  C   UNL     1      -0.005  -0.381  -2.476  0.00  0.00    +0.263 C 
ATOM     19  O   UNL     1      -0.118   0.803  -2.738  0.00  0.00    -0.269 OA
ATOM     20  N   UNL     1       0.104  -1.283  -3.471  0.00  0.00    -0.310 N 
ATOM     21  H   UNL     1       0.118  -2.231  -3.267  0.00  0.00    +0.149 HD
BRANCH  18  24
ATOM     22  C   UNL     1      -2.527  -0.778  -0.684  0.00  0.00    +0.068 C 
ATOM     23  C   UNL     1      -1.086  -0.997  -0.300  0.00  0.00    +0.069 A 
ATOM     24  C   UNL     1       0.011  -0.810  -1.125  0.00  0.00    +0.131 A 
ATOM     25  N   UNL     1       1.126  -1.124  -0.369  0.00  0.00    -0.295 N 
ATOM     26  C   UNL     1       2.456  -1.124  -0.653  0.00  0.00    +0.093 A 
ATOM     27  C   UNL     1       3.361  -1.483   0.285  0.00  0.00    +0.018 A 
ATOM     28  C   UNL     1       2.934  -1.861   1.566  0.00  0.00    +0.005 A 
ATOM     29  C   UNL     1       1.603  -1.864   1.859  0.00  0.00    +0.047 A 
ATOM     30  C   UNL     1       0.678  -1.487   0.869  0.00  0.00    +0.138 A 
ATOM     31  N   UNL     1      -0.651  -1.397   0.884  0.00  0.00    -0.232 NA
ENDBRANCH  18  24
ENDBRANCH  17  20
ENDBRANCH   1  17
TORSDOF 5
