REMARK  Name = ZINC21810891
REMARK  6 active torsions:
REMARK  status: ('A' for Active; 'I' for Inactive)
REMARK    1  A    between atoms: C_1  and  C_2
REMARK    2  A    between atoms: C_5  and  N_8
REMARK    3  A    between atoms: C_9  and  C_11
REMARK    4  A    between atoms: C_11  and  C_32
REMARK    5  A    between atoms: N_23  and  C_24
REMARK    6  A    between atoms: C_24  and  C_25
REMARK                            x       y       z     vdW  Elec       q    Type
REMARK                         _______ _______ _______ _____ _____    ______ ____
ROOT
ATOM      1  C   UNL     1       1.750   1.932   1.543  0.00  0.00    +0.129 C 
ATOM      2  C   UNL     1       3.232   1.627   1.305  0.00  0.00    +0.157 C 
ATOM      3  N   UNL     1       3.681   2.337   0.104  0.00  0.00    -0.331 N 
ATOM      4  C   UNL     1       4.915   2.815  -0.221  0.00  0.00    +0.088 A 
ATOM      5  C   UNL     1       6.258   2.977   0.197  0.00  0.00    +0.067 A 
ATOM      6  C   UNL     1       6.911   3.606  -0.795  0.00  0.00    +0.198 A 
ATOM      7  O   UNL     1       6.062   3.848  -1.808  0.00  0.00    -0.461 OA
ATOM      8  C   UNL     1       4.834   3.382  -1.492  0.00  0.00    +0.153 A 
ATOM      9  C   UNL     1       3.510   3.248  -1.934  0.00  0.00    +0.079 A 
ATOM     10  C   UNL     1       2.811   2.616  -0.948  0.00  0.00    +0.109 A 
ATOM     11  C   UNL     1       1.395   2.237  -0.872  0.00  0.00    +0.264 C 
ATOM     12  O   UNL     1       0.658   2.315  -1.838  0.00  0.00    -0.268 OA
ATOM     13  N   UNL     1       0.953   1.796   0.329  0.00  0.00    -0.276 N 
ATOM     14  C   UNL     1       1.209   0.967   2.600  0.00  0.00    +0.043 C 
ENDROOT
BRANCH   1  16
ATOM     15  N   UNL     1       0.551   4.090   1.704  0.00  0.00    -0.311 N 
ATOM     16  C   UNL     1       1.614   3.341   2.059  0.00  0.00    +0.238 C 
ATOM     17  O   UNL     1       2.462   3.802   2.795  0.00  0.00    -0.273 OA
ATOM     18  H   UNL     1      -0.253   3.650   1.096  0.00  0.00    +0.149 HD
BRANCH  15  23
ATOM     19  C   UNL     1      -1.197   9.264   3.437  0.00  0.00    +0.007 C 
ATOM     20  C   UNL     1      -1.110   7.801   2.995  0.00  0.00    -0.014 C 
ATOM     21  C   UNL     1      -0.507   7.728   1.591  0.00  0.00    +0.005 C 
ATOM     22  C   UNL     1      -0.419   6.266   1.150  0.00  0.00    +0.022 C 
ATOM     23  C   UNL     1       0.467   5.490   2.127  0.00  0.00    +0.073 C 
ATOM     24  C   UNL     1      -0.136   5.564   3.531  0.00  0.00    +0.022 C 
ATOM     25  C   UNL     1      -0.223   7.026   3.972  0.00  0.00    +0.005 C 
ENDBRANCH  15  23
ENDBRANCH   1  16
BRANCH  13  26
ATOM     26  C   UNL     1      -0.369   1.170   0.413  0.00  0.00    +0.145 C 
BRANCH  26  27
ATOM     27  C   UNL     1      -1.388   2.199   0.829  0.00  0.00    -0.012 A 
ATOM     28  C   UNL     1      -1.722   2.341   2.163  0.00  0.00    +0.006 A 
ATOM     29  C   UNL     1      -2.653   3.289   2.545  0.00  0.00    +0.000 A 
ATOM     30  C   UNL     1      -3.258   4.088   1.592  0.00  0.00    +0.001 A 
ATOM     31  C   UNL     1      -2.928   3.943   0.258  0.00  0.00    +0.020 A 
ATOM     32  C   UNL     1      -1.992   2.998  -0.124  0.00  0.00    +0.046 A 
ATOM     33 CL   UNL     1      -1.577   2.817  -1.800  0.00  0.00    -0.083 Cl
ENDBRANCH  26  27
ENDBRANCH  13  26
TORSDOF 4
