REMARK  Name = ZINC31047015
REMARK  10 active torsions:
REMARK  status: ('A' for Active; 'I' for Inactive)
REMARK    1  A    between atoms: C_1  and  C_2
REMARK    2  A    between atoms: C_7  and  O_8
REMARK    3  A    between atoms: O_8  and  C_9
REMARK    4  A    between atoms: C_9  and  C_10
REMARK    5  A    between atoms: C_10  and  C_12
REMARK    6  A    between atoms: C_10  and  N_13
REMARK    7  A    between atoms: C_14  and  C_16
REMARK    8  A    between atoms: N_21  and  C_23
REMARK    9  A    between atoms: C_23  and  C_24
REMARK   10  A    between atoms: C_26  and  C_29
REMARK                            x       y       z     vdW  Elec       q    Type
REMARK                         _______ _______ _______ _____ _____    ______ ____
ROOT
ATOM      1  C   UNL     1       6.136  -0.900   2.945  0.00  0.00    +0.058 C 
ATOM      2  C   UNL     1       5.129  -0.914   4.098  0.00  0.00    +0.009 C 
ATOM      3  C   UNL     1       5.860  -0.599   5.407  0.00  0.00    -0.018 C 
ATOM      4  C   UNL     1       6.977  -1.623   5.620  0.00  0.00    -0.078 C 
ATOM      5  N   UNL     1       7.913  -1.571   4.491  0.00  0.00    +0.386 N 
ATOM      6  C   UNL     1       7.245  -1.915   3.229  0.00  0.00    -0.065 C 
ATOM      7  H   UNL     1       8.277  -0.536   4.405  0.00  0.00    -0.081 HD
ENDROOT
BRANCH   1   9
ATOM      8  N   UNL     1       4.416  -0.510   1.210  0.00  0.00    -0.309 N 
ATOM      9  C   UNL     1       5.436  -1.267   1.662  0.00  0.00    +0.215 C 
ATOM     10  O   UNL     1       5.790  -2.243   1.035  0.00  0.00    -0.276 OA
ATOM     11  H   UNL     1       4.095   0.375   1.778  0.00  0.00    +0.149 HD
BRANCH   8  12
ATOM     12  C   UNL     1       3.735  -0.867  -0.037  0.00  0.00    +0.107 C 
ATOM     13  C   UNL     1       4.503  -0.279  -1.223  0.00  0.00    +0.031 C 
BRANCH  12  14
ATOM     14  C   UNL     1       2.313  -0.303  -0.021  0.00  0.00    +0.251 C 
BRANCH  14  15
ATOM     15  O   UNL     1       2.366   1.125  -0.014  0.00  0.00    -0.490 OA
BRANCH  15  22
ATOM     16  C   UNL     1       2.449   3.948  -0.001  0.00  0.00    +0.047 C 
ATOM     17  C   UNL     1       1.157   3.173   0.008  0.00  0.00    -0.009 A 
ATOM     18  C   UNL     1      -0.051   3.844   0.023  0.00  0.00    +0.007 A 
ATOM     19  C   UNL     1      -1.237   3.133   0.030  0.00  0.00    +0.000 A 
ATOM     20  C   UNL     1      -1.218   1.751   0.017  0.00  0.00    +0.004 A 
ATOM     21  C   UNL     1      -0.013   1.076   0.008  0.00  0.00    +0.046 A 
ATOM     22  C   UNL     1       1.179   1.786   0.000  0.00  0.00    +0.123 A 
ENDBRANCH  15  22
ENDBRANCH  14  15
ENDBRANCH  12  14
ENDBRANCH   8  12
ENDBRANCH   1   9
BRANCH   5  23
ATOM     23  C   UNL     1       9.072  -2.442   4.728  0.00  0.00    +0.022 C 
BRANCH  23  24
ATOM     24  C   UNL     1       8.623  -3.880   4.754  0.00  0.00    +0.211 A 
ATOM     25  N   UNL     1       8.546  -4.690   3.728  0.00  0.00    -0.193 NA
ATOM     26  C   UNL     1       8.100  -5.865   4.226  0.00  0.00    +0.202 A 
ATOM     27  N   UNL     1       7.927  -5.699   5.511  0.00  0.00    -0.056 NA
ATOM     28  O   UNL     1       8.223  -4.567   5.829  0.00  0.00    -0.340 OA
BRANCH  26  29
ATOM     29  C   UNL     1       7.850  -7.110   3.456  0.00  0.00    +0.023 A 
ATOM     30  C   UNL     1       8.075  -7.139   2.082  0.00  0.00    +0.013 A 
ATOM     31  C   UNL     1       7.847  -8.300   1.372  0.00  0.00    +0.021 A 
ATOM     32  C   UNL     1       7.383  -9.431   2.021  0.00  0.00    +0.041 A 
ATOM     33  C   UNL     1       7.152  -9.405   3.386  0.00  0.00    +0.021 A 
ATOM     34  C   UNL     1       7.383  -8.251   4.106  0.00  0.00    +0.013 A 
ATOM     35 CL   UNL     1       7.091 -10.887   1.122  0.00  0.00    -0.084 Cl
ENDBRANCH  26  29
ENDBRANCH  23  24
ENDBRANCH   5  23
TORSDOF 8
