REMARK  Name = ZINC25321239
REMARK  7 active torsions:
REMARK  status: ('A' for Active; 'I' for Inactive)
REMARK    1  A    between atoms: C_1  and  C_2
REMARK    2  A    between atoms: C_2  and  C_26
REMARK    3  A    between atoms: N_5  and  N_9
REMARK    4  A    between atoms: C_10  and  C_12
REMARK    5  A    between atoms: C_19  and  C_21
REMARK    6  A    between atoms: C_26  and  C_27
REMARK    7  A    between atoms: C_27  and  C_28
REMARK                            x       y       z     vdW  Elec       q    Type
REMARK                         _______ _______ _______ _____ _____    ______ ____
ROOT
ATOM      1  C   UNL     1      -1.316   3.839   1.099  0.00  0.00    +0.041 C 
ATOM      2  C   UNL     1      -0.710   3.401  -0.235  0.00  0.00    +0.112 C 
ATOM      3  C   UNL     1       0.800   3.317  -0.132  0.00  0.00    +0.263 C 
ATOM      4  O   UNL     1       1.569   4.220   0.119  0.00  0.00    -0.271 OA
ATOM      5  N   UNL     1       1.111   2.029  -0.379  0.00  0.00    -0.137 N 
ATOM      6  C   UNL     1       0.019   1.295  -0.622  0.00  0.00    +0.326 C 
ATOM      7  O   UNL     1       0.046   0.106  -0.871  0.00  0.00    -0.251 OA
ATOM      8  N   UNL     1      -1.111   2.022  -0.564  0.00  0.00    -0.284 N 
ATOM      9  H   UNL     1      -2.174   1.778  -0.708  0.00  0.00    +0.151 HD
ENDROOT
BRANCH   5  10
ATOM     10  N   UNL     1       2.417   1.522  -0.383  0.00  0.00    -0.223 N 
ATOM     11  C   UNL     1       3.026   1.235  -1.551  0.00  0.00    +0.234 C 
ATOM     12  O   UNL     1       2.443   1.417  -2.599  0.00  0.00    -0.274 OA
ATOM     13  H   UNL     1       2.946   1.357   0.567  0.00  0.00    +0.174 HD
BRANCH  11  14
ATOM     14  C   UNL     1       4.430   0.690  -1.555  0.00  0.00    +0.094 C 
ATOM     15  C   UNL     1       4.883   0.454  -2.998  0.00  0.00    +0.016 C 
ATOM     16  C   UNL     1       6.297  -0.130  -3.003  0.00  0.00    +0.020 C 
ATOM     17  C   UNL     1       7.260   0.867  -2.350  0.00  0.00    +0.108 C 
ATOM     18  N   UNL     1       6.752   1.209  -1.014  0.00  0.00    -0.294 N 
ATOM     19  C   UNL     1       5.372   1.696  -0.886  0.00  0.00    +0.121 C 
ATOM     20  C   UNL     1       7.538   1.079   0.073  0.00  0.00    +0.282 C 
ATOM     21  O   UNL     1       7.147   1.471   1.157  0.00  0.00    -0.267 OA
BRANCH  20  22
ATOM     22  C   UNL     1       8.864   0.465  -0.050  0.00  0.00    +0.189 A 
ATOM     23  C   UNL     1       9.811   0.398   0.931  0.00  0.00    +0.054 A 
ATOM     24  C   UNL     1      10.916  -0.271   0.381  0.00  0.00    +0.042 A 
ATOM     25  C   UNL     1      10.601  -0.572  -0.898  0.00  0.00    +0.196 A 
ATOM     26  O   UNL     1       9.365  -0.127  -1.154  0.00  0.00    -0.458 OA
ENDBRANCH  20  22
ENDBRANCH  11  14
ENDBRANCH   5  10
BRANCH   2  27
ATOM     27  C   UNL     1      -1.121   4.361  -1.353  0.00  0.00    +0.040 C 
BRANCH  27  28
ATOM     28  C   UNL     1      -2.647   4.426  -1.434  0.00  0.00    +0.038 C 
BRANCH  28  29
ATOM     29  C   UNL     1      -3.052   5.372  -2.535  0.00  0.00    -0.047 A 
ATOM     30  C   UNL     1      -3.246   6.712  -2.258  0.00  0.00    +0.003 A 
ATOM     31  C   UNL     1      -3.613   7.580  -3.269  0.00  0.00    +0.000 A 
ATOM     32  C   UNL     1      -3.796   7.107  -4.555  0.00  0.00    +0.000 A 
ATOM     33  C   UNL     1      -3.606   5.765  -4.831  0.00  0.00    +0.000 A 
ATOM     34  C   UNL     1      -3.235   4.898  -3.821  0.00  0.00    +0.003 A 
ENDBRANCH  28  29
ENDBRANCH  27  28
ENDBRANCH   2  27
TORSDOF 6
