REMARK  Name = ZINC36310035
REMARK  15 active torsions:
REMARK  status: ('A' for Active; 'I' for Inactive)
REMARK    1  A    between atoms: C_1  and  O_2
REMARK    2  A    between atoms: O_2  and  C_3
REMARK    3  A    between atoms: C_6  and  O_9
REMARK    4  A    between atoms: O_9  and  C_10
REMARK    5  A    between atoms: C_10  and  C_11
REMARK    6  A    between atoms: C_21  and  C_23
REMARK    7  A    between atoms: C_23  and  N_24
REMARK    8  A    between atoms: N_24  and  C_25
REMARK    9  A    between atoms: N_24  and  C_34
REMARK   10  A    between atoms: C_25  and  C_26
REMARK   11  A    between atoms: C_26  and  C_28
REMARK   12  A    between atoms: C_26  and  O_33
REMARK   13  A    between atoms: C_28  and  O_29
REMARK   14  A    between atoms: O_29  and  C_30
REMARK   15  A    between atoms: C_30  and  C_31
REMARK                            x       y       z     vdW  Elec       q    Type
REMARK                         _______ _______ _______ _____ _____    ______ ____
ROOT
ATOM      1  C   UNL     1      -6.199  -4.625   0.043  0.00  0.00    +0.144 C 
ATOM      2  C   UNL     1      -7.001  -4.018   1.193  0.00  0.00    -0.014 A 
ATOM      3  C   UNL     1      -6.867  -4.429   2.518  0.00  0.00    +0.013 A 
ATOM      4  C   UNL     1      -7.609  -3.843   3.486  0.00  0.00    +0.046 A 
ATOM      5  S   UNL     1      -8.557  -2.652   2.553  0.00  0.00    -0.101 S 
ATOM      6  C   UNL     1      -7.899  -3.025   0.949  0.00  0.00    -0.004 A 
ATOM      7  C   UNL     1      -8.247  -2.404  -0.365  0.00  0.00    +0.061 C 
ATOM      8  C   UNL     1      -7.154  -2.762  -1.383  0.00  0.00    +0.113 C 
ATOM      9  N   UNL     1      -6.812  -4.183  -1.216  0.00  0.00    -0.292 N 
ATOM     10  C   UNL     1      -7.059  -5.067  -2.203  0.00  0.00    +0.200 C 
ATOM     11  O   UNL     1      -6.774  -6.237  -2.055  0.00  0.00    -0.278 OA
ENDROOT
BRANCH   1  12
ATOM     12  C   UNL     1      -4.749  -4.141   0.112  0.00  0.00    +0.256 C 
BRANCH  12  13
ATOM     13  O   UNL     1      -4.724  -2.713   0.145  0.00  0.00    -0.490 OA
BRANCH  13  17
ATOM     14  C   UNL     1      -1.018  -0.906   0.335  0.00  0.00    +0.120 A 
ATOM     15  C   UNL     1      -2.167  -0.130   0.306  0.00  0.00    +0.049 A 
ATOM     16  C   UNL     1      -3.407  -0.735   0.243  0.00  0.00    +0.049 A 
ATOM     17  C   UNL     1      -3.503  -2.118   0.207  0.00  0.00    +0.121 A 
ATOM     18  C   UNL     1      -2.354  -2.894   0.235  0.00  0.00    +0.049 A 
ATOM     19  C   UNL     1      -1.114  -2.289   0.294  0.00  0.00    +0.049 A 
BRANCH  14  21
ATOM     20  C   UNL     1       0.228   1.117   0.437  0.00  0.00    +0.277 C 
ATOM     21  O   UNL     1       0.203  -0.311   0.397  0.00  0.00    -0.495 OA
ENDBRANCH  14  21
ENDBRANCH  13  17
ENDBRANCH  12  13
ENDBRANCH   1  12
BRANCH  10  22
ATOM     22  C   UNL     1      -7.689  -4.602  -3.491  0.00  0.00    +0.019 C 
BRANCH  22  23
ATOM     23  N   UNL     1      -7.985  -5.765  -4.339  0.00  0.00    +0.389 N 
ATOM     24  H   UNL     1      -7.150  -6.320  -4.452  0.00  0.00    -0.081 HD
BRANCH  23  25
ATOM     25  C   UNL     1      -8.450  -5.306  -5.654  0.00  0.00    -0.068 C 
ATOM     26  C   UNL     1      -7.681  -5.792  -6.885  0.00  0.00    -0.017 C 
ATOM     27  C   UNL     1      -7.548  -4.339  -6.425  0.00  0.00    -0.017 C 
ENDBRANCH  23  25
BRANCH  23  28
ATOM     28  C   UNL     1      -9.032  -6.578  -3.706  0.00  0.00    -0.044 C 
BRANCH  28  29
ATOM     29  C   UNL     1      -9.253  -7.852  -4.524  0.00  0.00    +0.124 C 
BRANCH  29  30
ATOM     30  O   UNL     1      -9.657  -7.502  -5.849  0.00  0.00    -0.391 OA
ATOM     31  H   UNL     1     -10.478  -6.992  -5.889  0.00  0.00    +0.210 HD
ENDBRANCH  29  30
BRANCH  29  32
ATOM     32  C   UNL     1     -10.343  -8.699  -3.865  0.00  0.00    +0.189 C 
BRANCH  32  33
ATOM     33  O   UNL     1     -10.469  -9.940  -4.562  0.00  0.00    -0.373 OA
BRANCH  33  34
ATOM     34  C   UNL     1     -11.466 -10.811  -4.024  0.00  0.00    +0.186 C 
BRANCH  34  35
ATOM     35  C   UNL     1     -11.511 -12.082  -4.831  0.00  0.00    -0.007 C 
ATOM     36  C   UNL     1     -11.568 -13.242  -4.224  0.00  0.00    +0.006 C 
ENDBRANCH  34  35
ENDBRANCH  33  34
ENDBRANCH  32  33
ENDBRANCH  29  32
ENDBRANCH  28  29
ENDBRANCH  23  28
ENDBRANCH  22  23
ENDBRANCH  10  22
TORSDOF 14
