REMARK  Name = ZINC05331293
REMARK  4 active torsions:
REMARK  status: ('A' for Active; 'I' for Inactive)
REMARK    1  A    between atoms: C_3  and  N_15
REMARK    2  A    between atoms: C_4  and  C_10
REMARK    3  A    between atoms: C_6  and  N_7
REMARK    4  A    between atoms: N_11  and  N_12
REMARK                            x       y       z     vdW  Elec       q    Type
REMARK                         _______ _______ _______ _____ _____    ______ ____
ROOT
ATOM      1  C   UNL     1       2.132  -3.499  -0.037  0.00  0.00    +0.034 A 
ATOM      2  C   UNL     1       3.053  -2.469  -0.041  0.00  0.00    +0.026 A 
ATOM      3  C   UNL     1       2.622  -1.151  -0.035  0.00  0.00    +0.039 A 
ATOM      4  C   UNL     1       1.248  -0.869  -0.014  0.00  0.00    +0.018 A 
ATOM      5  C   UNL     1       0.328  -1.920  -0.011  0.00  0.00    +0.044 A 
ATOM      6  C   UNL     1       0.775  -3.225  -0.022  0.00  0.00    +0.127 A 
ENDROOT
BRANCH   3   7
ATOM      7  N   UNL     1       3.550  -0.111  -0.044  0.00  0.00    -0.329 N 
ATOM      8  C   UNL     1       4.328  -0.111  -1.290  0.00  0.00    +0.105 C 
ATOM      9  C   UNL     1       5.231   1.124  -1.329  0.00  0.00    +0.019 C 
ATOM     10  C   UNL     1       6.170   1.103  -0.120  0.00  0.00    +0.003 C 
ATOM     11  C   UNL     1       5.335   1.054   1.163  0.00  0.00    +0.019 C 
ATOM     12  C   UNL     1       4.429  -0.179   1.130  0.00  0.00    +0.105 C 
ENDBRANCH   3   7
BRANCH   6  13
ATOM     13  N   UNL     1      -0.202  -4.338  -0.019  0.00  0.00    +0.056 N 
ATOM     14  O   UNL     1      -1.396  -4.100  -0.006  0.00  0.00    -0.126 OA
ATOM     15  O   UNL     1       0.190  -5.491  -0.029  0.00  0.00    -0.126 OA
ENDBRANCH   6  13
BRANCH   4  16
ATOM     16  C   UNL     1       0.777   0.527  -0.003  0.00  0.00    +0.142 C 
ATOM     17  N   UNL     1       1.635   1.501  -0.005  0.00  0.00    -0.179 NA
BRANCH  17  18
ATOM     18  N   UNL     1       1.188   2.829   0.006  0.00  0.00    -0.249 N 
ATOM     19  C   UNL     1       2.098   3.861   0.003  0.00  0.00    +0.187 C 
ATOM     20  N   UNL     1       1.659   5.165   0.014  0.00  0.00    -0.370 N 
ATOM     21  H   UNL     1       0.238   3.020   0.016  0.00  0.00    +0.192 HD
ATOM     22  H   UNL     1       4.095   4.263  -0.014  0.00  0.00    +0.159 HD
ATOM     23  H   UNL     1       0.708   5.356   0.024  0.00  0.00    +0.159 HD
ATOM     24  H   UNL     1       2.300   5.893   0.012  0.00  0.00    +0.159 HD
ATOM     25  N   UNL     1       3.382   3.533  -0.011  0.00  0.00    -0.370 N 
ATOM     26  H   UNL     1       3.660   2.545  -0.019  0.00  0.00    +0.159 HD
ENDBRANCH  17  18
ENDBRANCH   4  16
TORSDOF 4
