REMARK  Name = ZINC09191222
REMARK  8 active torsions:
REMARK  status: ('A' for Active; 'I' for Inactive)
REMARK    1  A    between atoms: C_1  and  C_2
REMARK    2  A    between atoms: C_2  and  C_26
REMARK    3  A    between atoms: N_3  and  N_4
REMARK    4  A    between atoms: C_5  and  C_7
REMARK    5  A    between atoms: C_8  and  C_18
REMARK    6  A    between atoms: C_18  and  S_19
REMARK    7  A    between atoms: S_19  and  C_20
REMARK    8  A    between atoms: C_29  and  O_32
REMARK                            x       y       z     vdW  Elec       q    Type
REMARK                         _______ _______ _______ _____ _____    ______ ____
ROOT
ATOM      1  C   UNL     1       0.046   0.085   4.784  0.00  0.00    +0.173 A 
ATOM      2  C   UNL     1       0.071  -0.482   6.027  0.00  0.00    +0.089 A 
ATOM      3  N   UNL     1       0.064   0.533   6.919  0.00  0.00    -0.191 N 
ATOM      4  N   UNL     1       0.034   1.723   6.178  0.00  0.00    -0.058 NA
ATOM      5  N   UNL     1       0.030   1.422   4.927  0.00  0.00    -0.124 NA
ATOM      6  C   UNL     1       0.082   0.418   8.314  0.00  0.00    +0.240 A 
ATOM      7  C   UNL     1       0.067   1.532   9.267  0.00  0.00    +0.206 A 
ATOM      8  N   UNL     1       0.091   1.039  10.474  0.00  0.00    -0.032 NA
ATOM      9  O   UNL     1       0.121  -0.373  10.366  0.00  0.00    -0.239 OA
ATOM     10  N   UNL     1       0.108  -0.697   8.987  0.00  0.00    -0.027 NA
ATOM     11  N   UNL     1       0.034   2.883   8.939  0.00  0.00    -0.337 N 
ATOM     12  H   UNL     1       0.018   3.156   8.008  0.00  0.00    +0.144 HD
ATOM     13  H   UNL     1       0.026   3.552   9.641  0.00  0.00    +0.144 HD
ENDROOT
BRANCH   1  15
ATOM     14  N   UNL     1       0.024   0.035   2.340  0.00  0.00    -0.201 N 
ATOM     15  C   UNL     1       0.044  -0.645   3.503  0.00  0.00    +0.285 C 
ATOM     16  O   UNL     1       0.060  -1.861   3.496  0.00  0.00    -0.267 OA
ATOM     17  H   UNL     1       0.011   1.005   2.345  0.00  0.00    +0.178 HD
BRANCH  14  20
ATOM     18  C   UNL     1      -0.018   1.503   0.010  0.00  0.00    +0.068 C 
ATOM     19  C   UNL     1       0.002  -0.004   0.002  0.00  0.00    +0.063 C 
ATOM     20  N   UNL     1       0.022  -0.659   1.123  0.00  0.00    -0.184 NA
BRANCH  19  21
ATOM     21  C   UNL     1      -0.000  -0.734  -1.279  0.00  0.00    -0.002 A 
ATOM     22  C   UNL     1      -0.015  -0.031  -2.486  0.00  0.00    +0.013 A 
ATOM     23  C   UNL     1      -0.017  -0.718  -3.681  0.00  0.00    +0.046 A 
ATOM     24  C   UNL     1      -0.004  -2.107  -3.686  0.00  0.00    +0.117 A 
ATOM     25  C   UNL     1       0.011  -2.810  -2.488  0.00  0.00    +0.046 A 
ATOM     26  C   UNL     1       0.019  -2.131  -1.289  0.00  0.00    +0.013 A 
BRANCH  24  27
ATOM     27  O   UNL     1      -0.007  -2.780  -4.866  0.00  0.00    -0.507 OA
ATOM     28  H   UNL     1       0.876  -2.966  -5.215  0.00  0.00    +0.292 HD
ENDBRANCH  24  27
ENDBRANCH  19  21
ENDBRANCH  14  20
ENDBRANCH   1  15
BRANCH   2  29
ATOM     29  C   UNL     1       0.101  -1.956   6.341  0.00  0.00    +0.132 C 
BRANCH  29  30
ATOM     30  S   UNL     1      -1.597  -2.577   6.487  0.00  0.00    -0.119 S 
BRANCH  30  31
ATOM     31  C   UNL     1      -1.393  -4.289   6.852  0.00  0.00    +0.008 A 
ATOM     32  C   UNL     1      -0.119  -4.831   6.964  0.00  0.00    +0.015 A 
ATOM     33  C   UNL     1       0.037  -6.173   7.249  0.00  0.00    +0.001 A 
ATOM     34  C   UNL     1      -1.075  -6.978   7.424  0.00  0.00    +0.000 A 
ATOM     35  C   UNL     1      -2.345  -6.442   7.313  0.00  0.00    +0.001 A 
ATOM     36  C   UNL     1      -2.508  -5.100   7.034  0.00  0.00    +0.015 A 
ENDBRANCH  30  31
ENDBRANCH  29  30
ENDBRANCH   2  29
TORSDOF 7
